MODEL 1
REMARK VINA RESULT:     -10.5      0.000      0.000
REMARK  8 active torsions:
REMARK  status: ('A' for Active; 'I' for Inactive)
REMARK    1  A    between atoms: C_2  and  O_3 
REMARK    2  A    between atoms: C_2  and  C_14 
REMARK    3  A    between atoms: O_3  and  C_4 
REMARK       I    between atoms: C_14  and  N_15 
REMARK    4  A    between atoms: N_15  and  N_16 
REMARK       I    between atoms: N_16  and  C_17 
REMARK    5  A    between atoms: C_17  and  C_18 
REMARK    6  A    between atoms: C_18  and  C_19 
REMARK    7  A    between atoms: C_19  and  C_20 
REMARK    8  A    between atoms: C_20  and  C_21 
ROOT
HETATM    1  N   UNL     1      25.838  48.045  49.623  1.00  0.00    -0.267 N 
HETATM    2  C   UNL     1      26.529  49.022  48.924  1.00  0.00     0.236 C 
HETATM    3  O   UNL     1      27.748  49.157  48.975  1.00  0.00    -0.272 OA
HETATM    4  H   UNL     1      24.925  47.754  49.274  1.00  0.00     0.190 HD
ENDROOT
BRANCH   1   5
HETATM    5  N   UNL     1      26.587  47.003  50.199  1.00  0.00    -0.265 N 
HETATM    6  C   UNL     1      26.099  45.715  50.030  1.00  0.00     0.265 C 
HETATM    7  O   UNL     1      25.005  45.501  49.504  1.00  0.00    -0.269 OA
HETATM    8  H   UNL     1      27.585  47.174  50.305  1.00  0.00     0.190 HD
BRANCH   6   9
HETATM    9  C   UNL     1      27.003  44.624  50.615  1.00  0.00     0.218 C 
HETATM   10  C   UNL     1      26.894  43.352  49.783  1.00  0.00     0.050 C 
BRANCH   9  11
HETATM   11  O   UNL     1      26.473  44.412  51.928  1.00  0.00    -0.337 OA
BRANCH  11  12
HETATM   12  C   UNL     1      27.220  44.746  53.018  1.00  0.00     0.070 A 
HETATM   13  C   UNL     1      28.248  43.841  53.308  1.00  0.00     0.049 A 
HETATM   14  C   UNL     1      29.116  44.042  54.392  1.00  0.00    -0.023 A 
HETATM   15  C   UNL     1      28.956  45.191  55.196  1.00  0.00    -0.026 A 
HETATM   16  C   UNL     1      30.139  43.128  54.693  1.00  0.00     0.012 A 
HETATM   17  C   UNL     1      27.930  46.100  54.890  1.00  0.00     0.015 A 
HETATM   18  C   UNL     1      29.829  45.398  56.277  1.00  0.00     0.012 A 
HETATM   19  C   UNL     1      27.067  45.879  53.810  1.00  0.00     0.037 A 
HETATM   20  C   UNL     1      30.840  44.479  56.565  1.00  0.00     0.001 A 
HETATM   21  C   UNL     1      30.994  43.344  55.775  1.00  0.00     0.001 A 
ENDBRANCH  11  12
ENDBRANCH   9  11
ENDBRANCH   6   9
ENDBRANCH   1   5
BRANCH   2  22
HETATM   22  C   UNL     1      25.594  49.924  48.139  1.00  0.00     0.105 C 
BRANCH  22  23
HETATM   23  C   UNL     1      24.114  49.624  48.358  1.00  0.00     0.014 C 
BRANCH  23  24
HETATM   24  C   UNL     1      23.219  50.812  47.990  1.00  0.00     0.039 C 
BRANCH  24  25
HETATM   25  C   UNL     1      21.812  50.612  48.505  1.00  0.00    -0.056 A 
HETATM   26  C   UNL     1      20.917  51.696  48.528  1.00  0.00     0.039 A 
HETATM   27  C   UNL     1      19.663  51.461  49.039  1.00  0.00     0.063 A 
HETATM   28  C   UNL     1      19.278  50.213  49.523  1.00  0.00     0.063 A 
HETATM   29  N   UNL     1      18.587  52.328  49.189  1.00  0.00    -0.306 N 
HETATM   30  N   UNL     1      17.966  50.312  49.972  1.00  0.00    -0.307 N 
HETATM   31  C   UNL     1      20.126  49.132  49.520  1.00  0.00     0.032 A 
HETATM   32  C   UNL     1      17.521  51.627  49.771  1.00  0.00     0.325 A 
HETATM   33  H   UNL     1      17.403  49.586  50.381  1.00  0.00     0.170 HD
HETATM   34  O   UNL     1      16.422  52.073  50.048  1.00  0.00    -0.247 OA
HETATM   35  C   UNL     1      21.411  49.343  49.003  1.00  0.00     0.009 A 
HETATM   36  H   UNL     1      18.550  53.301  48.937  1.00  0.00     0.170 HD
ENDBRANCH  24  25
ENDBRANCH  23  24
ENDBRANCH  22  23
ENDBRANCH   2  22
TORSDOF 8
ENDMDL
MODEL 2
REMARK VINA RESULT:     -10.4      4.801      7.935
REMARK  8 active torsions:
REMARK  status: ('A' for Active; 'I' for Inactive)
REMARK    1  A    between atoms: C_2  and  O_3 
REMARK    2  A    between atoms: C_2  and  C_14 
REMARK    3  A    between atoms: O_3  and  C_4 
REMARK       I    between atoms: C_14  and  N_15 
REMARK    4  A    between atoms: N_15  and  N_16 
REMARK       I    between atoms: N_16  and  C_17 
REMARK    5  A    between atoms: C_17  and  C_18 
REMARK    6  A    between atoms: C_18  and  C_19 
REMARK    7  A    between atoms: C_19  and  C_20 
REMARK    8  A    between atoms: C_20  and  C_21 
ROOT
HETATM    1  N   UNL     1      23.518  44.505  50.512  1.00  0.00    -0.267 N 
HETATM    2  C   UNL     1      23.144  44.824  49.216  1.00  0.00     0.236 C 
HETATM    3  O   UNL     1      23.292  45.938  48.723  1.00  0.00    -0.272 OA
HETATM    4  H   UNL     1      23.709  43.528  50.735  1.00  0.00     0.190 HD
ENDROOT
BRANCH   1   5
HETATM    5  N   UNL     1      24.343  45.417  51.195  1.00  0.00    -0.265 N 
HETATM    6  C   UNL     1      24.991  44.946  52.328  1.00  0.00     0.265 C 
HETATM    7  O   UNL     1      24.769  43.823  52.782  1.00  0.00    -0.269 OA
HETATM    8  H   UNL     1      24.747  46.164  50.633  1.00  0.00     0.190 HD
BRANCH   6   9
HETATM    9  C   UNL     1      25.932  45.968  52.978  1.00  0.00     0.218 C 
HETATM   10  C   UNL     1      26.103  47.177  52.067  1.00  0.00     0.050 C 
BRANCH   9  11
HETATM   11  O   UNL     1      27.167  45.258  53.109  1.00  0.00    -0.337 OA
BRANCH  11  12
HETATM   12  C   UNL     1      27.894  45.375  54.256  1.00  0.00     0.070 A 
HETATM   13  C   UNL     1      28.888  44.402  54.407  1.00  0.00     0.049 A 
HETATM   14  C   UNL     1      29.733  44.386  55.527  1.00  0.00    -0.023 A 
HETATM   15  C   UNL     1      29.584  45.384  56.514  1.00  0.00    -0.026 A 
HETATM   16  C   UNL     1      30.722  43.401  55.687  1.00  0.00     0.012 A 
HETATM   17  C   UNL     1      28.592  46.364  56.349  1.00  0.00     0.015 A 
HETATM   18  C   UNL     1      30.433  45.374  57.634  1.00  0.00     0.012 A 
HETATM   19  C   UNL     1      27.751  46.359  55.229  1.00  0.00     0.037 A 
HETATM   20  C   UNL     1      31.411  44.387  57.779  1.00  0.00     0.001 A 
HETATM   21  C   UNL     1      31.554  43.401  56.808  1.00  0.00     0.001 A 
ENDBRANCH  11  12
ENDBRANCH   9  11
ENDBRANCH   6   9
ENDBRANCH   1   5
BRANCH   2  22
HETATM   22  C   UNL     1      22.489  43.650  48.511  1.00  0.00     0.105 C 
BRANCH  22  23
HETATM   23  C   UNL     1      23.080  42.293  48.886  1.00  0.00     0.014 C 
BRANCH  23  24
HETATM   24  C   UNL     1      24.244  41.893  47.976  1.00  0.00     0.039 C 
BRANCH  24  25
HETATM   25  C   UNL     1      25.481  41.574  48.784  1.00  0.00    -0.056 A 
HETATM   26  C   UNL     1      25.458  41.722  50.182  1.00  0.00     0.039 A 
HETATM   27  C   UNL     1      26.624  41.450  50.858  1.00  0.00     0.063 A 
HETATM   28  C   UNL     1      27.787  41.047  50.206  1.00  0.00     0.063 A 
HETATM   29  N   UNL     1      26.896  41.512  52.221  1.00  0.00    -0.306 N 
HETATM   30  N   UNL     1      28.775  40.863  51.166  1.00  0.00    -0.307 N 
HETATM   31  C   UNL     1      27.847  40.894  48.843  1.00  0.00     0.032 A 
HETATM   32  C   UNL     1      28.235  41.150  52.428  1.00  0.00     0.325 A 
HETATM   33  H   UNL     1      29.728  40.578  51.016  1.00  0.00     0.170 HD
HETATM   34  O   UNL     1      28.817  41.095  53.497  1.00  0.00    -0.247 OA
HETATM   35  C   UNL     1      26.673  41.165  48.128  1.00  0.00     0.009 A 
HETATM   36  H   UNL     1      26.263  41.773  52.957  1.00  0.00     0.170 HD
ENDBRANCH  24  25
ENDBRANCH  23  24
ENDBRANCH  22  23
ENDBRANCH   2  22
TORSDOF 8
ENDMDL
MODEL 3
REMARK VINA RESULT:     -10.4      1.507      2.129
REMARK  8 active torsions:
REMARK  status: ('A' for Active; 'I' for Inactive)
REMARK    1  A    between atoms: C_2  and  O_3 
REMARK    2  A    between atoms: C_2  and  C_14 
REMARK    3  A    between atoms: O_3  and  C_4 
REMARK       I    between atoms: C_14  and  N_15 
REMARK    4  A    between atoms: N_15  and  N_16 
REMARK       I    between atoms: N_16  and  C_17 
REMARK    5  A    between atoms: C_17  and  C_18 
REMARK    6  A    between atoms: C_18  and  C_19 
REMARK    7  A    between atoms: C_19  and  C_20 
REMARK    8  A    between atoms: C_20  and  C_21 
ROOT
HETATM    1  N   UNL     1      24.526  46.906  50.921  1.00  0.00    -0.267 N 
HETATM    2  C   UNL     1      25.200  47.805  50.110  1.00  0.00     0.236 C 
HETATM    3  O   UNL     1      26.347  48.184  50.327  1.00  0.00    -0.272 OA
HETATM    4  H   UNL     1      23.760  46.367  50.514  1.00  0.00     0.190 HD
ENDROOT
BRANCH   1   5
HETATM    5  N   UNL     1      25.278  46.198  51.875  1.00  0.00    -0.265 N 
HETATM    6  C   UNL     1      24.923  44.874  52.093  1.00  0.00     0.265 C 
HETATM    7  O   UNL     1      23.927  44.375  51.566  1.00  0.00    -0.269 OA
HETATM    8  H   UNL     1      26.236  46.512  52.013  1.00  0.00     0.190 HD
BRANCH   6   9
HETATM    9  C   UNL     1      25.831  44.141  53.088  1.00  0.00     0.218 C 
HETATM   10  C   UNL     1      25.235  44.207  54.488  1.00  0.00     0.050 C 
BRANCH   9  11
HETATM   11  O   UNL     1      27.060  44.873  53.029  1.00  0.00    -0.337 OA
BRANCH  11  12
HETATM   12  C   UNL     1      28.126  44.462  53.773  1.00  0.00     0.070 A 
HETATM   13  C   UNL     1      28.347  45.221  54.927  1.00  0.00     0.049 A 
HETATM   14  C   UNL     1      29.398  44.924  55.808  1.00  0.00    -0.023 A 
HETATM   15  C   UNL     1      30.239  43.826  55.529  1.00  0.00    -0.026 A 
HETATM   16  C   UNL     1      29.630  45.694  56.960  1.00  0.00     0.012 A 
HETATM   17  C   UNL     1      30.001  43.061  54.375  1.00  0.00     0.015 A 
HETATM   18  C   UNL     1      31.287  43.522  56.414  1.00  0.00     0.012 A 
HETATM   19  C   UNL     1      28.954  43.378  53.501  1.00  0.00     0.037 A 
HETATM   20  C   UNL     1      31.506  44.299  57.554  1.00  0.00     0.001 A 
HETATM   21  C   UNL     1      30.680  45.384  57.826  1.00  0.00     0.001 A 
ENDBRANCH  11  12
ENDBRANCH   9  11
ENDBRANCH   6   9
ENDBRANCH   1   5
BRANCH   2  22
HETATM   22  C   UNL     1      24.333  48.295  48.964  1.00  0.00     0.105 C 
BRANCH  22  23
HETATM   23  C   UNL     1      24.040  49.792  49.004  1.00  0.00     0.014 C 
BRANCH  23  24
HETATM   24  C   UNL     1      23.237  50.260  47.787  1.00  0.00     0.039 C 
BRANCH  24  25
HETATM   25  C   UNL     1      21.752  50.222  48.067  1.00  0.00    -0.056 A 
HETATM   26  C   UNL     1      21.151  51.272  48.782  1.00  0.00     0.039 A 
HETATM   27  C   UNL     1      19.804  51.164  49.036  1.00  0.00     0.063 A 
HETATM   28  C   UNL     1      19.052  50.069  48.616  1.00  0.00     0.063 A 
HETATM   29  N   UNL     1      18.954  52.032  49.713  1.00  0.00    -0.306 N 
HETATM   30  N   UNL     1      17.741  50.262  49.034  1.00  0.00    -0.307 N 
HETATM   31  C   UNL     1      19.606  49.024  47.917  1.00  0.00     0.032 A 
HETATM   32  C   UNL     1      17.664  51.482  49.722  1.00  0.00     0.325 A 
HETATM   33  H   UNL     1      16.956  49.649  48.891  1.00  0.00     0.170 HD
HETATM   34  O   UNL     1      16.669  51.970  50.228  1.00  0.00    -0.247 OA
HETATM   35  C   UNL     1      20.978  49.109  47.644  1.00  0.00     0.009 A 
HETATM   36  H   UNL     1      19.195  52.910  50.139  1.00  0.00     0.170 HD
ENDBRANCH  24  25
ENDBRANCH  23  24
ENDBRANCH  22  23
ENDBRANCH   2  22
TORSDOF 8
ENDMDL
MODEL 4
REMARK VINA RESULT:     -10.4      1.243      2.105
REMARK  8 active torsions:
REMARK  status: ('A' for Active; 'I' for Inactive)
REMARK    1  A    between atoms: C_2  and  O_3 
REMARK    2  A    between atoms: C_2  and  C_14 
REMARK    3  A    between atoms: O_3  and  C_4 
REMARK       I    between atoms: C_14  and  N_15 
REMARK    4  A    between atoms: N_15  and  N_16 
REMARK       I    between atoms: N_16  and  C_17 
REMARK    5  A    between atoms: C_17  and  C_18 
REMARK    6  A    between atoms: C_18  and  C_19 
REMARK    7  A    between atoms: C_19  and  C_20 
REMARK    8  A    between atoms: C_20  and  C_21 
ROOT
HETATM    1  N   UNL     1      25.930  47.746  49.636  1.00  0.00    -0.267 N 
HETATM    2  C   UNL     1      26.627  48.807  49.078  1.00  0.00     0.236 C 
HETATM    3  O   UNL     1      27.837  48.962  49.202  1.00  0.00    -0.272 OA
HETATM    4  H   UNL     1      25.043  47.473  49.214  1.00  0.00     0.190 HD
ENDROOT
BRANCH   1   5
HETATM    5  N   UNL     1      26.680  46.666  50.136  1.00  0.00    -0.265 N 
HETATM    6  C   UNL     1      26.269  45.394  49.762  1.00  0.00     0.265 C 
HETATM    7  O   UNL     1      25.233  45.210  49.121  1.00  0.00    -0.269 OA
HETATM    8  H   UNL     1      27.657  46.859  50.349  1.00  0.00     0.190 HD
BRANCH   6   9
HETATM    9  C   UNL     1      27.174  44.269  50.278  1.00  0.00     0.218 C 
HETATM   10  C   UNL     1      26.781  42.945  49.637  1.00  0.00     0.050 C 
BRANCH   9  11
HETATM   11  O   UNL     1      26.916  44.244  51.685  1.00  0.00    -0.337 OA
BRANCH  11  12
HETATM   12  C   UNL     1      27.928  43.957  52.553  1.00  0.00     0.070 A 
HETATM   13  C   UNL     1      27.998  44.816  53.655  1.00  0.00     0.049 A 
HETATM   14  C   UNL     1      28.976  44.652  54.649  1.00  0.00    -0.023 A 
HETATM   15  C   UNL     1      29.897  43.589  54.538  1.00  0.00    -0.026 A 
HETATM   16  C   UNL     1      29.058  45.522  55.749  1.00  0.00     0.012 A 
HETATM   17  C   UNL     1      29.810  42.724  53.434  1.00  0.00     0.015 A 
HETATM   18  C   UNL     1      30.873  43.419  55.534  1.00  0.00     0.012 A 
HETATM   19  C   UNL     1      28.834  42.908  52.447  1.00  0.00     0.037 A 
HETATM   20  C   UNL     1      30.942  44.293  56.621  1.00  0.00     0.001 A 
HETATM   21  C   UNL     1      30.037  45.344  56.728  1.00  0.00     0.001 A 
ENDBRANCH  11  12
ENDBRANCH   9  11
ENDBRANCH   6   9
ENDBRANCH   1   5
BRANCH   2  22
HETATM   22  C   UNL     1      25.705  49.766  48.347  1.00  0.00     0.105 C 
BRANCH  22  23
HETATM   23  C   UNL     1      24.223  49.544  48.635  1.00  0.00     0.014 C 
BRANCH  23  24
HETATM   24  C   UNL     1      23.358  50.722  48.179  1.00  0.00     0.039 C 
BRANCH  24  25
HETATM   25  C   UNL     1      21.896  50.467  48.465  1.00  0.00    -0.056 A 
HETATM   26  C   UNL     1      21.428  49.146  48.575  1.00  0.00     0.039 A 
HETATM   27  C   UNL     1      20.082  48.976  48.801  1.00  0.00     0.063 A 
HETATM   28  C   UNL     1      19.205  50.052  48.914  1.00  0.00     0.063 A 
HETATM   29  N   UNL     1      19.346  47.806  48.949  1.00  0.00    -0.306 N 
HETATM   30  N   UNL     1      17.929  49.544  49.130  1.00  0.00    -0.307 N 
HETATM   31  C   UNL     1      19.626  51.355  48.808  1.00  0.00     0.032 A 
HETATM   32  C   UNL     1      18.001  48.144  49.153  1.00  0.00     0.325 A 
HETATM   33  H   UNL     1      17.076  50.064  49.247  1.00  0.00     0.170 HD
HETATM   34  O   UNL     1      17.073  47.371  49.318  1.00  0.00    -0.247 OA
HETATM   35  C   UNL     1      20.993  51.557  48.579  1.00  0.00     0.009 A 
HETATM   36  H   UNL     1      19.690  46.862  48.915  1.00  0.00     0.170 HD
ENDBRANCH  24  25
ENDBRANCH  23  24
ENDBRANCH  22  23
ENDBRANCH   2  22
TORSDOF 8
ENDMDL
MODEL 5
REMARK VINA RESULT:     -10.3      1.655      2.141
REMARK  8 active torsions:
REMARK  status: ('A' for Active; 'I' for Inactive)
REMARK    1  A    between atoms: C_2  and  O_3 
REMARK    2  A    between atoms: C_2  and  C_14 
REMARK    3  A    between atoms: O_3  and  C_4 
REMARK       I    between atoms: C_14  and  N_15 
REMARK    4  A    between atoms: N_15  and  N_16 
REMARK       I    between atoms: N_16  and  C_17 
REMARK    5  A    between atoms: C_17  and  C_18 
REMARK    6  A    between atoms: C_18  and  C_19 
REMARK    7  A    between atoms: C_19  and  C_20 
REMARK    8  A    between atoms: C_20  and  C_21 
ROOT
HETATM    1  N   UNL     1      23.400  47.264  49.958  1.00  0.00    -0.267 N 
HETATM    2  C   UNL     1      23.400  48.341  49.086  1.00  0.00     0.236 C 
HETATM    3  O   UNL     1      24.419  48.809  48.587  1.00  0.00    -0.272 OA
HETATM    4  H   UNL     1      22.548  46.709  50.043  1.00  0.00     0.190 HD
ENDROOT
BRANCH   1   5
HETATM    5  N   UNL     1      24.583  46.512  50.064  1.00  0.00    -0.265 N 
HETATM    6  C   UNL     1      25.319  46.665  51.230  1.00  0.00     0.265 C 
HETATM    7  O   UNL     1      25.016  47.502  52.082  1.00  0.00    -0.269 OA
HETATM    8  H   UNL     1      24.608  45.639  49.540  1.00  0.00     0.190 HD
BRANCH   6   9
HETATM    9  C   UNL     1      26.554  45.760  51.312  1.00  0.00     0.218 C 
HETATM   10  C   UNL     1      26.584  44.805  50.125  1.00  0.00     0.050 C 
BRANCH   9  11
HETATM   11  O   UNL     1      26.366  45.037  52.533  1.00  0.00    -0.337 OA
BRANCH  11  12
HETATM   12  C   UNL     1      27.236  45.220  53.566  1.00  0.00     0.070 A 
HETATM   13  C   UNL     1      28.169  44.188  53.720  1.00  0.00     0.049 A 
HETATM   14  C   UNL     1      29.143  44.227  54.730  1.00  0.00    -0.023 A 
HETATM   15  C   UNL     1      29.190  45.339  55.597  1.00  0.00    -0.026 A 
HETATM   16  C   UNL     1      30.070  43.184  54.895  1.00  0.00     0.012 A 
HETATM   17  C   UNL     1      28.258  46.376  55.427  1.00  0.00     0.015 A 
HETATM   18  C   UNL     1      30.168  45.383  56.604  1.00  0.00     0.012 A 
HETATM   19  C   UNL     1      27.287  46.317  54.420  1.00  0.00     0.037 A 
HETATM   20  C   UNL     1      31.083  44.338  56.757  1.00  0.00     0.001 A 
HETATM   21  C   UNL     1      31.033  43.239  55.904  1.00  0.00     0.001 A 
ENDBRANCH  11  12
ENDBRANCH   9  11
ENDBRANCH   6   9
ENDBRANCH   1   5
BRANCH   2  22
HETATM   22  C   UNL     1      22.003  48.894  48.869  1.00  0.00     0.105 C 
BRANCH  22  23
HETATM   23  C   UNL     1      21.776  50.268  49.494  1.00  0.00     0.014 C 
BRANCH  23  24
HETATM   24  C   UNL     1      21.312  51.305  48.467  1.00  0.00     0.039 C 
BRANCH  24  25
HETATM   25  C   UNL     1      19.803  51.386  48.419  1.00  0.00    -0.056 A 
HETATM   26  C   UNL     1      19.108  52.044  49.448  1.00  0.00     0.039 A 
HETATM   27  C   UNL     1      17.735  52.055  49.367  1.00  0.00     0.063 A 
HETATM   28  C   UNL     1      17.046  51.444  48.322  1.00  0.00     0.063 A 
HETATM   29  N   UNL     1      16.798  52.617  50.227  1.00  0.00    -0.306 N 
HETATM   30  N   UNL     1      15.685  51.628  48.540  1.00  0.00    -0.307 N 
HETATM   31  C   UNL     1      17.692  50.790  47.302  1.00  0.00     0.032 A 
HETATM   32  C   UNL     1      15.515  52.358  49.725  1.00  0.00     0.325 A 
HETATM   33  H   UNL     1      14.925  51.302  47.968  1.00  0.00     0.170 HD
HETATM   34  O   UNL     1      14.456  52.699  50.222  1.00  0.00    -0.247 OA
HETATM   35  C   UNL     1      19.092  50.764  47.359  1.00  0.00     0.009 A 
HETATM   36  H   UNL     1      16.979  53.126  51.075  1.00  0.00     0.170 HD
ENDBRANCH  24  25
ENDBRANCH  23  24
ENDBRANCH  22  23
ENDBRANCH   2  22
TORSDOF 8
ENDMDL
MODEL 6
REMARK VINA RESULT:     -10.3      1.575      2.270
REMARK  8 active torsions:
REMARK  status: ('A' for Active; 'I' for Inactive)
REMARK    1  A    between atoms: C_2  and  O_3 
REMARK    2  A    between atoms: C_2  and  C_14 
REMARK    3  A    between atoms: O_3  and  C_4 
REMARK       I    between atoms: C_14  and  N_15 
REMARK    4  A    between atoms: N_15  and  N_16 
REMARK       I    between atoms: N_16  and  C_17 
REMARK    5  A    between atoms: C_17  and  C_18 
REMARK    6  A    between atoms: C_18  and  C_19 
REMARK    7  A    between atoms: C_19  and  C_20 
REMARK    8  A    between atoms: C_20  and  C_21 
ROOT
HETATM    1  N   UNL     1      23.702  47.217  50.094  1.00  0.00    -0.267 N 
HETATM    2  C   UNL     1      23.748  48.478  49.519  1.00  0.00     0.236 C 
HETATM    3  O   UNL     1      24.793  49.062  49.252  1.00  0.00    -0.272 OA
HETATM    4  H   UNL     1      22.863  46.652  49.957  1.00  0.00     0.190 HD
ENDROOT
BRANCH   1   5
HETATM    5  N   UNL     1      24.893  46.471  50.123  1.00  0.00    -0.265 N 
HETATM    6  C   UNL     1      25.569  46.420  51.334  1.00  0.00     0.265 C 
HETATM    7  O   UNL     1      25.209  47.087  52.306  1.00  0.00    -0.269 OA
HETATM    8  H   UNL     1      24.960  45.707  49.454  1.00  0.00     0.190 HD
BRANCH   6   9
HETATM    9  C   UNL     1      26.816  45.528  51.316  1.00  0.00     0.218 C 
HETATM   10  C   UNL     1      26.877  44.740  50.013  1.00  0.00     0.050 C 
BRANCH   9  11
HETATM   11  O   UNL     1      26.622  44.648  52.427  1.00  0.00    -0.337 OA
BRANCH  11  12
HETATM   12  C   UNL     1      27.696  44.240  53.161  1.00  0.00     0.070 A 
HETATM   13  C   UNL     1      27.995  45.067  54.249  1.00  0.00     0.049 A 
HETATM   14  C   UNL     1      29.065  44.782  55.112  1.00  0.00    -0.023 A 
HETATM   15  C   UNL     1      29.844  43.629  54.883  1.00  0.00    -0.026 A 
HETATM   16  C   UNL     1      29.375  45.619  56.198  1.00  0.00     0.012 A 
HETATM   17  C   UNL     1      29.529  42.798  53.795  1.00  0.00     0.015 A 
HETATM   18  C   UNL     1      30.911  43.338  55.750  1.00  0.00     0.012 A 
HETATM   19  C   UNL     1      28.464  43.102  52.938  1.00  0.00     0.037 A 
HETATM   20  C   UNL     1      31.208  44.181  56.823  1.00  0.00     0.001 A 
HETATM   21  C   UNL     1      30.442  45.321  57.046  1.00  0.00     0.001 A 
ENDBRANCH  11  12
ENDBRANCH   9  11
ENDBRANCH   6   9
ENDBRANCH   1   5
BRANCH   2  22
HETATM   22  C   UNL     1      22.360  49.057  49.313  1.00  0.00     0.105 C 
BRANCH  22  23
HETATM   23  C   UNL     1      22.273  50.561  49.551  1.00  0.00     0.014 C 
BRANCH  23  24
HETATM   24  C   UNL     1      21.761  51.317  48.322  1.00  0.00     0.039 C 
BRANCH  24  25
HETATM   25  C   UNL     1      20.252  51.282  48.252  1.00  0.00    -0.056 A 
HETATM   26  C   UNL     1      19.493  51.925  49.245  1.00  0.00     0.039 A 
HETATM   27  C   UNL     1      18.125  51.829  49.146  1.00  0.00     0.063 A 
HETATM   28  C   UNL     1      17.500  51.127  48.118  1.00  0.00     0.063 A 
HETATM   29  N   UNL     1      17.135  52.351  49.972  1.00  0.00    -0.306 N 
HETATM   30  N   UNL     1      16.126  51.216  48.311  1.00  0.00    -0.307 N 
HETATM   31  C   UNL     1      18.209  50.485  47.133  1.00  0.00     0.032 A 
HETATM   32  C   UNL     1      15.883  51.976  49.465  1.00  0.00     0.325 A 
HETATM   33  H   UNL     1      15.401  50.812  47.743  1.00  0.00     0.170 HD
HETATM   34  O   UNL     1      14.794  52.255  49.935  1.00  0.00    -0.247 OA
HETATM   35  C   UNL     1      19.605  50.567  47.208  1.00  0.00     0.009 A 
HETATM   36  H   UNL     1      17.264  52.904  50.801  1.00  0.00     0.170 HD
ENDBRANCH  24  25
ENDBRANCH  23  24
ENDBRANCH  22  23
ENDBRANCH   2  22
TORSDOF 8
ENDMDL
MODEL 7
REMARK VINA RESULT:     -10.0      3.931      9.540
REMARK  8 active torsions:
REMARK  status: ('A' for Active; 'I' for Inactive)
REMARK    1  A    between atoms: C_2  and  O_3 
REMARK    2  A    between atoms: C_2  and  C_14 
REMARK    3  A    between atoms: O_3  and  C_4 
REMARK       I    between atoms: C_14  and  N_15 
REMARK    4  A    between atoms: N_15  and  N_16 
REMARK       I    between atoms: N_16  and  C_17 
REMARK    5  A    between atoms: C_17  and  C_18 
REMARK    6  A    between atoms: C_18  and  C_19 
REMARK    7  A    between atoms: C_19  and  C_20 
REMARK    8  A    between atoms: C_20  and  C_21 
ROOT
HETATM    1  N   UNL     1      26.767  41.955  52.160  1.00  0.00    -0.267 N 
HETATM    2  C   UNL     1      27.890  41.238  51.779  1.00  0.00     0.236 C 
HETATM    3  O   UNL     1      28.000  40.678  50.693  1.00  0.00    -0.272 OA
HETATM    4  H   UNL     1      26.871  42.673  52.877  1.00  0.00     0.190 HD
ENDROOT
BRANCH   1   5
HETATM    5  N   UNL     1      25.831  42.279  51.161  1.00  0.00    -0.265 N 
HETATM    6  C   UNL     1      25.005  43.366  51.407  1.00  0.00     0.265 C 
HETATM    7  O   UNL     1      25.007  43.949  52.492  1.00  0.00    -0.269 OA
HETATM    8  H   UNL     1      26.083  42.018  50.209  1.00  0.00     0.190 HD
BRANCH   6   9
HETATM    9  C   UNL     1      24.063  43.709  50.246  1.00  0.00     0.218 C 
HETATM   10  C   UNL     1      24.136  42.628  49.176  1.00  0.00     0.050 C 
BRANCH   9  11
HETATM   11  O   UNL     1      24.578  44.947  49.746  1.00  0.00    -0.337 OA
BRANCH  11  12
HETATM   12  C   UNL     1      23.718  45.894  49.275  1.00  0.00     0.070 A 
HETATM   13  C   UNL     1      24.220  47.199  49.324  1.00  0.00     0.049 A 
HETATM   14  C   UNL     1      23.465  48.291  48.867  1.00  0.00    -0.023 A 
HETATM   15  C   UNL     1      22.179  48.062  48.333  1.00  0.00    -0.026 A 
HETATM   16  C   UNL     1      23.961  49.604  48.930  1.00  0.00     0.012 A 
HETATM   17  C   UNL     1      21.689  46.747  48.276  1.00  0.00     0.015 A 
HETATM   18  C   UNL     1      21.425  49.153  47.869  1.00  0.00     0.012 A 
HETATM   19  C   UNL     1      22.452  45.670  48.745  1.00  0.00     0.037 A 
HETATM   20  C   UNL     1      21.931  50.452  47.939  1.00  0.00     0.001 A 
HETATM   21  C   UNL     1      23.197  50.678  48.470  1.00  0.00     0.001 A 
ENDBRANCH  11  12
ENDBRANCH   9  11
ENDBRANCH   6   9
ENDBRANCH   1   5
BRANCH   2  22
HETATM   22  C   UNL     1      28.931  41.189  52.883  1.00  0.00     0.105 C 
BRANCH  22  23
HETATM   23  C   UNL     1      29.816  42.431  52.956  1.00  0.00     0.014 C 
BRANCH  23  24
HETATM   24  C   UNL     1      30.118  42.846  54.399  1.00  0.00     0.039 C 
BRANCH  24  25
HETATM   25  C   UNL     1      29.376  44.111  54.768  1.00  0.00    -0.056 A 
HETATM   26  C   UNL     1      28.246  44.497  54.026  1.00  0.00     0.039 A 
HETATM   27  C   UNL     1      27.634  45.674  54.388  1.00  0.00     0.063 A 
HETATM   28  C   UNL     1      28.101  46.465  55.435  1.00  0.00     0.063 A 
HETATM   29  N   UNL     1      26.518  46.300  53.843  1.00  0.00    -0.306 N 
HETATM   30  N   UNL     1      27.273  47.578  55.534  1.00  0.00    -0.307 N 
HETATM   31  C   UNL     1      29.203  46.121  56.178  1.00  0.00     0.032 A 
HETATM   32  C   UNL     1      26.281  47.489  54.546  1.00  0.00     0.325 A 
HETATM   33  H   UNL     1      27.347  48.339  56.187  1.00  0.00     0.170 HD
HETATM   34  O   UNL     1      25.387  48.291  54.340  1.00  0.00    -0.247 OA
HETATM   35  C   UNL     1      29.845  44.925  55.832  1.00  0.00     0.009 A 
HETATM   36  H   UNL     1      25.957  45.980  53.072  1.00  0.00     0.170 HD
ENDBRANCH  24  25
ENDBRANCH  23  24
ENDBRANCH  22  23
ENDBRANCH   2  22
TORSDOF 8
ENDMDL
MODEL 8
REMARK VINA RESULT:      -9.8      2.883     11.206
REMARK  8 active torsions:
REMARK  status: ('A' for Active; 'I' for Inactive)
REMARK    1  A    between atoms: C_2  and  O_3 
REMARK    2  A    between atoms: C_2  and  C_14 
REMARK    3  A    between atoms: O_3  and  C_4 
REMARK       I    between atoms: C_14  and  N_15 
REMARK    4  A    between atoms: N_15  and  N_16 
REMARK       I    between atoms: N_16  and  C_17 
REMARK    5  A    between atoms: C_17  and  C_18 
REMARK    6  A    between atoms: C_18  and  C_19 
REMARK    7  A    between atoms: C_19  and  C_20 
REMARK    8  A    between atoms: C_20  and  C_21 
ROOT
HETATM    1  N   UNL     1      24.590  46.053  51.087  1.00  0.00    -0.267 N 
HETATM    2  C   UNL     1      24.302  44.707  50.928  1.00  0.00     0.236 C 
HETATM    3  O   UNL     1      23.354  44.290  50.269  1.00  0.00    -0.272 OA
HETATM    4  H   UNL     1      25.547  46.320  51.317  1.00  0.00     0.190 HD
ENDROOT
BRANCH   1   5
HETATM    5  N   UNL     1      23.931  46.964  50.241  1.00  0.00    -0.265 N 
HETATM    6  C   UNL     1      24.679  48.036  49.776  1.00  0.00     0.265 C 
HETATM    7  O   UNL     1      25.826  48.248  50.172  1.00  0.00    -0.269 OA
HETATM    8  H   UNL     1      23.156  46.591  49.697  1.00  0.00     0.190 HD
BRANCH   6   9
HETATM    9  C   UNL     1      23.923  48.946  48.800  1.00  0.00     0.218 C 
HETATM   10  C   UNL     1      24.903  49.843  48.054  1.00  0.00     0.050 C 
BRANCH   9  11
HETATM   11  O   UNL     1      23.075  49.726  49.649  1.00  0.00    -0.337 OA
BRANCH  11  12
HETATM   12  C   UNL     1      21.822  50.059  49.229  1.00  0.00     0.070 A 
HETATM   13  C   UNL     1      20.883  49.029  49.353  1.00  0.00     0.049 A 
HETATM   14  C   UNL     1      19.543  49.210  48.976  1.00  0.00    -0.023 A 
HETATM   15  C   UNL     1      19.134  50.464  48.476  1.00  0.00    -0.026 A 
HETATM   16  C   UNL     1      18.603  48.172  49.086  1.00  0.00     0.012 A 
HETATM   17  C   UNL     1      20.081  51.496  48.367  1.00  0.00     0.015 A 
HETATM   18  C   UNL     1      17.792  50.650  48.104  1.00  0.00     0.012 A 
HETATM   19  C   UNL     1      21.415  51.296  48.739  1.00  0.00     0.037 A 
HETATM   20  C   UNL     1      16.869  49.608  48.218  1.00  0.00     0.001 A 
HETATM   21  C   UNL     1      17.274  48.370  48.707  1.00  0.00     0.001 A 
ENDBRANCH  11  12
ENDBRANCH   9  11
ENDBRANCH   6   9
ENDBRANCH   1   5
BRANCH   2  22
HETATM   22  C   UNL     1      25.263  43.827  51.706  1.00  0.00     0.105 C 
BRANCH  22  23
HETATM   23  C   UNL     1      26.528  44.546  52.166  1.00  0.00     0.014 C 
BRANCH  23  24
HETATM   24  C   UNL     1      27.761  43.639  52.125  1.00  0.00     0.039 C 
BRANCH  24  25
HETATM   25  C   UNL     1      28.620  43.832  53.355  1.00  0.00    -0.056 A 
HETATM   26  C   UNL     1      28.324  44.870  54.255  1.00  0.00     0.039 A 
HETATM   27  C   UNL     1      29.161  45.017  55.336  1.00  0.00     0.063 A 
HETATM   28  C   UNL     1      30.260  44.188  55.545  1.00  0.00     0.063 A 
HETATM   29  N   UNL     1      29.119  45.942  56.373  1.00  0.00    -0.306 N 
HETATM   30  N   UNL     1      30.896  44.604  56.709  1.00  0.00    -0.307 N 
HETATM   31  C   UNL     1      30.582  43.167  54.685  1.00  0.00     0.032 A 
HETATM   32  C   UNL     1      30.196  45.698  57.237  1.00  0.00     0.325 A 
HETATM   33  H   UNL     1      31.723  44.212  57.128  1.00  0.00     0.170 HD
HETATM   34  O   UNL     1      30.471  46.317  58.250  1.00  0.00    -0.247 OA
HETATM   35  C   UNL     1      29.744  42.993  53.575  1.00  0.00     0.009 A 
HETATM   36  H   UNL     1      28.446  46.677  56.506  1.00  0.00     0.170 HD
ENDBRANCH  24  25
ENDBRANCH  23  24
ENDBRANCH  22  23
ENDBRANCH   2  22
TORSDOF 8
ENDMDL
MODEL 9
REMARK VINA RESULT:      -9.6      1.959      3.174
REMARK  8 active torsions:
REMARK  status: ('A' for Active; 'I' for Inactive)
REMARK    1  A    between atoms: C_2  and  O_3 
REMARK    2  A    between atoms: C_2  and  C_14 
REMARK    3  A    between atoms: O_3  and  C_4 
REMARK       I    between atoms: C_14  and  N_15 
REMARK    4  A    between atoms: N_15  and  N_16 
REMARK       I    between atoms: N_16  and  C_17 
REMARK    5  A    between atoms: C_17  and  C_18 
REMARK    6  A    between atoms: C_18  and  C_19 
REMARK    7  A    between atoms: C_19  and  C_20 
REMARK    8  A    between atoms: C_20  and  C_21 
ROOT
HETATM    1  N   UNL     1      24.265  45.353  50.542  1.00  0.00    -0.267 N 
HETATM    2  C   UNL     1      23.140  44.681  50.092  1.00  0.00     0.236 C 
HETATM    3  O   UNL     1      22.788  43.587  50.521  1.00  0.00    -0.272 OA
HETATM    4  H   UNL     1      24.302  46.366  50.431  1.00  0.00     0.190 HD
ENDROOT
BRANCH   1   5
HETATM    5  N   UNL     1      24.874  44.887  51.722  1.00  0.00    -0.265 N 
HETATM    6  C   UNL     1      26.065  44.190  51.577  1.00  0.00     0.265 C 
HETATM    7  O   UNL     1      26.511  43.892  50.467  1.00  0.00    -0.269 OA
HETATM    8  H   UNL     1      24.678  45.418  52.567  1.00  0.00     0.190 HD
BRANCH   6   9
HETATM    9  C   UNL     1      26.712  43.778  52.905  1.00  0.00     0.218 C 
HETATM   10  C   UNL     1      25.829  44.202  54.071  1.00  0.00     0.050 C 
BRANCH   9  11
HETATM   11  O   UNL     1      27.947  44.503  52.920  1.00  0.00    -0.337 OA
BRANCH  11  12
HETATM   12  C   UNL     1      28.856  44.265  53.908  1.00  0.00     0.070 A 
HETATM   13  C   UNL     1      28.776  45.154  54.986  1.00  0.00     0.049 A 
HETATM   14  C   UNL     1      29.634  45.042  56.091  1.00  0.00    -0.023 A 
HETATM   15  C   UNL     1      30.585  44.000  56.120  1.00  0.00    -0.026 A 
HETATM   16  C   UNL     1      29.565  45.942  57.168  1.00  0.00     0.012 A 
HETATM   17  C   UNL     1      30.649  43.105  55.039  1.00  0.00     0.015 A 
HETATM   18  C   UNL     1      31.440  43.882  57.229  1.00  0.00     0.012 A 
HETATM   19  C   UNL     1      29.792  43.237  53.940  1.00  0.00     0.037 A 
HETATM   20  C   UNL     1      31.360  44.786  58.290  1.00  0.00     0.001 A 
HETATM   21  C   UNL     1      30.425  45.816  58.259  1.00  0.00     0.001 A 
ENDBRANCH  11  12
ENDBRANCH   9  11
ENDBRANCH   6   9
ENDBRANCH   1   5
BRANCH   2  22
HETATM   22  C   UNL     1      22.437  45.437  48.980  1.00  0.00     0.105 C 
BRANCH  22  23
HETATM   23  C   UNL     1      22.763  46.928  48.940  1.00  0.00     0.014 C 
BRANCH  23  24
HETATM   24  C   UNL     1      22.086  47.641  47.766  1.00  0.00     0.039 C 
BRANCH  24  25
HETATM   25  C   UNL     1      21.342  48.871  48.233  1.00  0.00    -0.056 A 
HETATM   26  C   UNL     1      20.023  48.751  48.705  1.00  0.00     0.039 A 
HETATM   27  C   UNL     1      19.387  49.910  49.083  1.00  0.00     0.063 A 
HETATM   28  C   UNL     1      20.002  51.157  49.006  1.00  0.00     0.063 A 
HETATM   29  N   UNL     1      18.101  50.097  49.577  1.00  0.00    -0.306 N 
HETATM   30  N   UNL     1      19.096  52.112  49.451  1.00  0.00    -0.307 N 
HETATM   31  C   UNL     1      21.288  51.312  48.547  1.00  0.00     0.032 A 
HETATM   32  C   UNL     1      17.903  51.466  49.810  1.00  0.00     0.325 A 
HETATM   33  H   UNL     1      19.235  53.106  49.513  1.00  0.00     0.170 HD
HETATM   34  O   UNL     1      16.893  51.992  50.241  1.00  0.00    -0.247 OA
HETATM   35  C   UNL     1      21.961  50.147  48.156  1.00  0.00     0.009 A 
HETATM   36  H   UNL     1      17.405  49.391  49.746  1.00  0.00     0.170 HD
ENDBRANCH  24  25
ENDBRANCH  23  24
ENDBRANCH  22  23
ENDBRANCH   2  22
TORSDOF 8
ENDMDL
MODEL 10
REMARK VINA RESULT:      -9.6      3.096     11.124
REMARK  8 active torsions:
REMARK  status: ('A' for Active; 'I' for Inactive)
REMARK    1  A    between atoms: C_2  and  O_3 
REMARK    2  A    between atoms: C_2  and  C_14 
REMARK    3  A    between atoms: O_3  and  C_4 
REMARK       I    between atoms: C_14  and  N_15 
REMARK    4  A    between atoms: N_15  and  N_16 
REMARK       I    between atoms: N_16  and  C_17 
REMARK    5  A    between atoms: C_17  and  C_18 
REMARK    6  A    between atoms: C_18  and  C_19 
REMARK    7  A    between atoms: C_19  and  C_20 
REMARK    8  A    between atoms: C_20  and  C_21 
ROOT
HETATM    1  N   UNL     1      23.920  44.762  50.698  1.00  0.00    -0.267 N 
HETATM    2  C   UNL     1      25.140  44.161  50.428  1.00  0.00     0.236 C 
HETATM    3  O   UNL     1      25.648  44.134  49.311  1.00  0.00    -0.272 OA
HETATM    4  H   UNL     1      23.733  45.069  51.653  1.00  0.00     0.190 HD
ENDROOT
BRANCH   1   5
HETATM    5  N   UNL     1      23.375  45.603  49.711  1.00  0.00    -0.265 N 
HETATM    6  C   UNL     1      22.320  45.092  48.969  1.00  0.00     0.265 C 
HETATM    7  O   UNL     1      21.952  43.922  49.085  1.00  0.00    -0.269 OA
HETATM    8  H   UNL     1      23.463  46.604  49.876  1.00  0.00     0.190 HD
BRANCH   6   9
HETATM    9  C   UNL     1      21.725  46.087  47.965  1.00  0.00     0.218 C 
HETATM   10  C   UNL     1      21.822  45.527  46.552  1.00  0.00     0.050 C 
BRANCH   9  11
HETATM   11  O   UNL     1      22.552  47.246  48.104  1.00  0.00    -0.337 OA
BRANCH  11  12
HETATM   12  C   UNL     1      21.975  48.475  48.236  1.00  0.00     0.070 A 
HETATM   13  C   UNL     1      20.692  48.449  48.793  1.00  0.00     0.049 A 
HETATM   14  C   UNL     1      19.964  49.630  49.007  1.00  0.00    -0.023 A 
HETATM   15  C   UNL     1      20.547  50.868  48.665  1.00  0.00    -0.026 A 
HETATM   16  C   UNL     1      18.669  49.605  49.552  1.00  0.00     0.012 A 
HETATM   17  C   UNL     1      21.841  50.885  48.118  1.00  0.00     0.015 A 
HETATM   18  C   UNL     1      19.822  52.052  48.884  1.00  0.00     0.012 A 
HETATM   19  C   UNL     1      22.550  49.697  47.903  1.00  0.00     0.037 A 
HETATM   20  C   UNL     1      18.535  52.010  49.426  1.00  0.00     0.001 A 
HETATM   21  C   UNL     1      17.959  50.789  49.759  1.00  0.00     0.001 A 
ENDBRANCH  11  12
ENDBRANCH   9  11
ENDBRANCH   6   9
ENDBRANCH   1   5
BRANCH   2  22
HETATM   22  C   UNL     1      25.734  43.506  51.661  1.00  0.00     0.105 C 
BRANCH  22  23
HETATM   23  C   UNL     1      26.868  44.302  52.301  1.00  0.00     0.014 C 
BRANCH  23  24
HETATM   24  C   UNL     1      28.193  43.535  52.296  1.00  0.00     0.039 C 
BRANCH  24  25
HETATM   25  C   UNL     1      28.966  43.774  53.573  1.00  0.00    -0.056 A 
HETATM   26  C   UNL     1      28.622  44.855  54.403  1.00  0.00     0.039 A 
HETATM   27  C   UNL     1      29.383  45.042  55.532  1.00  0.00     0.063 A 
HETATM   28  C   UNL     1      30.454  44.212  55.855  1.00  0.00     0.063 A 
HETATM   29  N   UNL     1      29.282  46.014  56.522  1.00  0.00    -0.306 N 
HETATM   30  N   UNL     1      31.012  44.672  57.042  1.00  0.00    -0.307 N 
HETATM   31  C   UNL     1      30.820  43.149  55.066  1.00  0.00     0.032 A 
HETATM   32  C   UNL     1      30.292  45.797  57.470  1.00  0.00     0.325 A 
HETATM   33  H   UNL     1      31.802  44.291  57.535  1.00  0.00     0.170 HD
HETATM   34  O   UNL     1      30.504  46.458  58.471  1.00  0.00    -0.247 OA
HETATM   35  C   UNL     1      30.061  42.934  53.909  1.00  0.00     0.009 A 
HETATM   36  H   UNL     1      28.612  46.761  56.575  1.00  0.00     0.170 HD
ENDBRANCH  24  25
ENDBRANCH  23  24
ENDBRANCH  22  23
ENDBRANCH   2  22
TORSDOF 8
ENDMDL
