MODEL 1
REMARK VINA RESULT:      -9.8      0.000      0.000
REMARK  5 active torsions:
REMARK  status: ('A' for Active; 'I' for Inactive)
REMARK    1  A    between atoms: O_2  and  C_3 
REMARK    2  A    between atoms: C_5  and  O_6 
REMARK    3  A    between atoms: C_9  and  N_10 
REMARK       I    between atoms: N_10  and  C_11 
REMARK    4  A    between atoms: C_11  and  C_12 
REMARK    5  A    between atoms: C_20  and  C_21 
ROOT
HETATM    1  C   UNL     1      27.285  44.310  52.755  1.00  0.00     0.047 A 
HETATM    2  C   UNL     1      27.467  43.039  52.154  1.00  0.00     0.008 A 
HETATM    3  C   UNL     1      28.540  42.277  52.654  1.00  0.00     0.068 A 
HETATM    4  C   UNL     1      28.823  41.048  52.075  1.00  0.00     0.032 A 
HETATM    5  C   UNL     1      28.055  40.523  51.035  1.00  0.00     0.002 A 
HETATM    6  C   UNL     1      26.957  41.231  50.572  1.00  0.00     0.001 A 
HETATM    7  C   UNL     1      26.657  42.471  51.133  1.00  0.00     0.015 A 
HETATM    8  N   UNL     1      29.305  42.673  53.683  1.00  0.00    -0.248 NA
HETATM    9  C   UNL     1      29.049  43.847  54.311  1.00  0.00     0.068 A 
HETATM   10  C   UNL     1      28.063  44.699  53.849  1.00  0.00     0.050 A 
ENDROOT
BRANCH   1  11
HETATM   11  C   UNL     1      26.279  45.310  52.300  1.00  0.00     0.257 C 
HETATM   12  N   UNL     1      26.454  45.783  51.012  1.00  0.00    -0.323 N 
HETATM   13  H   UNL     1      27.232  45.406  50.483  1.00  0.00     0.169 HD
HETATM   14  O   UNL     1      25.409  45.649  53.093  1.00  0.00    -0.267 OA
BRANCH  12  15
HETATM   15  C   UNL     1      25.614  46.674  50.311  1.00  0.00     0.040 A 
HETATM   16  C   UNL     1      24.283  46.395  49.980  1.00  0.00     0.066 A 
HETATM   17  C   UNL     1      23.513  47.334  49.285  1.00  0.00     0.073 A 
HETATM   18  C   UNL     1      24.094  48.528  48.861  1.00  0.00     0.073 A 
HETATM   19  C   UNL     1      25.424  48.792  49.166  1.00  0.00     0.073 A 
HETATM   20  C   UNL     1      26.171  47.898  49.929  1.00  0.00     0.066 A 
BRANCH  17  21
HETATM   21  O   UNL     1      22.194  47.185  48.944  1.00  0.00    -0.356 OA
HETATM   22  C   UNL     1      21.434  48.386  48.843  1.00  0.00     0.210 C 
ENDBRANCH  17  21
BRANCH  19  23
HETATM   23  O   UNL     1      25.998  49.966  48.759  1.00  0.00    -0.356 OA
HETATM   24  C   UNL     1      27.421  49.823  48.739  1.00  0.00     0.210 C 
ENDBRANCH  19  23
ENDBRANCH  12  15
ENDBRANCH   1  11
BRANCH   9  25
HETATM   25  C   UNL     1      29.875  44.130  55.505  1.00  0.00    -0.007 A 
HETATM   26  C   UNL     1      30.858  43.220  55.935  1.00  0.00     0.014 A 
HETATM   27  C   UNL     1      31.631  43.461  57.075  1.00  0.00     0.001 A 
HETATM   28  C   UNL     1      31.436  44.621  57.817  1.00  0.00     0.000 A 
HETATM   29  C   UNL     1      30.468  45.538  57.420  1.00  0.00     0.001 A 
HETATM   30  C   UNL     1      29.696  45.294  56.279  1.00  0.00     0.014 A 
ENDBRANCH   9  25
TORSDOF 5
ENDMDL
MODEL 2
REMARK VINA RESULT:      -9.8      1.413      2.549
REMARK  5 active torsions:
REMARK  status: ('A' for Active; 'I' for Inactive)
REMARK    1  A    between atoms: O_2  and  C_3 
REMARK    2  A    between atoms: C_5  and  O_6 
REMARK    3  A    between atoms: C_9  and  N_10 
REMARK       I    between atoms: N_10  and  C_11 
REMARK    4  A    between atoms: C_11  and  C_12 
REMARK    5  A    between atoms: C_20  and  C_21 
ROOT
HETATM    1  C   UNL     1      26.438  43.681  52.027  1.00  0.00     0.047 A 
HETATM    2  C   UNL     1      26.727  42.436  51.415  1.00  0.00     0.008 A 
HETATM    3  C   UNL     1      27.925  41.819  51.823  1.00  0.00     0.068 A 
HETATM    4  C   UNL     1      28.311  40.629  51.224  1.00  0.00     0.032 A 
HETATM    5  C   UNL     1      27.530  40.000  50.253  1.00  0.00     0.002 A 
HETATM    6  C   UNL     1      26.318  40.560  49.883  1.00  0.00     0.001 A 
HETATM    7  C   UNL     1      25.912  41.759  50.466  1.00  0.00     0.015 A 
HETATM    8  N   UNL     1      28.718  42.320  52.784  1.00  0.00    -0.248 NA
HETATM    9  C   UNL     1      28.369  43.460  53.429  1.00  0.00     0.068 A 
HETATM   10  C   UNL     1      27.250  44.177  53.051  1.00  0.00     0.050 A 
ENDROOT
BRANCH   1  11
HETATM   11  C   UNL     1      25.280  44.542  51.657  1.00  0.00     0.257 C 
HETATM   12  N   UNL     1      25.461  45.325  50.530  1.00  0.00    -0.323 N 
HETATM   13  H   UNL     1      26.347  45.241  50.046  1.00  0.00     0.169 HD
HETATM   14  O   UNL     1      24.290  44.512  52.377  1.00  0.00    -0.267 OA
BRANCH  12  15
HETATM   15  C   UNL     1      24.510  46.172  49.922  1.00  0.00     0.040 A 
HETATM   16  C   UNL     1      24.475  47.560  50.099  1.00  0.00     0.066 A 
HETATM   17  C   UNL     1      23.499  48.332  49.457  1.00  0.00     0.073 A 
HETATM   18  C   UNL     1      22.515  47.708  48.692  1.00  0.00     0.073 A 
HETATM   19  C   UNL     1      22.535  46.327  48.541  1.00  0.00     0.073 A 
HETATM   20  C   UNL     1      23.551  45.562  49.108  1.00  0.00     0.066 A 
BRANCH  17  21
HETATM   21  O   UNL     1      23.394  49.697  49.525  1.00  0.00    -0.356 OA
HETATM   22  C   UNL     1      23.715  50.409  48.334  1.00  0.00     0.210 C 
ENDBRANCH  17  21
BRANCH  19  23
HETATM   23  O   UNL     1      21.577  45.709  47.783  1.00  0.00    -0.356 OA
HETATM   24  C   UNL     1      20.470  45.346  48.612  1.00  0.00     0.210 C 
ENDBRANCH  19  23
ENDBRANCH  12  15
ENDBRANCH   1  11
BRANCH   9  25
HETATM   25  C   UNL     1      29.250  43.858  54.550  1.00  0.00    -0.007 A 
HETATM   26  C   UNL     1      30.260  42.996  55.016  1.00  0.00     0.014 A 
HETATM   27  C   UNL     1      31.086  43.346  56.088  1.00  0.00     0.001 A 
HETATM   28  C   UNL     1      30.917  44.571  56.725  1.00  0.00     0.000 A 
HETATM   29  C   UNL     1      29.924  45.443  56.291  1.00  0.00     0.001 A 
HETATM   30  C   UNL     1      29.099  45.090  55.217  1.00  0.00     0.014 A 
ENDBRANCH   9  25
TORSDOF 5
ENDMDL
MODEL 3
REMARK VINA RESULT:      -9.4      3.410      6.762
REMARK  5 active torsions:
REMARK  status: ('A' for Active; 'I' for Inactive)
REMARK    1  A    between atoms: O_2  and  C_3 
REMARK    2  A    between atoms: C_5  and  O_6 
REMARK    3  A    between atoms: C_9  and  N_10 
REMARK       I    between atoms: N_10  and  C_11 
REMARK    4  A    between atoms: C_11  and  C_12 
REMARK    5  A    between atoms: C_20  and  C_21 
ROOT
HETATM    1  C   UNL     1      27.044  43.393  51.846  1.00  0.00     0.047 A 
HETATM    2  C   UNL     1      26.344  44.607  51.637  1.00  0.00     0.008 A 
HETATM    3  C   UNL     1      26.549  45.604  52.610  1.00  0.00     0.068 A 
HETATM    4  C   UNL     1      25.850  46.799  52.510  1.00  0.00     0.032 A 
HETATM    5  C   UNL     1      24.975  47.061  51.454  1.00  0.00     0.002 A 
HETATM    6  C   UNL     1      24.809  46.116  50.455  1.00  0.00     0.001 A 
HETATM    7  C   UNL     1      25.495  44.905  50.537  1.00  0.00     0.015 A 
HETATM    8  N   UNL     1      27.406  45.466  53.633  1.00  0.00    -0.248 NA
HETATM    9  C   UNL     1      28.143  44.335  53.757  1.00  0.00     0.068 A 
HETATM   10  C   UNL     1      27.961  43.270  52.895  1.00  0.00     0.050 A 
ENDROOT
BRANCH   1  11
HETATM   11  C   UNL     1      26.883  42.180  50.996  1.00  0.00     0.257 C 
HETATM   12  N   UNL     1      28.036  41.734  50.376  1.00  0.00    -0.323 N 
HETATM   13  H   UNL     1      28.889  42.250  50.558  1.00  0.00     0.169 HD
HETATM   14  O   UNL     1      25.761  41.699  50.892  1.00  0.00    -0.267 OA
BRANCH  12  15
HETATM   15  C   UNL     1      28.180  40.577  49.580  1.00  0.00     0.040 A 
HETATM   16  C   UNL     1      27.971  40.551  48.197  1.00  0.00     0.066 A 
HETATM   17  C   UNL     1      28.137  39.362  47.477  1.00  0.00     0.073 A 
HETATM   18  C   UNL     1      28.448  38.182  48.151  1.00  0.00     0.073 A 
HETATM   19  C   UNL     1      28.627  38.204  49.529  1.00  0.00     0.073 A 
HETATM   20  C   UNL     1      28.545  39.399  50.239  1.00  0.00     0.066 A 
BRANCH  17  21
HETATM   21  O   UNL     1      27.999  39.228  46.120  1.00  0.00    -0.356 OA
HETATM   22  C   UNL     1      27.942  40.441  45.375  1.00  0.00     0.210 C 
ENDBRANCH  17  21
BRANCH  19  23
HETATM   23  O   UNL     1      28.941  37.050  50.195  1.00  0.00    -0.356 OA
HETATM   24  C   UNL     1      29.914  37.328  51.204  1.00  0.00     0.210 C 
ENDBRANCH  19  23
ENDBRANCH  12  15
ENDBRANCH   1  11
BRANCH   9  25
HETATM   25  C   UNL     1      29.141  44.335  54.850  1.00  0.00    -0.007 A 
HETATM   26  C   UNL     1      29.231  45.417  55.745  1.00  0.00     0.014 A 
HETATM   27  C   UNL     1      30.183  45.445  56.769  1.00  0.00     0.001 A 
HETATM   28  C   UNL     1      31.074  44.388  56.919  1.00  0.00     0.000 A 
HETATM   29  C   UNL     1      31.014  43.306  56.046  1.00  0.00     0.001 A 
HETATM   30  C   UNL     1      30.060  43.282  55.023  1.00  0.00     0.014 A 
ENDBRANCH   9  25
TORSDOF 5
ENDMDL
MODEL 4
REMARK VINA RESULT:      -9.1      1.736      5.166
REMARK  5 active torsions:
REMARK  status: ('A' for Active; 'I' for Inactive)
REMARK    1  A    between atoms: O_2  and  C_3 
REMARK    2  A    between atoms: C_5  and  O_6 
REMARK    3  A    between atoms: C_9  and  N_10 
REMARK       I    between atoms: N_10  and  C_11 
REMARK    4  A    between atoms: C_11  and  C_12 
REMARK    5  A    between atoms: C_20  and  C_21 
ROOT
HETATM    1  C   UNL     1      27.029  43.276  52.062  1.00  0.00     0.047 A 
HETATM    2  C   UNL     1      27.935  43.603  53.102  1.00  0.00     0.008 A 
HETATM    3  C   UNL     1      28.956  42.662  53.338  1.00  0.00     0.068 A 
HETATM    4  C   UNL     1      29.845  42.879  54.381  1.00  0.00     0.032 A 
HETATM    5  C   UNL     1      29.784  44.019  55.184  1.00  0.00     0.002 A 
HETATM    6  C   UNL     1      28.824  44.984  54.927  1.00  0.00     0.001 A 
HETATM    7  C   UNL     1      27.915  44.786  53.889  1.00  0.00     0.015 A 
HETATM    8  N   UNL     1      29.127  41.561  52.590  1.00  0.00    -0.248 NA
HETATM    9  C   UNL     1      28.312  41.321  51.535  1.00  0.00     0.068 A 
HETATM   10  C   UNL     1      27.235  42.146  51.265  1.00  0.00     0.050 A 
ENDROOT
BRANCH   1  11
HETATM   11  C   UNL     1      25.821  44.080  51.726  1.00  0.00     0.257 C 
HETATM   12  N   UNL     1      25.957  44.928  50.641  1.00  0.00    -0.323 N 
HETATM   13  H   UNL     1      26.848  44.923  50.159  1.00  0.00     0.169 HD
HETATM   14  O   UNL     1      24.832  43.952  52.437  1.00  0.00    -0.267 OA
BRANCH  12  15
HETATM   15  C   UNL     1      24.957  45.742  50.068  1.00  0.00     0.040 A 
HETATM   16  C   UNL     1      24.845  47.118  50.296  1.00  0.00     0.066 A 
HETATM   17  C   UNL     1      23.824  47.858  49.687  1.00  0.00     0.073 A 
HETATM   18  C   UNL     1      22.873  47.209  48.901  1.00  0.00     0.073 A 
HETATM   19  C   UNL     1      22.970  45.837  48.698  1.00  0.00     0.073 A 
HETATM   20  C   UNL     1      24.030  45.110  49.233  1.00  0.00     0.066 A 
BRANCH  17  21
HETATM   21  O   UNL     1      23.643  49.211  49.807  1.00  0.00    -0.356 OA
HETATM   22  C   UNL     1      23.708  49.960  48.597  1.00  0.00     0.210 C 
ENDBRANCH  17  21
BRANCH  19  23
HETATM   23  O   UNL     1      22.044  45.195  47.921  1.00  0.00    -0.356 OA
HETATM   24  C   UNL     1      20.776  45.201  48.581  1.00  0.00     0.210 C 
ENDBRANCH  19  23
ENDBRANCH  12  15
ENDBRANCH   1  11
BRANCH   9  25
HETATM   25  C   UNL     1      28.662  40.145  50.707  1.00  0.00    -0.007 A 
HETATM   26  C   UNL     1      29.347  39.049  51.264  1.00  0.00     0.014 A 
HETATM   27  C   UNL     1      29.707  37.940  50.491  1.00  0.00     0.001 A 
HETATM   28  C   UNL     1      29.391  37.903  49.137  1.00  0.00     0.000 A 
HETATM   29  C   UNL     1      28.718  38.973  48.557  1.00  0.00     0.001 A 
HETATM   30  C   UNL     1      28.359  40.081  49.333  1.00  0.00     0.014 A 
ENDBRANCH   9  25
TORSDOF 5
ENDMDL
MODEL 5
REMARK VINA RESULT:      -9.0      1.634      4.758
REMARK  5 active torsions:
REMARK  status: ('A' for Active; 'I' for Inactive)
REMARK    1  A    between atoms: O_2  and  C_3 
REMARK    2  A    between atoms: C_5  and  O_6 
REMARK    3  A    between atoms: C_9  and  N_10 
REMARK       I    between atoms: N_10  and  C_11 
REMARK    4  A    between atoms: C_11  and  C_12 
REMARK    5  A    between atoms: C_20  and  C_21 
ROOT
HETATM    1  C   UNL     1      27.018  43.271  52.132  1.00  0.00     0.047 A 
HETATM    2  C   UNL     1      27.930  43.606  53.164  1.00  0.00     0.008 A 
HETATM    3  C   UNL     1      28.959  42.673  53.394  1.00  0.00     0.068 A 
HETATM    4  C   UNL     1      29.855  42.897  54.429  1.00  0.00     0.032 A 
HETATM    5  C   UNL     1      29.793  44.038  55.231  1.00  0.00     0.002 A 
HETATM    6  C   UNL     1      28.824  44.997  54.979  1.00  0.00     0.001 A 
HETATM    7  C   UNL     1      27.909  44.791  53.949  1.00  0.00     0.015 A 
HETATM    8  N   UNL     1      29.132  41.571  52.646  1.00  0.00    -0.248 NA
HETATM    9  C   UNL     1      28.309  41.323  51.598  1.00  0.00     0.068 A 
HETATM   10  C   UNL     1      27.226  42.141  51.336  1.00  0.00     0.050 A 
ENDROOT
BRANCH   1  11
HETATM   11  C   UNL     1      25.802  44.067  51.804  1.00  0.00     0.257 C 
HETATM   12  N   UNL     1      25.889  44.835  50.656  1.00  0.00    -0.323 N 
HETATM   13  H   UNL     1      26.753  44.785  50.131  1.00  0.00     0.169 HD
HETATM   14  O   UNL     1      24.850  44.002  52.572  1.00  0.00    -0.267 OA
BRANCH  12  15
HETATM   15  C   UNL     1      24.869  45.621  50.081  1.00  0.00     0.040 A 
HETATM   16  C   UNL     1      23.732  45.092  49.460  1.00  0.00     0.066 A 
HETATM   17  C   UNL     1      22.761  45.941  48.914  1.00  0.00     0.073 A 
HETATM   18  C   UNL     1      22.960  47.321  48.930  1.00  0.00     0.073 A 
HETATM   19  C   UNL     1      24.104  47.843  49.522  1.00  0.00     0.073 A 
HETATM   20  C   UNL     1      25.032  47.009  50.140  1.00  0.00     0.066 A 
BRANCH  17  21
HETATM   21  O   UNL     1      21.594  45.536  48.320  1.00  0.00    -0.356 OA
HETATM   22  C   UNL     1      20.568  46.520  48.223  1.00  0.00     0.210 C 
ENDBRANCH  17  21
BRANCH  19  23
HETATM   23  O   UNL     1      24.302  49.198  49.548  1.00  0.00    -0.356 OA
HETATM   24  C   UNL     1      23.742  49.786  48.371  1.00  0.00     0.210 C 
ENDBRANCH  19  23
ENDBRANCH  12  15
ENDBRANCH   1  11
BRANCH   9  25
HETATM   25  C   UNL     1      28.661  40.148  50.770  1.00  0.00    -0.007 A 
HETATM   26  C   UNL     1      29.362  39.060  51.322  1.00  0.00     0.014 A 
HETATM   27  C   UNL     1      29.723  37.952  50.549  1.00  0.00     0.001 A 
HETATM   28  C   UNL     1      29.392  37.908  49.199  1.00  0.00     0.000 A 
HETATM   29  C   UNL     1      28.703  38.971  48.623  1.00  0.00     0.001 A 
HETATM   30  C   UNL     1      28.344  40.078  49.399  1.00  0.00     0.014 A 
ENDBRANCH   9  25
TORSDOF 5
ENDMDL
MODEL 6
REMARK VINA RESULT:      -8.7      3.311      8.448
REMARK  5 active torsions:
REMARK  status: ('A' for Active; 'I' for Inactive)
REMARK    1  A    between atoms: O_2  and  C_3 
REMARK    2  A    between atoms: C_5  and  O_6 
REMARK    3  A    between atoms: C_9  and  N_10 
REMARK       I    between atoms: N_10  and  C_11 
REMARK    4  A    between atoms: C_11  and  C_12 
REMARK    5  A    between atoms: C_20  and  C_21 
ROOT
HETATM    1  C   UNL     1      25.408  44.918  50.928  1.00  0.00     0.047 A 
HETATM    2  C   UNL     1      25.765  45.387  52.216  1.00  0.00     0.008 A 
HETATM    3  C   UNL     1      25.644  46.775  52.415  1.00  0.00     0.068 A 
HETATM    4  C   UNL     1      26.034  47.321  53.630  1.00  0.00     0.032 A 
HETATM    5  C   UNL     1      26.512  46.532  54.678  1.00  0.00     0.002 A 
HETATM    6  C   UNL     1      26.580  45.157  54.522  1.00  0.00     0.001 A 
HETATM    7  C   UNL     1      26.199  44.587  53.308  1.00  0.00     0.015 A 
HETATM    8  N   UNL     1      25.150  47.609  51.486  1.00  0.00    -0.248 NA
HETATM    9  C   UNL     1      24.717  47.125  50.297  1.00  0.00     0.068 A 
HETATM   10  C   UNL     1      24.862  45.788  49.979  1.00  0.00     0.050 A 
ENDROOT
BRANCH   1  11
HETATM   11  C   UNL     1      25.566  43.506  50.481  1.00  0.00     0.257 C 
HETATM   12  N   UNL     1      26.806  43.187  49.955  1.00  0.00    -0.323 N 
HETATM   13  H   UNL     1      27.500  43.923  49.929  1.00  0.00     0.169 HD
HETATM   14  O   UNL     1      24.601  42.760  50.587  1.00  0.00    -0.267 OA
BRANCH  12  15
HETATM   15  C   UNL     1      27.245  41.916  49.526  1.00  0.00     0.040 A 
HETATM   16  C   UNL     1      27.959  41.024  50.333  1.00  0.00     0.066 A 
HETATM   17  C   UNL     1      28.358  39.778  49.834  1.00  0.00     0.073 A 
HETATM   18  C   UNL     1      28.102  39.452  48.503  1.00  0.00     0.073 A 
HETATM   19  C   UNL     1      27.417  40.352  47.694  1.00  0.00     0.073 A 
HETATM   20  C   UNL     1      26.945  41.556  48.208  1.00  0.00     0.066 A 
BRANCH  17  21
HETATM   21  O   UNL     1      29.024  38.813  50.543  1.00  0.00    -0.356 OA
HETATM   22  C   UNL     1      29.913  37.988  49.796  1.00  0.00     0.210 C 
ENDBRANCH  17  21
BRANCH  19  23
HETATM   23  O   UNL     1      27.155  40.033  46.389  1.00  0.00    -0.356 OA
HETATM   24  C   UNL     1      27.885  40.907  45.526  1.00  0.00     0.210 C 
ENDBRANCH  19  23
ENDBRANCH  12  15
ENDBRANCH   1  11
BRANCH   9  25
HETATM   25  C   UNL     1      24.082  48.112  49.395  1.00  0.00    -0.007 A 
HETATM   26  C   UNL     1      24.812  49.206  48.894  1.00  0.00     0.014 A 
HETATM   27  C   UNL     1      24.222  50.161  48.060  1.00  0.00     0.001 A 
HETATM   28  C   UNL     1      22.881  50.044  47.708  1.00  0.00     0.000 A 
HETATM   29  C   UNL     1      22.133  48.976  48.191  1.00  0.00     0.001 A 
HETATM   30  C   UNL     1      22.725  48.023  49.026  1.00  0.00     0.014 A 
ENDBRANCH   9  25
TORSDOF 5
ENDMDL
MODEL 7
REMARK VINA RESULT:      -8.6      3.414      6.412
REMARK  5 active torsions:
REMARK  status: ('A' for Active; 'I' for Inactive)
REMARK    1  A    between atoms: O_2  and  C_3 
REMARK    2  A    between atoms: C_5  and  O_6 
REMARK    3  A    between atoms: C_9  and  N_10 
REMARK       I    between atoms: N_10  and  C_11 
REMARK    4  A    between atoms: C_11  and  C_12 
REMARK    5  A    between atoms: C_20  and  C_21 
ROOT
HETATM    1  C   UNL     1      26.867  43.544  51.854  1.00  0.00     0.047 A 
HETATM    2  C   UNL     1      26.250  44.806  51.670  1.00  0.00     0.008 A 
HETATM    3  C   UNL     1      26.555  45.780  52.640  1.00  0.00     0.068 A 
HETATM    4  C   UNL     1      25.941  47.022  52.565  1.00  0.00     0.032 A 
HETATM    5  C   UNL     1      25.056  47.353  51.537  1.00  0.00     0.002 A 
HETATM    6  C   UNL     1      24.792  46.428  50.540  1.00  0.00     0.001 A 
HETATM    7  C   UNL     1      25.392  45.171  50.597  1.00  0.00     0.015 A 
HETATM    8  N   UNL     1      27.429  45.575  53.637  1.00  0.00    -0.248 NA
HETATM    9  C   UNL     1      28.087  44.394  53.734  1.00  0.00     0.068 A 
HETATM   10  C   UNL     1      27.804  43.350  52.874  1.00  0.00     0.050 A 
ENDROOT
BRANCH   1  11
HETATM   11  C   UNL     1      26.594  42.351  51.005  1.00  0.00     0.257 C 
HETATM   12  N   UNL     1      27.568  42.055  50.067  1.00  0.00    -0.323 N 
HETATM   13  H   UNL     1      28.384  42.656  50.043  1.00  0.00     0.169 HD
HETATM   14  O   UNL     1      25.539  41.753  51.179  1.00  0.00    -0.267 OA
BRANCH  12  15
HETATM   15  C   UNL     1      27.597  40.950  49.191  1.00  0.00     0.040 A 
HETATM   16  C   UNL     1      27.907  39.645  49.589  1.00  0.00     0.066 A 
HETATM   17  C   UNL     1      27.912  38.600  48.657  1.00  0.00     0.073 A 
HETATM   18  C   UNL     1      27.671  38.873  47.311  1.00  0.00     0.073 A 
HETATM   19  C   UNL     1      27.390  40.174  46.913  1.00  0.00     0.073 A 
HETATM   20  C   UNL     1      27.303  41.203  47.847  1.00  0.00     0.066 A 
BRANCH  17  21
HETATM   21  O   UNL     1      28.161  37.283  48.941  1.00  0.00    -0.356 OA
HETATM   22  C   UNL     1      27.188  36.622  49.745  1.00  0.00     0.210 C 
ENDBRANCH  17  21
BRANCH  19  23
HETATM   23  O   UNL     1      27.145  40.447  45.594  1.00  0.00    -0.356 OA
HETATM   24  C   UNL     1      28.346  40.903  44.967  1.00  0.00     0.210 C 
ENDBRANCH  19  23
ENDBRANCH  12  15
ENDBRANCH   1  11
BRANCH   9  25
HETATM   25  C   UNL     1      29.114  44.317  54.797  1.00  0.00    -0.007 A 
HETATM   26  C   UNL     1      29.273  45.362  55.725  1.00  0.00     0.014 A 
HETATM   27  C   UNL     1      30.253  45.316  56.721  1.00  0.00     0.001 A 
HETATM   28  C   UNL     1      31.105  44.220  56.809  1.00  0.00     0.000 A 
HETATM   29  C   UNL     1      30.976  43.173  55.902  1.00  0.00     0.001 A 
HETATM   30  C   UNL     1      29.994  43.222  54.907  1.00  0.00     0.014 A 
ENDBRANCH   9  25
TORSDOF 5
ENDMDL
MODEL 8
REMARK VINA RESULT:      -8.6      3.356      8.488
REMARK  5 active torsions:
REMARK  status: ('A' for Active; 'I' for Inactive)
REMARK    1  A    between atoms: O_2  and  C_3 
REMARK    2  A    between atoms: C_5  and  O_6 
REMARK    3  A    between atoms: C_9  and  N_10 
REMARK       I    between atoms: N_10  and  C_11 
REMARK    4  A    between atoms: C_11  and  C_12 
REMARK    5  A    between atoms: C_20  and  C_21 
ROOT
HETATM    1  C   UNL     1      25.358  44.946  50.841  1.00  0.00     0.047 A 
HETATM    2  C   UNL     1      25.715  45.396  52.136  1.00  0.00     0.008 A 
HETATM    3  C   UNL     1      25.604  46.783  52.352  1.00  0.00     0.068 A 
HETATM    4  C   UNL     1      25.995  47.309  53.575  1.00  0.00     0.032 A 
HETATM    5  C   UNL     1      26.462  46.504  54.615  1.00  0.00     0.002 A 
HETATM    6  C   UNL     1      26.521  45.131  54.441  1.00  0.00     0.001 A 
HETATM    7  C   UNL     1      26.139  44.579  53.219  1.00  0.00     0.015 A 
HETATM    8  N   UNL     1      25.120  47.632  51.432  1.00  0.00    -0.248 NA
HETATM    9  C   UNL     1      24.687  47.166  50.236  1.00  0.00     0.068 A 
HETATM   10  C   UNL     1      24.822  45.832  49.901  1.00  0.00     0.050 A 
ENDROOT
BRANCH   1  11
HETATM   11  C   UNL     1      25.507  43.538  50.377  1.00  0.00     0.257 C 
HETATM   12  N   UNL     1      26.710  43.242  49.761  1.00  0.00    -0.323 N 
HETATM   13  H   UNL     1      27.389  43.990  49.689  1.00  0.00     0.169 HD
HETATM   14  O   UNL     1      24.564  42.776  50.548  1.00  0.00    -0.267 OA
BRANCH  12  15
HETATM   15  C   UNL     1      27.139  41.981  49.296  1.00  0.00     0.040 A 
HETATM   16  C   UNL     1      26.828  41.468  48.031  1.00  0.00     0.066 A 
HETATM   17  C   UNL     1      27.294  40.207  47.641  1.00  0.00     0.073 A 
HETATM   18  C   UNL     1      28.016  39.427  48.544  1.00  0.00     0.073 A 
HETATM   19  C   UNL     1      28.300  39.926  49.810  1.00  0.00     0.073 A 
HETATM   20  C   UNL     1      27.910  41.212  50.173  1.00  0.00     0.066 A 
BRANCH  17  21
HETATM   21  O   UNL     1      27.085  39.625  46.418  1.00  0.00    -0.356 OA
HETATM   22  C   UNL     1      27.731  38.374  46.203  1.00  0.00     0.210 C 
ENDBRANCH  17  21
BRANCH  19  23
HETATM   23  O   UNL     1      29.016  39.168  50.697  1.00  0.00    -0.356 OA
HETATM   24  C   UNL     1      29.210  37.858  50.161  1.00  0.00     0.210 C 
ENDBRANCH  19  23
ENDBRANCH  12  15
ENDBRANCH   1  11
BRANCH   9  25
HETATM   25  C   UNL     1      24.063  48.169  49.344  1.00  0.00    -0.007 A 
HETATM   26  C   UNL     1      24.801  49.268  48.866  1.00  0.00     0.014 A 
HETATM   27  C   UNL     1      24.221  50.237  48.042  1.00  0.00     0.001 A 
HETATM   28  C   UNL     1      22.883  50.132  47.678  1.00  0.00     0.000 A 
HETATM   29  C   UNL     1      22.126  49.059  48.139  1.00  0.00     0.001 A 
HETATM   30  C   UNL     1      22.709  48.091  48.963  1.00  0.00     0.014 A 
ENDBRANCH   9  25
TORSDOF 5
ENDMDL
MODEL 9
REMARK VINA RESULT:      -8.5      3.235      5.642
REMARK  5 active torsions:
REMARK  status: ('A' for Active; 'I' for Inactive)
REMARK    1  A    between atoms: O_2  and  C_3 
REMARK    2  A    between atoms: C_5  and  O_6 
REMARK    3  A    between atoms: C_9  and  N_10 
REMARK       I    between atoms: N_10  and  C_11 
REMARK    4  A    between atoms: C_11  and  C_12 
REMARK    5  A    between atoms: C_20  and  C_21 
ROOT
HETATM    1  C   UNL     1      27.572  43.613  52.875  1.00  0.00     0.047 A 
HETATM    2  C   UNL     1      26.899  44.845  52.678  1.00  0.00     0.008 A 
HETATM    3  C   UNL     1      27.148  45.837  53.646  1.00  0.00     0.068 A 
HETATM    4  C   UNL     1      26.479  47.049  53.558  1.00  0.00     0.032 A 
HETATM    5  C   UNL     1      25.591  47.333  52.519  1.00  0.00     0.002 A 
HETATM    6  C   UNL     1      25.381  46.392  51.524  1.00  0.00     0.001 A 
HETATM    7  C   UNL     1      26.037  45.164  51.594  1.00  0.00     0.015 A 
HETATM    8  N   UNL     1      28.021  45.677  54.653  1.00  0.00    -0.248 NA
HETATM    9  C   UNL     1      28.731  44.528  54.764  1.00  0.00     0.068 A 
HETATM   10  C   UNL     1      28.505  43.467  53.906  1.00  0.00     0.050 A 
ENDROOT
BRANCH   1  11
HETATM   11  C   UNL     1      27.363  42.405  52.030  1.00  0.00     0.257 C 
HETATM   12  N   UNL     1      26.943  42.653  50.734  1.00  0.00    -0.323 N 
HETATM   13  H   UNL     1      26.828  43.623  50.464  1.00  0.00     0.169 HD
HETATM   14  O   UNL     1      27.548  41.307  52.542  1.00  0.00    -0.267 OA
BRANCH  12  15
HETATM   15  C   UNL     1      26.740  41.705  49.710  1.00  0.00     0.040 A 
HETATM   16  C   UNL     1      25.498  41.447  49.119  1.00  0.00     0.066 A 
HETATM   17  C   UNL     1      25.379  40.490  48.104  1.00  0.00     0.073 A 
HETATM   18  C   UNL     1      26.492  39.741  47.726  1.00  0.00     0.073 A 
HETATM   19  C   UNL     1      27.719  39.979  48.333  1.00  0.00     0.073 A 
HETATM   20  C   UNL     1      27.862  40.986  49.284  1.00  0.00     0.066 A 
BRANCH  17  21
HETATM   21  O   UNL     1      24.225  40.186  47.430  1.00  0.00    -0.356 OA
HETATM   22  C   UNL     1      24.138  40.666  46.092  1.00  0.00     0.210 C 
ENDBRANCH  17  21
BRANCH  19  23
HETATM   23  O   UNL     1      28.818  39.252  47.960  1.00  0.00    -0.356 OA
HETATM   24  C   UNL     1      29.318  38.526  49.085  1.00  0.00     0.210 C 
ENDBRANCH  19  23
ENDBRANCH  12  15
ENDBRANCH   1  11
BRANCH   9  25
HETATM   25  C   UNL     1      29.749  44.503  55.838  1.00  0.00    -0.007 A 
HETATM   26  C   UNL     1      30.681  43.452  55.924  1.00  0.00     0.014 A 
HETATM   27  C   UNL     1      31.634  43.400  56.945  1.00  0.00     0.001 A 
HETATM   28  C   UNL     1      31.675  44.400  57.911  1.00  0.00     0.000 A 
HETATM   29  C   UNL     1      30.763  45.449  57.856  1.00  0.00     0.001 A 
HETATM   30  C   UNL     1      29.810  45.499  56.833  1.00  0.00     0.014 A 
ENDBRANCH   9  25
TORSDOF 5
ENDMDL
MODEL 10
REMARK VINA RESULT:      -8.5      1.755      2.587
REMARK  5 active torsions:
REMARK  status: ('A' for Active; 'I' for Inactive)
REMARK    1  A    between atoms: O_2  and  C_3 
REMARK    2  A    between atoms: C_5  and  O_6 
REMARK    3  A    between atoms: C_9  and  N_10 
REMARK       I    between atoms: N_10  and  C_11 
REMARK    4  A    between atoms: C_11  and  C_12 
REMARK    5  A    between atoms: C_20  and  C_21 
ROOT
HETATM    1  C   UNL     1      25.820  44.351  50.668  1.00  0.00     0.047 A 
HETATM    2  C   UNL     1      25.942  42.945  50.543  1.00  0.00     0.008 A 
HETATM    3  C   UNL     1      26.793  42.322  51.475  1.00  0.00     0.068 A 
HETATM    4  C   UNL     1      27.014  40.955  51.379  1.00  0.00     0.032 A 
HETATM    5  C   UNL     1      26.391  40.169  50.408  1.00  0.00     0.002 A 
HETATM    6  C   UNL     1      25.503  40.755  49.521  1.00  0.00     0.001 A 
HETATM    7  C   UNL     1      25.269  42.128  49.594  1.00  0.00     0.015 A 
HETATM    8  N   UNL     1      27.398  42.983  52.474  1.00  0.00    -0.248 NA
HETATM    9  C   UNL     1      27.186  44.312  52.638  1.00  0.00     0.068 A 
HETATM   10  C   UNL     1      26.425  45.027  51.732  1.00  0.00     0.050 A 
ENDROOT
BRANCH   1  11
HETATM   11  C   UNL     1      25.057  45.210  49.719  1.00  0.00     0.257 C 
HETATM   12  N   UNL     1      24.729  46.468  50.192  1.00  0.00    -0.323 N 
HETATM   13  H   UNL     1      25.041  46.708  51.125  1.00  0.00     0.169 HD
HETATM   14  O   UNL     1      24.763  44.737  48.629  1.00  0.00    -0.267 OA
BRANCH  12  15
HETATM   15  C   UNL     1      24.079  47.500  49.482  1.00  0.00     0.040 A 
HETATM   16  C   UNL     1      22.699  47.539  49.253  1.00  0.00     0.066 A 
HETATM   17  C   UNL     1      22.127  48.600  48.540  1.00  0.00     0.073 A 
HETATM   18  C   UNL     1      22.946  49.590  47.998  1.00  0.00     0.073 A 
HETATM   19  C   UNL     1      24.320  49.534  48.203  1.00  0.00     0.073 A 
HETATM   20  C   UNL     1      24.884  48.527  48.981  1.00  0.00     0.066 A 
BRANCH  17  21
HETATM   21  O   UNL     1      20.789  48.762  48.291  1.00  0.00    -0.356 OA
HETATM   22  C   UNL     1      19.906  47.984  49.093  1.00  0.00     0.210 C 
ENDBRANCH  17  21
BRANCH  19  23
HETATM   23  O   UNL     1      25.128  50.508  47.681  1.00  0.00    -0.356 OA
HETATM   24  C   UNL     1      26.481  50.273  48.079  1.00  0.00     0.210 C 
ENDBRANCH  19  23
ENDBRANCH  12  15
ENDBRANCH   1  11
BRANCH   9  25
HETATM   25  C   UNL     1      27.805  44.917  53.838  1.00  0.00    -0.007 A 
HETATM   26  C   UNL     1      27.320  46.128  54.367  1.00  0.00     0.014 A 
HETATM   27  C   UNL     1      27.908  46.727  55.485  1.00  0.00     0.001 A 
HETATM   28  C   UNL     1      29.001  46.127  56.102  1.00  0.00     0.000 A 
HETATM   29  C   UNL     1      29.506  44.933  55.599  1.00  0.00     0.001 A 
HETATM   30  C   UNL     1      28.917  44.336  54.479  1.00  0.00     0.014 A 
ENDBRANCH   9  25
TORSDOF 5
ENDMDL
