MODEL 1
REMARK VINA RESULT:     -10.0      0.000      0.000
REMARK  6 active torsions:
REMARK  status: ('A' for Active; 'I' for Inactive)
REMARK    1  A    between atoms: O_2  and  C_3 
REMARK    2  A    between atoms: C_6  and  C_7 
REMARK    3  A    between atoms: C_12  and  C_13 
REMARK       I    between atoms: C_13  and  N_14 
REMARK    4  A    between atoms: N_14  and  C_15 
REMARK    5  A    between atoms: C_17  and  O_18 
REMARK    6  A    between atoms: C_24  and  C_25 
ROOT
HETATM    1  C   UNL     1      27.284  43.821  53.101  1.00  0.00     0.118 C 
HETATM    2  N   UNL     1      26.332  44.931  53.148  1.00  0.00    -0.366 N 
HETATM    3  C   UNL     1      25.870  45.540  52.038  1.00  0.00     0.123 C 
HETATM    4  N   UNL     1      26.103  45.017  50.798  1.00  0.00    -0.240 N 
HETATM    5  N   UNL     1      25.759  45.830  49.786  1.00  0.00    -0.165 NA
HETATM    6  C   UNL     1      25.130  46.853  50.413  1.00  0.00     0.148 C 
HETATM    7  C   UNL     1      25.154  46.687  51.827  1.00  0.00     0.089 C 
HETATM    8  C   UNL     1      26.808  43.768  50.587  1.00  0.00     0.221 C 
HETATM    9  C   UNL     1      27.865  43.613  51.684  1.00  0.00     0.066 C 
HETATM   10  H   UNL     1      26.142  45.305  54.078  1.00  0.00     0.161 HD
ENDROOT
BRANCH   6  11
HETATM   11  C   UNL     1      24.572  47.995  49.666  1.00  0.00     0.276 C 
HETATM   12  N   UNL     1      23.193  48.029  49.747  1.00  0.00    -0.322 N 
HETATM   13  H   UNL     1      22.805  47.264  50.295  1.00  0.00     0.169 HD
HETATM   14  O   UNL     1      25.288  48.762  49.031  1.00  0.00    -0.266 OA
BRANCH  12  15
HETATM   15  C   UNL     1      22.301  48.917  49.127  1.00  0.00     0.037 A 
HETATM   16  C   UNL     1      21.348  48.527  48.184  1.00  0.00     0.066 A 
HETATM   17  C   UNL     1      20.501  49.483  47.622  1.00  0.00     0.067 A 
HETATM   18  C   UNL     1      20.580  50.819  47.991  1.00  0.00     0.036 A 
HETATM   19  C   UNL     1      21.528  51.215  48.930  1.00  0.00     0.005 A 
HETATM   20  C   UNL     1      22.389  50.268  49.490  1.00  0.00     0.029 A 
BRANCH  17  21
HETATM   21  O   UNL     1      19.567  49.137  46.688  1.00  0.00    -0.361 OA
HETATM   22  H   UNL     1      19.929  48.415  46.146  1.00  0.00     0.217 HD
ENDBRANCH  17  21
ENDBRANCH  12  15
ENDBRANCH   6  11
BRANCH   8  23
HETATM   23  C   UNL     1      25.830  42.617  50.550  1.00  0.00     0.409 C 
HETATM   24  F   UNL     1      24.676  42.903  51.192  1.00  0.00    -0.169 F 
HETATM   25  F   UNL     1      25.497  42.345  49.261  1.00  0.00    -0.169 F 
HETATM   26  F   UNL     1      26.318  41.472  51.070  1.00  0.00    -0.169 F 
ENDBRANCH   8  23
BRANCH   1  27
HETATM   27  C   UNL     1      28.421  44.082  54.076  1.00  0.00    -0.035 A 
HETATM   28  C   UNL     1      28.409  45.217  54.896  1.00  0.00     0.012 A 
HETATM   29  C   UNL     1      29.409  45.409  55.853  1.00  0.00     0.037 A 
HETATM   30  C   UNL     1      30.427  44.467  56.021  1.00  0.00     0.068 A 
HETATM   31  C   UNL     1      30.468  43.351  55.188  1.00  0.00     0.037 A 
HETATM   32  C   UNL     1      29.472  43.159  54.226  1.00  0.00     0.012 A 
BRANCH  30  33
HETATM   33  O   UNL     1      31.322  44.748  57.015  1.00  0.00    -0.356 OA
HETATM   34  C   UNL     1      30.773  45.265  58.222  1.00  0.00     0.210 C 
ENDBRANCH  30  33
ENDBRANCH   1  27
TORSDOF 6
ENDMDL
MODEL 2
REMARK VINA RESULT:      -9.5      1.403      1.550
REMARK  6 active torsions:
REMARK  status: ('A' for Active; 'I' for Inactive)
REMARK    1  A    between atoms: O_2  and  C_3 
REMARK    2  A    between atoms: C_6  and  C_7 
REMARK    3  A    between atoms: C_12  and  C_13 
REMARK       I    between atoms: C_13  and  N_14 
REMARK    4  A    between atoms: N_14  and  C_15 
REMARK    5  A    between atoms: C_17  and  O_18 
REMARK    6  A    between atoms: C_24  and  C_25 
ROOT
HETATM    1  C   UNL     1      27.607  43.093  53.202  1.00  0.00     0.118 C 
HETATM    2  N   UNL     1      26.364  43.863  53.150  1.00  0.00    -0.366 N 
HETATM    3  C   UNL     1      25.785  44.230  51.990  1.00  0.00     0.123 C 
HETATM    4  N   UNL     1      26.213  43.722  50.796  1.00  0.00    -0.240 N 
HETATM    5  N   UNL     1      25.680  44.326  49.720  1.00  0.00    -0.165 NA
HETATM    6  C   UNL     1      24.749  45.149  50.259  1.00  0.00     0.148 C 
HETATM    7  C   UNL     1      24.766  45.091  51.681  1.00  0.00     0.089 C 
HETATM    8  C   UNL     1      27.268  42.735  50.691  1.00  0.00     0.221 C 
HETATM    9  C   UNL     1      28.279  42.979  51.815  1.00  0.00     0.066 C 
HETATM   10  H   UNL     1      26.034  44.223  54.046  1.00  0.00     0.161 HD
ENDROOT
BRANCH   6  11
HETATM   11  C   UNL     1      23.903  46.018  49.419  1.00  0.00     0.276 C 
HETATM   12  N   UNL     1      24.094  47.353  49.719  1.00  0.00    -0.322 N 
HETATM   13  H   UNL     1      24.771  47.504  50.463  1.00  0.00     0.169 HD
HETATM   14  O   UNL     1      23.113  45.555  48.604  1.00  0.00    -0.266 OA
BRANCH  12  15
HETATM   15  C   UNL     1      23.436  48.472  49.186  1.00  0.00     0.037 A 
HETATM   16  C   UNL     1      22.049  48.635  49.199  1.00  0.00     0.066 A 
HETATM   17  C   UNL     1      21.484  49.784  48.647  1.00  0.00     0.067 A 
HETATM   18  C   UNL     1      22.277  50.780  48.091  1.00  0.00     0.036 A 
HETATM   19  C   UNL     1      23.659  50.624  48.074  1.00  0.00     0.005 A 
HETATM   20  C   UNL     1      24.235  49.471  48.614  1.00  0.00     0.029 A 
BRANCH  17  21
HETATM   21  O   UNL     1      20.131  49.969  48.632  1.00  0.00    -0.361 OA
HETATM   22  H   UNL     1      19.937  50.841  49.017  1.00  0.00     0.217 HD
ENDBRANCH  17  21
ENDBRANCH  12  15
ENDBRANCH   6  11
BRANCH   8  23
HETATM   23  C   UNL     1      26.683  41.342  50.721  1.00  0.00     0.409 C 
HETATM   24  F   UNL     1      25.332  41.352  50.699  1.00  0.00    -0.169 F 
HETATM   25  F   UNL     1      27.082  40.657  49.618  1.00  0.00    -0.169 F 
HETATM   26  F   UNL     1      27.073  40.613  51.787  1.00  0.00    -0.169 F 
ENDBRANCH   8  23
BRANCH   1  27
HETATM   27  C   UNL     1      28.574  43.748  54.176  1.00  0.00    -0.035 A 
HETATM   28  C   UNL     1      28.250  44.965  54.788  1.00  0.00     0.012 A 
HETATM   29  C   UNL     1      29.100  45.521  55.749  1.00  0.00     0.037 A 
HETATM   30  C   UNL     1      30.275  44.867  56.126  1.00  0.00     0.068 A 
HETATM   31  C   UNL     1      30.624  43.673  55.498  1.00  0.00     0.037 A 
HETATM   32  C   UNL     1      29.779  43.118  54.534  1.00  0.00     0.012 A 
BRANCH  30  33
HETATM   33  O   UNL     1      31.001  45.491  57.102  1.00  0.00    -0.356 OA
HETATM   34  C   UNL     1      30.256  46.010  58.199  1.00  0.00     0.210 C 
ENDBRANCH  30  33
ENDBRANCH   1  27
TORSDOF 6
ENDMDL
MODEL 3
REMARK VINA RESULT:      -9.0      1.816      9.343
REMARK  6 active torsions:
REMARK  status: ('A' for Active; 'I' for Inactive)
REMARK    1  A    between atoms: O_2  and  C_3 
REMARK    2  A    between atoms: C_6  and  C_7 
REMARK    3  A    between atoms: C_12  and  C_13 
REMARK       I    between atoms: C_13  and  N_14 
REMARK    4  A    between atoms: N_14  and  C_15 
REMARK    5  A    between atoms: C_17  and  O_18 
REMARK    6  A    between atoms: C_24  and  C_25 
ROOT
HETATM    1  C   UNL     1      24.048  46.529  49.169  1.00  0.00     0.118 C 
HETATM    2  N   UNL     1      25.232  46.756  49.998  1.00  0.00    -0.366 N 
HETATM    3  C   UNL     1      25.587  45.929  51.000  1.00  0.00     0.123 C 
HETATM    4  N   UNL     1      24.978  44.717  51.162  1.00  0.00    -0.240 N 
HETATM    5  N   UNL     1      25.292  44.094  52.311  1.00  0.00    -0.165 NA
HETATM    6  C   UNL     1      26.270  44.876  52.827  1.00  0.00     0.148 C 
HETATM    7  C   UNL     1      26.503  46.021  52.014  1.00  0.00     0.089 C 
HETATM    8  C   UNL     1      23.960  44.217  50.261  1.00  0.00     0.221 C 
HETATM    9  C   UNL     1      23.151  45.405  49.732  1.00  0.00     0.066 C 
HETATM   10  H   UNL     1      25.698  47.653  49.859  1.00  0.00     0.161 HD
ENDROOT
BRANCH   6  11
HETATM   11  C   UNL     1      26.923  44.556  54.111  1.00  0.00     0.276 C 
HETATM   12  N   UNL     1      28.258  44.909  54.101  1.00  0.00    -0.322 N 
HETATM   13  H   UNL     1      28.559  45.317  53.219  1.00  0.00     0.169 HD
HETATM   14  O   UNL     1      26.317  44.003  55.022  1.00  0.00    -0.266 OA
BRANCH  12  15
HETATM   15  C   UNL     1      29.223  44.712  55.102  1.00  0.00     0.037 A 
HETATM   16  C   UNL     1      29.426  45.592  56.167  1.00  0.00     0.066 A 
HETATM   17  C   UNL     1      30.408  45.312  57.117  1.00  0.00     0.067 A 
HETATM   18  C   UNL     1      31.185  44.164  57.030  1.00  0.00     0.036 A 
HETATM   19  C   UNL     1      30.989  43.283  55.972  1.00  0.00     0.005 A 
HETATM   20  C   UNL     1      30.015  43.560  55.008  1.00  0.00     0.029 A 
BRANCH  17  21
HETATM   21  O   UNL     1      30.641  46.158  58.163  1.00  0.00    -0.361 OA
HETATM   22  H   UNL     1      29.799  46.575  58.412  1.00  0.00     0.217 HD
ENDBRANCH  17  21
ENDBRANCH  12  15
ENDBRANCH   6  11
BRANCH   8  23
HETATM   23  C   UNL     1      24.595  43.403  49.157  1.00  0.00     0.409 C 
HETATM   24  F   UNL     1      24.537  42.075  49.400  1.00  0.00    -0.169 F 
HETATM   25  F   UNL     1      23.924  43.612  47.994  1.00  0.00    -0.169 F 
HETATM   26  F   UNL     1      25.883  43.724  48.918  1.00  0.00    -0.169 F 
ENDBRANCH   8  23
BRANCH   1  27
HETATM   27  C   UNL     1      23.241  47.814  49.069  1.00  0.00    -0.035 A 
HETATM   28  C   UNL     1      23.872  49.060  49.161  1.00  0.00     0.012 A 
HETATM   29  C   UNL     1      23.141  50.238  48.982  1.00  0.00     0.037 A 
HETATM   30  C   UNL     1      21.776  50.194  48.693  1.00  0.00     0.068 A 
HETATM   31  C   UNL     1      21.130  48.961  48.634  1.00  0.00     0.037 A 
HETATM   32  C   UNL     1      21.858  47.782  48.817  1.00  0.00     0.012 A 
BRANCH  30  33
HETATM   33  O   UNL     1      21.181  51.410  48.500  1.00  0.00    -0.356 OA
HETATM   34  C   UNL     1      19.866  51.552  49.026  1.00  0.00     0.210 C 
ENDBRANCH  30  33
ENDBRANCH   1  27
TORSDOF 6
ENDMDL
MODEL 4
REMARK VINA RESULT:      -8.7      2.822      3.165
REMARK  6 active torsions:
REMARK  status: ('A' for Active; 'I' for Inactive)
REMARK    1  A    between atoms: O_2  and  C_3 
REMARK    2  A    between atoms: C_6  and  C_7 
REMARK    3  A    between atoms: C_12  and  C_13 
REMARK       I    between atoms: C_13  and  N_14 
REMARK    4  A    between atoms: N_14  and  C_15 
REMARK    5  A    between atoms: C_17  and  O_18 
REMARK    6  A    between atoms: C_24  and  C_25 
ROOT
HETATM    1  C   UNL     1      27.869  42.903  53.256  1.00  0.00     0.118 C 
HETATM    2  N   UNL     1      26.484  43.376  53.219  1.00  0.00    -0.366 N 
HETATM    3  C   UNL     1      25.839  43.644  52.067  1.00  0.00     0.123 C 
HETATM    4  N   UNL     1      26.372  43.288  50.861  1.00  0.00    -0.240 N 
HETATM    5  N   UNL     1      25.720  43.793  49.801  1.00  0.00    -0.165 NA
HETATM    6  C   UNL     1      24.626  44.366  50.358  1.00  0.00     0.148 C 
HETATM    7  C   UNL     1      24.653  44.263  51.778  1.00  0.00     0.089 C 
HETATM    8  C   UNL     1      27.623  42.567  50.732  1.00  0.00     0.221 C 
HETATM    9  C   UNL     1      28.551  42.993  51.874  1.00  0.00     0.066 C 
HETATM   10  H   UNL     1      26.080  43.620  54.123  1.00  0.00     0.161 HD
ENDROOT
BRANCH   6  11
HETATM   11  C   UNL     1      23.607  45.052  49.540  1.00  0.00     0.276 C 
HETATM   12  N   UNL     1      22.534  44.226  49.272  1.00  0.00    -0.322 N 
HETATM   13  H   UNL     1      22.633  43.296  49.673  1.00  0.00     0.169 HD
HETATM   14  O   UNL     1      23.769  46.199  49.139  1.00  0.00    -0.266 OA
BRANCH  12  15
HETATM   15  C   UNL     1      21.403  44.488  48.483  1.00  0.00     0.037 A 
HETATM   16  C   UNL     1      20.263  45.143  48.955  1.00  0.00     0.066 A 
HETATM   17  C   UNL     1      19.187  45.363  48.095  1.00  0.00     0.067 A 
HETATM   18  C   UNL     1      19.231  44.950  46.769  1.00  0.00     0.036 A 
HETATM   19  C   UNL     1      20.363  44.298  46.292  1.00  0.00     0.005 A 
HETATM   20  C   UNL     1      21.442  44.062  47.148  1.00  0.00     0.029 A 
BRANCH  17  21
HETATM   21  O   UNL     1      18.053  45.988  48.527  1.00  0.00    -0.361 OA
HETATM   22  H   UNL     1      17.775  46.623  47.846  1.00  0.00     0.217 HD
ENDBRANCH  17  21
ENDBRANCH  12  15
ENDBRANCH   6  11
BRANCH   8  23
HETATM   23  C   UNL     1      27.367  41.079  50.709  1.00  0.00     0.409 C 
HETATM   24  F   UNL     1      28.234  40.397  51.490  1.00  0.00    -0.169 F 
HETATM   25  F   UNL     1      26.125  40.823  51.196  1.00  0.00    -0.169 F 
HETATM   26  F   UNL     1      27.413  40.538  49.474  1.00  0.00    -0.169 F 
ENDBRANCH   8  23
BRANCH   1  27
HETATM   27  C   UNL     1      28.661  43.725  54.261  1.00  0.00    -0.035 A 
HETATM   28  C   UNL     1      28.134  44.913  54.782  1.00  0.00     0.012 A 
HETATM   29  C   UNL     1      28.825  45.619  55.771  1.00  0.00     0.037 A 
HETATM   30  C   UNL     1      30.042  45.146  56.268  1.00  0.00     0.068 A 
HETATM   31  C   UNL     1      30.593  43.984  55.732  1.00  0.00     0.037 A 
HETATM   32  C   UNL     1      29.906  43.278  54.740  1.00  0.00     0.012 A 
BRANCH  30  33
HETATM   33  O   UNL     1      30.601  45.904  57.259  1.00  0.00    -0.356 OA
HETATM   34  C   UNL     1      30.918  45.218  58.466  1.00  0.00     0.210 C 
ENDBRANCH  30  33
ENDBRANCH   1  27
TORSDOF 6
ENDMDL
MODEL 5
REMARK VINA RESULT:      -8.7      2.521      9.629
REMARK  6 active torsions:
REMARK  status: ('A' for Active; 'I' for Inactive)
REMARK    1  A    between atoms: O_2  and  C_3 
REMARK    2  A    between atoms: C_6  and  C_7 
REMARK    3  A    between atoms: C_12  and  C_13 
REMARK       I    between atoms: C_13  and  N_14 
REMARK    4  A    between atoms: N_14  and  C_15 
REMARK    5  A    between atoms: C_17  and  O_18 
REMARK    6  A    between atoms: C_24  and  C_25 
ROOT
HETATM    1  C   UNL     1      22.133  47.300  48.061  1.00  0.00     0.118 C 
HETATM    2  N   UNL     1      23.423  47.344  48.751  1.00  0.00    -0.366 N 
HETATM    3  C   UNL     1      23.836  46.365  49.580  1.00  0.00     0.123 C 
HETATM    4  N   UNL     1      23.167  45.176  49.657  1.00  0.00    -0.240 N 
HETATM    5  N   UNL     1      23.573  44.382  50.661  1.00  0.00    -0.165 NA
HETATM    6  C   UNL     1      24.660  45.029  51.146  1.00  0.00     0.148 C 
HETATM    7  C   UNL     1      24.873  46.263  50.468  1.00  0.00     0.089 C 
HETATM    8  C   UNL     1      22.013  44.865  48.837  1.00  0.00     0.221 C 
HETATM    9  C   UNL     1      21.233  46.158  48.581  1.00  0.00     0.066 C 
HETATM   10  H   UNL     1      23.931  48.224  48.673  1.00  0.00     0.161 HD
ENDROOT
BRANCH   6  11
HETATM   11  C   UNL     1      25.440  44.496  52.279  1.00  0.00     0.276 C 
HETATM   12  N   UNL     1      26.796  44.675  52.088  1.00  0.00    -0.322 N 
HETATM   13  H   UNL     1      27.021  45.131  51.207  1.00  0.00     0.169 HD
HETATM   14  O   UNL     1      24.899  43.933  53.224  1.00  0.00    -0.266 OA
BRANCH  12  15
HETATM   15  C   UNL     1      27.857  44.253  52.904  1.00  0.00     0.037 A 
HETATM   16  C   UNL     1      28.212  44.881  54.100  1.00  0.00     0.066 A 
HETATM   17  C   UNL     1      29.282  44.388  54.847  1.00  0.00     0.067 A 
HETATM   18  C   UNL     1      29.999  43.274  54.429  1.00  0.00     0.036 A 
HETATM   19  C   UNL     1      29.651  42.644  53.239  1.00  0.00     0.005 A 
HETATM   20  C   UNL     1      28.588  43.136  52.476  1.00  0.00     0.029 A 
BRANCH  17  21
HETATM   21  O   UNL     1      29.663  44.986  56.015  1.00  0.00    -0.361 OA
HETATM   22  H   UNL     1      28.871  45.352  56.444  1.00  0.00     0.217 HD
ENDBRANCH  17  21
ENDBRANCH  12  15
ENDBRANCH   6  11
BRANCH   8  23
HETATM   23  C   UNL     1      22.449  44.182  47.562  1.00  0.00     0.409 C 
HETATM   24  F   UNL     1      22.207  42.853  47.582  1.00  0.00    -0.169 F 
HETATM   25  F   UNL     1      21.747  44.686  46.513  1.00  0.00    -0.169 F 
HETATM   26  F   UNL     1      23.754  44.359  47.269  1.00  0.00    -0.169 F 
ENDBRANCH   8  23
BRANCH   1  27
HETATM   27  C   UNL     1      21.413  48.628  48.240  1.00  0.00    -0.035 A 
HETATM   28  C   UNL     1      22.139  49.815  48.390  1.00  0.00     0.012 A 
HETATM   29  C   UNL     1      21.476  51.044  48.466  1.00  0.00     0.037 A 
HETATM   30  C   UNL     1      20.084  51.111  48.377  1.00  0.00     0.068 A 
HETATM   31  C   UNL     1      19.350  49.932  48.263  1.00  0.00     0.037 A 
HETATM   32  C   UNL     1      20.010  48.702  48.192  1.00  0.00     0.012 A 
BRANCH  30  33
HETATM   33  O   UNL     1      19.557  52.372  48.425  1.00  0.00    -0.356 OA
HETATM   34  C   UNL     1      18.305  52.500  49.091  1.00  0.00     0.210 C 
ENDBRANCH  30  33
ENDBRANCH   1  27
TORSDOF 6
ENDMDL
MODEL 6
REMARK VINA RESULT:      -8.6      3.332      4.580
REMARK  6 active torsions:
REMARK  status: ('A' for Active; 'I' for Inactive)
REMARK    1  A    between atoms: O_2  and  C_3 
REMARK    2  A    between atoms: C_6  and  C_7 
REMARK    3  A    between atoms: C_12  and  C_13 
REMARK       I    between atoms: C_13  and  N_14 
REMARK    4  A    between atoms: N_14  and  C_15 
REMARK    5  A    between atoms: C_17  and  O_18 
REMARK    6  A    between atoms: C_24  and  C_25 
ROOT
HETATM    1  C   UNL     1      27.129  43.970  51.930  1.00  0.00     0.118 C 
HETATM    2  N   UNL     1      27.204  44.889  50.793  1.00  0.00    -0.366 N 
HETATM    3  C   UNL     1      26.385  45.951  50.662  1.00  0.00     0.123 C 
HETATM    4  N   UNL     1      25.579  46.350  51.690  1.00  0.00    -0.240 N 
HETATM    5  N   UNL     1      24.680  47.290  51.349  1.00  0.00    -0.165 NA
HETATM    6  C   UNL     1      25.041  47.617  50.085  1.00  0.00     0.148 C 
HETATM    7  C   UNL     1      26.129  46.817  49.633  1.00  0.00     0.089 C 
HETATM    8  C   UNL     1      25.576  45.706  52.988  1.00  0.00     0.221 C 
HETATM    9  C   UNL     1      25.873  44.216  52.794  1.00  0.00     0.066 C 
HETATM   10  H   UNL     1      27.825  44.600  50.037  1.00  0.00     0.161 HD
ENDROOT
BRANCH   6  11
HETATM   11  C   UNL     1      24.312  48.637  49.309  1.00  0.00     0.276 C 
HETATM   12  N   UNL     1      22.953  48.580  49.549  1.00  0.00    -0.322 N 
HETATM   13  H   UNL     1      22.692  47.848  50.205  1.00  0.00     0.169 HD
HETATM   14  O   UNL     1      24.889  49.386  48.529  1.00  0.00    -0.266 OA
BRANCH  12  15
HETATM   15  C   UNL     1      21.928  49.338  48.961  1.00  0.00     0.037 A 
HETATM   16  C   UNL     1      21.081  48.853  47.962  1.00  0.00     0.066 A 
HETATM   17  C   UNL     1      20.087  49.679  47.438  1.00  0.00     0.067 A 
HETATM   18  C   UNL     1      19.916  50.978  47.899  1.00  0.00     0.036 A 
HETATM   19  C   UNL     1      20.756  51.468  48.894  1.00  0.00     0.005 A 
HETATM   20  C   UNL     1      21.763  50.652  49.418  1.00  0.00     0.029 A 
BRANCH  17  21
HETATM   21  O   UNL     1      19.251  49.241  46.452  1.00  0.00    -0.361 OA
HETATM   22  H   UNL     1      18.337  49.444  46.714  1.00  0.00     0.217 HD
ENDBRANCH  17  21
ENDBRANCH  12  15
ENDBRANCH   6  11
BRANCH   8  23
HETATM   23  C   UNL     1      26.562  46.385  53.909  1.00  0.00     0.409 C 
HETATM   24  F   UNL     1      27.299  47.321  53.271  1.00  0.00    -0.169 F 
HETATM   25  F   UNL     1      25.892  47.030  54.898  1.00  0.00    -0.169 F 
HETATM   26  F   UNL     1      27.414  45.533  54.516  1.00  0.00    -0.169 F 
ENDBRANCH   8  23
BRANCH   1  27
HETATM   27  C   UNL     1      27.118  42.535  51.426  1.00  0.00    -0.035 A 
HETATM   28  C   UNL     1      25.988  42.015  50.783  1.00  0.00     0.012 A 
HETATM   29  C   UNL     1      26.013  40.726  50.243  1.00  0.00     0.037 A 
HETATM   30  C   UNL     1      27.166  39.941  50.320  1.00  0.00     0.068 A 
HETATM   31  C   UNL     1      28.285  40.436  50.987  1.00  0.00     0.037 A 
HETATM   32  C   UNL     1      28.261  41.723  51.532  1.00  0.00     0.012 A 
BRANCH  30  33
HETATM   33  O   UNL     1      27.077  38.716  49.720  1.00  0.00    -0.356 OA
HETATM   34  C   UNL     1      28.170  38.350  48.883  1.00  0.00     0.210 C 
ENDBRANCH  30  33
ENDBRANCH   1  27
TORSDOF 6
ENDMDL
MODEL 7
REMARK VINA RESULT:      -8.5      3.326      4.678
REMARK  6 active torsions:
REMARK  status: ('A' for Active; 'I' for Inactive)
REMARK    1  A    between atoms: O_2  and  C_3 
REMARK    2  A    between atoms: C_6  and  C_7 
REMARK    3  A    between atoms: C_12  and  C_13 
REMARK       I    between atoms: C_13  and  N_14 
REMARK    4  A    between atoms: N_14  and  C_15 
REMARK    5  A    between atoms: C_17  and  O_18 
REMARK    6  A    between atoms: C_24  and  C_25 
ROOT
HETATM    1  C   UNL     1      26.540  46.095  50.099  1.00  0.00     0.118 C 
HETATM    2  N   UNL     1      25.269  45.878  49.406  1.00  0.00    -0.366 N 
HETATM    3  C   UNL     1      24.338  46.843  49.277  1.00  0.00     0.123 C 
HETATM    4  N   UNL     1      24.617  48.140  49.602  1.00  0.00    -0.240 N 
HETATM    5  N   UNL     1      23.543  48.947  49.613  1.00  0.00    -0.165 NA
HETATM    6  C   UNL     1      22.561  48.158  49.114  1.00  0.00     0.148 C 
HETATM    7  C   UNL     1      23.033  46.838  48.863  1.00  0.00     0.089 C 
HETATM    8  C   UNL     1      25.922  48.578  50.056  1.00  0.00     0.221 C 
HETATM    9  C   UNL     1      26.567  47.441  50.856  1.00  0.00     0.066 C 
HETATM   10  H   UNL     1      25.073  44.912  49.143  1.00  0.00     0.161 HD
ENDROOT
BRANCH   6  11
HETATM   11  C   UNL     1      21.181  48.651  48.943  1.00  0.00     0.276 C 
HETATM   12  N   UNL     1      21.140  50.030  48.884  1.00  0.00    -0.322 N 
HETATM   13  H   UNL     1      22.056  50.463  48.975  1.00  0.00     0.169 HD
HETATM   14  O   UNL     1      20.224  47.886  48.909  1.00  0.00    -0.266 OA
BRANCH  12  15
HETATM   15  C   UNL     1      20.019  50.869  48.787  1.00  0.00     0.037 A 
HETATM   16  C   UNL     1      19.437  51.250  47.576  1.00  0.00     0.066 A 
HETATM   17  C   UNL     1      18.321  52.086  47.579  1.00  0.00     0.067 A 
HETATM   18  C   UNL     1      17.767  52.542  48.769  1.00  0.00     0.036 A 
HETATM   19  C   UNL     1      18.341  52.166  49.979  1.00  0.00     0.005 A 
HETATM   20  C   UNL     1      19.467  51.338  49.987  1.00  0.00     0.029 A 
BRANCH  17  21
HETATM   21  O   UNL     1      17.736  52.488  46.412  1.00  0.00    -0.361 OA
HETATM   22  H   UNL     1      18.424  52.539  45.727  1.00  0.00     0.217 HD
ENDBRANCH  17  21
ENDBRANCH  12  15
ENDBRANCH   6  11
BRANCH   8  23
HETATM   23  C   UNL     1      26.762  49.016  48.880  1.00  0.00     0.409 C 
HETATM   24  F   UNL     1      27.475  50.133  49.146  1.00  0.00    -0.169 F 
HETATM   25  F   UNL     1      27.665  48.046  48.578  1.00  0.00    -0.169 F 
HETATM   26  F   UNL     1      26.050  49.239  47.756  1.00  0.00    -0.169 F 
ENDBRANCH   8  23
BRANCH   1  27
HETATM   27  C   UNL     1      26.785  44.961  51.082  1.00  0.00    -0.035 A 
HETATM   28  C   UNL     1      27.276  43.728  50.638  1.00  0.00     0.012 A 
HETATM   29  C   UNL     1      27.583  42.718  51.555  1.00  0.00     0.037 A 
HETATM   30  C   UNL     1      27.422  42.925  52.926  1.00  0.00     0.068 A 
HETATM   31  C   UNL     1      26.900  44.136  53.377  1.00  0.00     0.037 A 
HETATM   32  C   UNL     1      26.588  45.146  52.462  1.00  0.00     0.012 A 
BRANCH  30  33
HETATM   33  O   UNL     1      27.793  41.877  53.722  1.00  0.00    -0.356 OA
HETATM   34  C   UNL     1      28.629  40.897  53.113  1.00  0.00     0.210 C 
ENDBRANCH  30  33
ENDBRANCH   1  27
TORSDOF 6
ENDMDL
MODEL 8
REMARK VINA RESULT:      -8.3      6.071     12.921
REMARK  6 active torsions:
REMARK  status: ('A' for Active; 'I' for Inactive)
REMARK    1  A    between atoms: O_2  and  C_3 
REMARK    2  A    between atoms: C_6  and  C_7 
REMARK    3  A    between atoms: C_12  and  C_13 
REMARK       I    between atoms: C_13  and  N_14 
REMARK    4  A    between atoms: N_14  and  C_15 
REMARK    5  A    between atoms: C_17  and  O_18 
REMARK    6  A    between atoms: C_24  and  C_25 
ROOT
HETATM    1  C   UNL     1      17.564  51.127  45.703  1.00  0.00     0.118 C 
HETATM    2  N   UNL     1      18.693  50.231  45.960  1.00  0.00    -0.366 N 
HETATM    3  C   UNL     1      19.522  50.391  47.010  1.00  0.00     0.123 C 
HETATM    4  N   UNL     1      19.229  51.272  48.012  1.00  0.00    -0.240 N 
HETATM    5  N   UNL     1      20.235  51.468  48.882  1.00  0.00    -0.165 NA
HETATM    6  C   UNL     1      21.153  50.547  48.503  1.00  0.00     0.148 C 
HETATM    7  C   UNL     1      20.724  49.831  47.350  1.00  0.00     0.089 C 
HETATM    8  C   UNL     1      18.008  52.051  48.047  1.00  0.00     0.221 C 
HETATM    9  C   UNL     1      17.596  52.378  46.609  1.00  0.00     0.066 C 
HETATM   10  H   UNL     1      18.896  49.559  45.220  1.00  0.00     0.161 HD
ENDROOT
BRANCH   6  11
HETATM   11  C   UNL     1      22.442  50.403  49.204  1.00  0.00     0.276 C 
HETATM   12  N   UNL     1      23.306  49.577  48.512  1.00  0.00    -0.322 N 
HETATM   13  H   UNL     1      22.906  49.209  47.652  1.00  0.00     0.169 HD
HETATM   14  O   UNL     1      22.649  50.938  50.288  1.00  0.00    -0.266 OA
BRANCH  12  15
HETATM   15  C   UNL     1      24.591  49.150  48.880  1.00  0.00     0.037 A 
HETATM   16  C   UNL     1      25.766  49.792  48.481  1.00  0.00     0.066 A 
HETATM   17  C   UNL     1      27.000  49.296  48.898  1.00  0.00     0.067 A 
HETATM   18  C   UNL     1      27.086  48.175  49.715  1.00  0.00     0.036 A 
HETATM   19  C   UNL     1      25.920  47.530  50.116  1.00  0.00     0.005 A 
HETATM   20  C   UNL     1      24.678  48.012  49.694  1.00  0.00     0.029 A 
BRANCH  17  21
HETATM   21  O   UNL     1      28.168  49.892  48.516  1.00  0.00    -0.361 OA
HETATM   22  H   UNL     1      28.478  49.462  47.701  1.00  0.00     0.217 HD
ENDBRANCH  17  21
ENDBRANCH  12  15
ENDBRANCH   6  11
BRANCH   8  23
HETATM   23  C   UNL     1      16.936  51.306  48.809  1.00  0.00     0.409 C 
HETATM   24  F   UNL     1      15.950  50.858  48.001  1.00  0.00    -0.169 F 
HETATM   25  F   UNL     1      17.477  50.210  49.402  1.00  0.00    -0.169 F 
HETATM   26  F   UNL     1      16.365  52.032  49.792  1.00  0.00    -0.169 F 
ENDBRANCH   8  23
BRANCH   1  27
HETATM   27  C   UNL     1      17.578  51.561  44.246  1.00  0.00    -0.035 A 
HETATM   28  C   UNL     1      16.817  52.657  43.823  1.00  0.00     0.012 A 
HETATM   29  C   UNL     1      16.901  53.108  42.502  1.00  0.00     0.037 A 
HETATM   30  C   UNL     1      17.753  52.486  41.588  1.00  0.00     0.068 A 
HETATM   31  C   UNL     1      18.488  51.372  41.989  1.00  0.00     0.037 A 
HETATM   32  C   UNL     1      18.403  50.916  43.307  1.00  0.00     0.012 A 
BRANCH  30  33
HETATM   33  O   UNL     1      17.775  53.043  40.339  1.00  0.00    -0.356 OA
HETATM   34  C   UNL     1      16.743  53.983  40.057  1.00  0.00     0.210 C 
ENDBRANCH  30  33
ENDBRANCH   1  27
TORSDOF 6
ENDMDL
MODEL 9
REMARK VINA RESULT:      -8.2     12.773     15.541
REMARK  6 active torsions:
REMARK  status: ('A' for Active; 'I' for Inactive)
REMARK    1  A    between atoms: O_2  and  C_3 
REMARK    2  A    between atoms: C_6  and  C_7 
REMARK    3  A    between atoms: C_12  and  C_13 
REMARK       I    between atoms: C_13  and  N_14 
REMARK    4  A    between atoms: N_14  and  C_15 
REMARK    5  A    between atoms: C_17  and  O_18 
REMARK    6  A    between atoms: C_24  and  C_25 
ROOT
HETATM    1  C   UNL     1      29.566  50.373  40.936  1.00  0.00     0.118 C 
HETATM    2  N   UNL     1      30.505  50.123  42.031  1.00  0.00    -0.366 N 
HETATM    3  C   UNL     1      31.727  50.690  42.084  1.00  0.00     0.123 C 
HETATM    4  N   UNL     1      32.076  51.694  41.227  1.00  0.00    -0.240 N 
HETATM    5  N   UNL     1      33.379  52.020  41.264  1.00  0.00    -0.165 NA
HETATM    6  C   UNL     1      33.847  51.296  42.309  1.00  0.00     0.148 C 
HETATM    7  C   UNL     1      32.828  50.473  42.868  1.00  0.00     0.089 C 
HETATM    8  C   UNL     1      31.164  52.250  40.247  1.00  0.00     0.221 C 
HETATM    9  C   UNL     1      30.226  51.137  39.767  1.00  0.00     0.066 C 
HETATM   10  H   UNL     1      30.232  49.388  42.683  1.00  0.00     0.161 HD
ENDROOT
BRANCH   6  11
HETATM   11  C   UNL     1      35.262  51.353  42.721  1.00  0.00     0.276 C 
HETATM   12  N   UNL     1      35.531  52.493  43.454  1.00  0.00    -0.322 N 
HETATM   13  H   UNL     1      34.718  53.092  43.576  1.00  0.00     0.169 HD
HETATM   14  O   UNL     1      36.066  50.490  42.385  1.00  0.00    -0.266 OA
BRANCH  12  15
HETATM   15  C   UNL     1      36.761  52.933  43.967  1.00  0.00     0.037 A 
HETATM   16  C   UNL     1      37.370  52.386  45.098  1.00  0.00     0.066 A 
HETATM   17  C   UNL     1      38.596  52.888  45.533  1.00  0.00     0.067 A 
HETATM   18  C   UNL     1      39.232  53.920  44.855  1.00  0.00     0.036 A 
HETATM   19  C   UNL     1      38.631  54.470  43.727  1.00  0.00     0.005 A 
HETATM   20  C   UNL     1      37.397  53.983  43.289  1.00  0.00     0.029 A 
BRANCH  17  21
HETATM   21  O   UNL     1      39.212  52.385  46.643  1.00  0.00    -0.361 OA
HETATM   22  H   UNL     1      39.743  53.093  47.046  1.00  0.00     0.217 HD
ENDBRANCH  17  21
ENDBRANCH  12  15
ENDBRANCH   6  11
BRANCH   8  23
HETATM   23  C   UNL     1      30.422  53.427  40.835  1.00  0.00     0.409 C 
HETATM   24  F   UNL     1      30.234  53.303  42.167  1.00  0.00    -0.169 F 
HETATM   25  F   UNL     1      31.149  54.560  40.652  1.00  0.00    -0.169 F 
HETATM   26  F   UNL     1      29.218  53.649  40.267  1.00  0.00    -0.169 F 
ENDBRANCH   8  23
BRANCH   1  27
HETATM   27  C   UNL     1      29.015  49.051  40.425  1.00  0.00    -0.035 A 
HETATM   28  C   UNL     1      29.848  47.932  40.306  1.00  0.00     0.012 A 
HETATM   29  C   UNL     1      29.320  46.696  39.920  1.00  0.00     0.037 A 
HETATM   30  C   UNL     1      27.955  46.552  39.662  1.00  0.00     0.068 A 
HETATM   31  C   UNL     1      27.123  47.667  39.744  1.00  0.00     0.037 A 
HETATM   32  C   UNL     1      27.650  48.904  40.125  1.00  0.00     0.012 A 
BRANCH  30  33
HETATM   33  O   UNL     1      27.555  45.287  39.332  1.00  0.00    -0.356 OA
HETATM   34  C   UNL     1      27.629  44.317  40.372  1.00  0.00     0.210 C 
ENDBRANCH  30  33
ENDBRANCH   1  27
TORSDOF 6
ENDMDL
MODEL 10
REMARK VINA RESULT:      -8.2      4.680      7.878
REMARK  6 active torsions:
REMARK  status: ('A' for Active; 'I' for Inactive)
REMARK    1  A    between atoms: O_2  and  C_3 
REMARK    2  A    between atoms: C_6  and  C_7 
REMARK    3  A    between atoms: C_12  and  C_13 
REMARK       I    between atoms: C_13  and  N_14 
REMARK    4  A    between atoms: N_14  and  C_15 
REMARK    5  A    between atoms: C_17  and  O_18 
REMARK    6  A    between atoms: C_24  and  C_25 
ROOT
HETATM    1  C   UNL     1      27.557  44.467  52.674  1.00  0.00     0.118 C 
HETATM    2  N   UNL     1      28.044  43.754  51.492  1.00  0.00    -0.366 N 
HETATM    3  C   UNL     1      27.267  42.918  50.777  1.00  0.00     0.123 C 
HETATM    4  N   UNL     1      25.919  42.852  50.990  1.00  0.00    -0.240 N 
HETATM    5  N   UNL     1      25.310  41.840  50.349  1.00  0.00    -0.165 NA
HETATM    6  C   UNL     1      26.294  41.337  49.565  1.00  0.00     0.148 C 
HETATM    7  C   UNL     1      27.529  42.011  49.785  1.00  0.00     0.089 C 
HETATM    8  C   UNL     1      25.229  43.692  51.949  1.00  0.00     0.221 C 
HETATM    9  C   UNL     1      26.170  43.962  53.127  1.00  0.00     0.066 C 
HETATM   10  H   UNL     1      29.048  43.823  51.322  1.00  0.00     0.161 HD
ENDROOT
BRANCH   6  11
HETATM   11  C   UNL     1      26.060  40.190  48.668  1.00  0.00     0.276 C 
HETATM   12  N   UNL     1      27.179  39.385  48.573  1.00  0.00    -0.322 N 
HETATM   13  H   UNL     1      27.963  39.722  49.126  1.00  0.00     0.169 HD
HETATM   14  O   UNL     1      24.999  40.045  48.070  1.00  0.00    -0.266 OA
BRANCH  12  15
HETATM   15  C   UNL     1      27.371  38.244  47.779  1.00  0.00     0.037 A 
HETATM   16  C   UNL     1      26.914  36.971  48.128  1.00  0.00     0.066 A 
HETATM   17  C   UNL     1      27.150  35.895  47.273  1.00  0.00     0.067 A 
HETATM   18  C   UNL     1      27.824  36.066  46.071  1.00  0.00     0.036 A 
HETATM   19  C   UNL     1      28.282  37.331  45.716  1.00  0.00     0.005 A 
HETATM   20  C   UNL     1      28.062  38.414  46.571  1.00  0.00     0.029 A 
BRANCH  17  21
HETATM   21  O   UNL     1      26.728  34.635  47.590  1.00  0.00    -0.361 OA
HETATM   22  H   UNL     1      27.249  34.320  48.349  1.00  0.00     0.217 HD
ENDBRANCH  17  21
ENDBRANCH  12  15
ENDBRANCH   6  11
BRANCH   8  23
HETATM   23  C   UNL     1      24.749  44.959  51.281  1.00  0.00     0.409 C 
HETATM   24  F   UNL     1      25.472  45.265  50.181  1.00  0.00    -0.169 F 
HETATM   25  F   UNL     1      23.466  44.797  50.865  1.00  0.00    -0.169 F 
HETATM   26  F   UNL     1      24.756  46.037  52.092  1.00  0.00    -0.169 F 
ENDBRANCH   8  23
BRANCH   1  27
HETATM   27  C   UNL     1      28.549  44.301  53.815  1.00  0.00    -0.035 A 
HETATM   28  C   UNL     1      29.492  43.266  53.793  1.00  0.00     0.012 A 
HETATM   29  C   UNL     1      30.458  43.170  54.799  1.00  0.00     0.037 A 
HETATM   30  C   UNL     1      30.512  44.109  55.831  1.00  0.00     0.068 A 
HETATM   31  C   UNL     1      29.557  45.122  55.881  1.00  0.00     0.037 A 
HETATM   32  C   UNL     1      28.586  45.219  54.880  1.00  0.00     0.012 A 
BRANCH  30  33
HETATM   33  O   UNL     1      31.525  43.929  56.730  1.00  0.00    -0.356 OA
HETATM   34  C   UNL     1      31.340  44.530  58.008  1.00  0.00     0.210 C 
ENDBRANCH  30  33
ENDBRANCH   1  27
TORSDOF 6
ENDMDL
