MODEL 1
REMARK VINA RESULT:     -10.0      0.000      0.000
REMARK  5 active torsions:
REMARK  status: ('A' for Active; 'I' for Inactive)
REMARK    1  A    between atoms: C_7  and  C_8 
REMARK    2  A    between atoms: N_9  and  N_10 
REMARK       I    between atoms: N_10  and  C_11 
REMARK    3  A    between atoms: C_11  and  C_12 
REMARK    4  A    between atoms: C_12  and  N_13 
REMARK       I    between atoms: N_13  and  C_14 
REMARK    5  A    between atoms: C_14  and  C_15 
ROOT
HETATM    1  N   UNL     1      26.279  44.954  50.865  1.00  0.00    -0.246 N 
HETATM    2  C   UNL     1      26.797  43.733  50.463  1.00  0.00     0.255 C 
HETATM    3  O   UNL     1      27.039  43.406  49.302  1.00  0.00    -0.270 OA
HETATM    4  H   UNL     1      25.992  45.073  51.839  1.00  0.00     0.192 HD
ENDROOT
BRANCH   1   5
HETATM    5  N   UNL     1      26.009  45.926  49.948  1.00  0.00    -0.184 NA
HETATM    6  C   UNL     1      25.912  47.124  50.427  1.00  0.00     0.153 C 
BRANCH   6   7
HETATM    7  C   UNL     1      25.600  48.241  49.554  1.00  0.00     0.018 A 
HETATM    8  C   UNL     1      26.499  49.138  48.989  1.00  0.00     0.018 A 
HETATM    9  C   UNL     1      27.980  49.237  49.095  1.00  0.00     0.069 C 
HETATM   10  N   UNL     1      25.782  50.022  48.222  1.00  0.00    -0.358 N 
HETATM   11  H   UNL     1      26.181  50.783  47.690  1.00  0.00     0.166 HD
HETATM   12  C   UNL     1      24.441  49.732  48.272  1.00  0.00     0.043 A 
HETATM   13  C   UNL     1      24.292  48.622  49.103  1.00  0.00     0.004 A 
HETATM   14  C   UNL     1      23.359  50.367  47.648  1.00  0.00     0.030 A 
HETATM   15  C   UNL     1      22.989  48.125  49.325  1.00  0.00     0.014 A 
HETATM   16  C   UNL     1      21.895  48.750  48.713  1.00  0.00     0.001 A 
HETATM   17  C   UNL     1      22.081  49.854  47.886  1.00  0.00     0.002 A 
ENDBRANCH   6   7
ENDBRANCH   1   5
BRANCH   2  18
HETATM   18  C   UNL     1      26.939  42.732  51.614  1.00  0.00     0.227 C 
BRANCH  18  19
HETATM   19  N   UNL     1      27.466  43.302  52.850  1.00  0.00    -0.348 N 
HETATM   20  C   UNL     1      28.811  43.291  53.140  1.00  0.00     0.252 C 
HETATM   21  O   UNL     1      29.603  42.660  52.444  1.00  0.00    -0.268 OA
HETATM   22  H   UNL     1      26.789  43.618  53.529  1.00  0.00     0.163 HD
BRANCH  20  23
HETATM   23  C   UNL     1      29.282  44.012  54.358  1.00  0.00     0.033 A 
HETATM   24  C   UNL     1      30.307  43.418  55.109  1.00  0.00     0.041 A 
HETATM   25  C   UNL     1      30.798  44.053  56.249  1.00  0.00     0.035 A 
HETATM   26 CL   UNL     1      32.060  43.318  57.159  1.00  0.00    -0.084 Cl
HETATM   27  C   UNL     1      30.279  45.279  56.654  1.00  0.00     0.024 A 
HETATM   28  C   UNL     1      29.266  45.881  55.909  1.00  0.00     0.003 A 
HETATM   29  C   UNL     1      28.770  45.254  54.761  1.00  0.00     0.017 A 
ENDBRANCH  20  23
ENDBRANCH  18  19
ENDBRANCH   2  18
TORSDOF 5
ENDMDL
MODEL 2
REMARK VINA RESULT:     -10.0      3.421      8.848
REMARK  5 active torsions:
REMARK  status: ('A' for Active; 'I' for Inactive)
REMARK    1  A    between atoms: C_7  and  C_8 
REMARK    2  A    between atoms: N_9  and  N_10 
REMARK       I    between atoms: N_10  and  C_11 
REMARK    3  A    between atoms: C_11  and  C_12 
REMARK    4  A    between atoms: C_12  and  N_13 
REMARK       I    between atoms: N_13  and  C_14 
REMARK    5  A    between atoms: C_14  and  C_15 
ROOT
HETATM    1  N   UNL     1      25.674  44.314  53.094  1.00  0.00    -0.246 N 
HETATM    2  C   UNL     1      25.446  43.891  51.793  1.00  0.00     0.255 C 
HETATM    3  O   UNL     1      26.156  43.111  51.160  1.00  0.00    -0.270 OA
HETATM    4  H   UNL     1      25.096  45.065  53.477  1.00  0.00     0.192 HD
ENDROOT
BRANCH   1   5
HETATM    5  N   UNL     1      26.748  43.850  53.794  1.00  0.00    -0.184 NA
HETATM    6  C   UNL     1      27.730  44.683  53.913  1.00  0.00     0.153 C 
BRANCH   6   7
HETATM    7  C   UNL     1      28.941  44.295  54.613  1.00  0.00     0.018 A 
HETATM    8  C   UNL     1      29.883  43.360  54.201  1.00  0.00     0.018 A 
HETATM    9  C   UNL     1      29.947  42.506  52.983  1.00  0.00     0.069 C 
HETATM   10  N   UNL     1      30.873  43.315  55.151  1.00  0.00    -0.358 N 
HETATM   11  H   UNL     1      31.690  42.724  55.108  1.00  0.00     0.166 HD
HETATM   12  C   UNL     1      30.603  44.191  56.174  1.00  0.00     0.043 A 
HETATM   13  C   UNL     1      29.396  44.819  55.870  1.00  0.00     0.004 A 
HETATM   14  C   UNL     1      31.334  44.469  57.337  1.00  0.00     0.030 A 
HETATM   15  C   UNL     1      28.891  45.772  56.782  1.00  0.00     0.014 A 
HETATM   16  C   UNL     1      29.606  46.058  57.951  1.00  0.00     0.001 A 
HETATM   17  C   UNL     1      30.810  45.415  58.221  1.00  0.00     0.002 A 
ENDBRANCH   6   7
ENDBRANCH   1   5
BRANCH   2  18
HETATM   18  C   UNL     1      24.257  44.594  51.132  1.00  0.00     0.227 C 
BRANCH  18  19
HETATM   19  N   UNL     1      24.618  45.729  50.288  1.00  0.00    -0.348 N 
HETATM   20  C   UNL     1      25.052  46.922  50.821  1.00  0.00     0.252 C 
HETATM   21  O   UNL     1      25.000  47.131  52.031  1.00  0.00    -0.268 OA
HETATM   22  H   UNL     1      24.441  45.634  49.299  1.00  0.00     0.163 HD
BRANCH  20  23
HETATM   23  C   UNL     1      25.528  47.985  49.889  1.00  0.00     0.033 A 
HETATM   24  C   UNL     1      24.557  48.750  49.226  1.00  0.00     0.041 A 
HETATM   25  C   UNL     1      24.942  49.768  48.354  1.00  0.00     0.035 A 
HETATM   26 CL   UNL     1      23.743  50.703  47.551  1.00  0.00    -0.084 Cl
HETATM   27  C   UNL     1      26.290  50.037  48.133  1.00  0.00     0.024 A 
HETATM   28  C   UNL     1      27.262  49.287  48.795  1.00  0.00     0.003 A 
HETATM   29  C   UNL     1      26.885  48.267  49.675  1.00  0.00     0.017 A 
ENDBRANCH  20  23
ENDBRANCH  18  19
ENDBRANCH   2  18
TORSDOF 5
ENDMDL
MODEL 3
REMARK VINA RESULT:      -9.7      4.665     10.118
REMARK  5 active torsions:
REMARK  status: ('A' for Active; 'I' for Inactive)
REMARK    1  A    between atoms: C_7  and  C_8 
REMARK    2  A    between atoms: N_9  and  N_10 
REMARK       I    between atoms: N_10  and  C_11 
REMARK    3  A    between atoms: C_11  and  C_12 
REMARK    4  A    between atoms: C_12  and  N_13 
REMARK       I    between atoms: N_13  and  C_14 
REMARK    5  A    between atoms: C_14  and  C_15 
ROOT
HETATM    1  N   UNL     1      25.019  46.607  51.439  1.00  0.00    -0.246 N 
HETATM    2  C   UNL     1      24.951  47.381  50.291  1.00  0.00     0.255 C 
HETATM    3  O   UNL     1      25.722  48.293  49.997  1.00  0.00    -0.270 OA
HETATM    4  H   UNL     1      24.251  45.966  51.649  1.00  0.00     0.192 HD
ENDROOT
BRANCH   1   5
HETATM    5  N   UNL     1      26.010  46.810  52.353  1.00  0.00    -0.184 NA
HETATM    6  C   UNL     1      26.258  45.807  53.130  1.00  0.00     0.153 C 
BRANCH   6   7
HETATM    7  C   UNL     1      27.273  45.910  54.163  1.00  0.00     0.018 A 
HETATM    8  C   UNL     1      27.386  46.903  55.129  1.00  0.00     0.018 A 
HETATM    9  C   UNL     1      26.553  48.107  55.396  1.00  0.00     0.069 C 
HETATM   10  N   UNL     1      28.475  46.606  55.909  1.00  0.00    -0.358 N 
HETATM   11  H   UNL     1      28.792  47.157  56.694  1.00  0.00     0.166 HD
HETATM   12  C   UNL     1      29.080  45.450  55.479  1.00  0.00     0.043 A 
HETATM   13  C   UNL     1      28.352  44.990  54.382  1.00  0.00     0.004 A 
HETATM   14  C   UNL     1      30.208  44.786  55.977  1.00  0.00     0.030 A 
HETATM   15  C   UNL     1      28.782  43.804  53.746  1.00  0.00     0.014 A 
HETATM   16  C   UNL     1      29.911  43.130  54.228  1.00  0.00     0.001 A 
HETATM   17  C   UNL     1      30.611  43.616  55.329  1.00  0.00     0.002 A 
ENDBRANCH   6   7
ENDBRANCH   1   5
BRANCH   2  18
HETATM   18  C   UNL     1      23.716  47.081  49.436  1.00  0.00     0.227 C 
BRANCH  18  19
HETATM   19  N   UNL     1      22.675  48.102  49.499  1.00  0.00    -0.348 N 
HETATM   20  C   UNL     1      22.546  49.069  48.529  1.00  0.00     0.252 C 
HETATM   21  O   UNL     1      23.400  49.209  47.656  1.00  0.00    -0.268 OA
HETATM   22  H   UNL     1      22.113  48.126  50.337  1.00  0.00     0.163 HD
BRANCH  20  23
HETATM   23  C   UNL     1      21.375  49.992  48.596  1.00  0.00     0.033 A 
HETATM   24  C   UNL     1      20.551  50.079  47.464  1.00  0.00     0.041 A 
HETATM   25  C   UNL     1      19.434  50.913  47.473  1.00  0.00     0.035 A 
HETATM   26 CL   UNL     1      18.427  51.008  46.082  1.00  0.00    -0.084 Cl
HETATM   27  C   UNL     1      19.123  51.665  48.603  1.00  0.00     0.024 A 
HETATM   28  C   UNL     1      19.932  51.578  49.736  1.00  0.00     0.003 A 
HETATM   29  C   UNL     1      21.052  50.741  49.737  1.00  0.00     0.017 A 
ENDBRANCH  20  23
ENDBRANCH  18  19
ENDBRANCH   2  18
TORSDOF 5
ENDMDL
MODEL 4
REMARK VINA RESULT:      -9.1      3.351      8.856
REMARK  5 active torsions:
REMARK  status: ('A' for Active; 'I' for Inactive)
REMARK    1  A    between atoms: C_7  and  C_8 
REMARK    2  A    between atoms: N_9  and  N_10 
REMARK       I    between atoms: N_10  and  C_11 
REMARK    3  A    between atoms: C_11  and  C_12 
REMARK    4  A    between atoms: C_12  and  N_13 
REMARK       I    between atoms: N_13  and  C_14 
REMARK    5  A    between atoms: C_14  and  C_15 
ROOT
HETATM    1  N   UNL     1      26.453  44.526  52.749  1.00  0.00    -0.246 N 
HETATM    2  C   UNL     1      27.091  43.859  51.714  1.00  0.00     0.255 C 
HETATM    3  O   UNL     1      28.172  43.278  51.796  1.00  0.00    -0.270 OA
HETATM    4  H   UNL     1      25.624  45.086  52.540  1.00  0.00     0.192 HD
ENDROOT
BRANCH   1   5
HETATM    5  N   UNL     1      27.008  44.563  53.994  1.00  0.00    -0.184 NA
HETATM    6  C   UNL     1      27.874  45.505  54.183  1.00  0.00     0.153 C 
BRANCH   6   7
HETATM    7  C   UNL     1      28.555  45.631  55.459  1.00  0.00     0.018 A 
HETATM    8  C   UNL     1      28.277  46.545  56.469  1.00  0.00     0.018 A 
HETATM    9  C   UNL     1      27.255  47.623  56.559  1.00  0.00     0.069 C 
HETATM   10  N   UNL     1      29.147  46.304  57.502  1.00  0.00    -0.358 N 
HETATM   11  H   UNL     1      29.169  46.818  58.372  1.00  0.00     0.166 HD
HETATM   12  C   UNL     1      29.989  45.263  57.196  1.00  0.00     0.043 A 
HETATM   13  C   UNL     1      29.646  44.821  55.919  1.00  0.00     0.004 A 
HETATM   14  C   UNL     1      31.019  44.687  57.950  1.00  0.00     0.030 A 
HETATM   15  C   UNL     1      30.380  43.748  55.365  1.00  0.00     0.014 A 
HETATM   16  C   UNL     1      31.416  43.164  56.104  1.00  0.00     0.001 A 
HETATM   17  C   UNL     1      31.728  43.628  57.378  1.00  0.00     0.002 A 
ENDBRANCH   6   7
ENDBRANCH   1   5
BRANCH   2  18
HETATM   18  C   UNL     1      26.373  44.010  50.370  1.00  0.00     0.227 C 
BRANCH  18  19
HETATM   19  N   UNL     1      26.523  45.323  49.748  1.00  0.00    -0.348 N 
HETATM   20  C   UNL     1      25.677  46.368  50.044  1.00  0.00     0.252 C 
HETATM   21  O   UNL     1      24.666  46.192  50.720  1.00  0.00    -0.268 OA
HETATM   22  H   UNL     1      27.215  45.403  49.018  1.00  0.00     0.163 HD
BRANCH  20  23
HETATM   23  C   UNL     1      25.979  47.711  49.469  1.00  0.00     0.033 A 
HETATM   24  C   UNL     1      24.897  48.485  49.024  1.00  0.00     0.041 A 
HETATM   25  C   UNL     1      25.117  49.755  48.492  1.00  0.00     0.035 A 
HETATM   26 CL   UNL     1      23.782  50.698  47.954  1.00  0.00    -0.084 Cl
HETATM   27  C   UNL     1      26.407  50.268  48.397  1.00  0.00     0.024 A 
HETATM   28  C   UNL     1      27.488  49.509  48.845  1.00  0.00     0.003 A 
HETATM   29  C   UNL     1      27.277  48.236  49.385  1.00  0.00     0.017 A 
ENDBRANCH  20  23
ENDBRANCH  18  19
ENDBRANCH   2  18
TORSDOF 5
ENDMDL
MODEL 5
REMARK VINA RESULT:      -9.1      1.746      2.362
REMARK  5 active torsions:
REMARK  status: ('A' for Active; 'I' for Inactive)
REMARK    1  A    between atoms: C_7  and  C_8 
REMARK    2  A    between atoms: N_9  and  N_10 
REMARK       I    between atoms: N_10  and  C_11 
REMARK    3  A    between atoms: C_11  and  C_12 
REMARK    4  A    between atoms: C_12  and  N_13 
REMARK       I    between atoms: N_13  and  C_14 
REMARK    5  A    between atoms: C_14  and  C_15 
ROOT
HETATM    1  N   UNL     1      25.410  46.377  50.734  1.00  0.00    -0.246 N 
HETATM    2  C   UNL     1      26.507  45.743  50.171  1.00  0.00     0.255 C 
HETATM    3  O   UNL     1      27.204  46.191  49.263  1.00  0.00    -0.270 OA
HETATM    4  H   UNL     1      24.823  45.859  51.391  1.00  0.00     0.192 HD
ENDROOT
BRANCH   1   5
HETATM    5  N   UNL     1      25.029  47.614  50.303  1.00  0.00    -0.184 NA
HETATM    6  C   UNL     1      24.021  47.629  49.494  1.00  0.00     0.153 C 
BRANCH   6   7
HETATM    7  C   UNL     1      23.539  48.883  48.944  1.00  0.00     0.018 A 
HETATM    8  C   UNL     1      24.294  49.864  48.312  1.00  0.00     0.018 A 
HETATM    9  C   UNL     1      25.751  49.940  48.017  1.00  0.00     0.069 C 
HETATM   10  N   UNL     1      23.441  50.871  47.935  1.00  0.00    -0.358 N 
HETATM   11  H   UNL     1      23.717  51.713  47.450  1.00  0.00     0.166 HD
HETATM   12  C   UNL     1      22.151  50.579  48.306  1.00  0.00     0.043 A 
HETATM   13  C   UNL     1      22.179  49.340  48.945  1.00  0.00     0.004 A 
HETATM   14  C   UNL     1      20.974  51.316  48.124  1.00  0.00     0.030 A 
HETATM   15  C   UNL     1      20.962  48.814  49.433  1.00  0.00     0.014 A 
HETATM   16  C   UNL     1      19.776  49.539  49.264  1.00  0.00     0.001 A 
HETATM   17  C   UNL     1      19.785  50.772  48.617  1.00  0.00     0.002 A 
ENDBRANCH   6   7
ENDBRANCH   1   5
BRANCH   2  18
HETATM   18  C   UNL     1      26.721  44.324  50.708  1.00  0.00     0.227 C 
BRANCH  18  19
HETATM   19  N   UNL     1      27.798  44.203  51.685  1.00  0.00    -0.348 N 
HETATM   20  C   UNL     1      27.630  44.567  53.001  1.00  0.00     0.252 C 
HETATM   21  O   UNL     1      26.617  45.157  53.371  1.00  0.00    -0.268 OA
HETATM   22  H   UNL     1      28.704  43.932  51.331  1.00  0.00     0.163 HD
BRANCH  20  23
HETATM   23  C   UNL     1      28.735  44.287  53.963  1.00  0.00     0.033 A 
HETATM   24  C   UNL     1      28.868  45.141  55.068  1.00  0.00     0.041 A 
HETATM   25  C   UNL     1      29.873  44.920  56.009  1.00  0.00     0.035 A 
HETATM   26 CL   UNL     1      30.022  45.971  57.362  1.00  0.00    -0.084 Cl
HETATM   27  C   UNL     1      30.752  43.851  55.864  1.00  0.00     0.024 A 
HETATM   28  C   UNL     1      30.623  42.991  54.774  1.00  0.00     0.003 A 
HETATM   29  C   UNL     1      29.615  43.203  53.828  1.00  0.00     0.017 A 
ENDBRANCH  20  23
ENDBRANCH  18  19
ENDBRANCH   2  18
TORSDOF 5
ENDMDL
MODEL 6
REMARK VINA RESULT:      -9.0      4.750      8.393
REMARK  5 active torsions:
REMARK  status: ('A' for Active; 'I' for Inactive)
REMARK    1  A    between atoms: C_7  and  C_8 
REMARK    2  A    between atoms: N_9  and  N_10 
REMARK       I    between atoms: N_10  and  C_11 
REMARK    3  A    between atoms: C_11  and  C_12 
REMARK    4  A    between atoms: C_12  and  N_13 
REMARK       I    between atoms: N_13  and  C_14 
REMARK    5  A    between atoms: C_14  and  C_15 
ROOT
HETATM    1  N   UNL     1      26.838  43.498  52.330  1.00  0.00    -0.246 N 
HETATM    2  C   UNL     1      25.537  43.726  51.907  1.00  0.00     0.255 C 
HETATM    3  O   UNL     1      24.644  44.232  52.584  1.00  0.00    -0.270 OA
HETATM    4  H   UNL     1      27.463  42.951  51.734  1.00  0.00     0.192 HD
ENDROOT
BRANCH   1   5
HETATM    5  N   UNL     1      27.231  43.859  53.585  1.00  0.00    -0.184 NA
HETATM    6  C   UNL     1      28.103  44.813  53.637  1.00  0.00     0.153 C 
BRANCH   6   7
HETATM    7  C   UNL     1      28.620  45.267  54.915  1.00  0.00     0.018 A 
HETATM    8  C   UNL     1      28.201  46.376  55.640  1.00  0.00     0.018 A 
HETATM    9  C   UNL     1      27.154  47.394  55.354  1.00  0.00     0.069 C 
HETATM   10  N   UNL     1      28.943  46.427  56.793  1.00  0.00    -0.358 N 
HETATM   11  H   UNL     1      28.849  47.130  57.512  1.00  0.00     0.166 HD
HETATM   12  C   UNL     1      29.838  45.385  56.841  1.00  0.00     0.043 A 
HETATM   13  C   UNL     1      29.663  44.641  55.675  1.00  0.00     0.004 A 
HETATM   14  C   UNL     1      30.780  45.053  57.823  1.00  0.00     0.030 A 
HETATM   15  C   UNL     1      30.481  43.506  55.480  1.00  0.00     0.014 A 
HETATM   16  C   UNL     1      31.432  43.162  56.449  1.00  0.00     0.001 A 
HETATM   17  C   UNL     1      31.576  43.926  57.603  1.00  0.00     0.002 A 
ENDBRANCH   6   7
ENDBRANCH   1   5
BRANCH   2  18
HETATM   18  C   UNL     1      25.252  43.163  50.512  1.00  0.00     0.227 C 
BRANCH  18  19
HETATM   19  N   UNL     1      25.672  41.779  50.320  1.00  0.00    -0.348 N 
HETATM   20  C   UNL     1      26.689  41.440  49.456  1.00  0.00     0.252 C 
HETATM   21  O   UNL     1      27.175  42.272  48.693  1.00  0.00    -0.268 OA
HETATM   22  H   UNL     1      25.118  41.069  50.777  1.00  0.00     0.163 HD
BRANCH  20  23
HETATM   23  C   UNL     1      27.146  40.020  49.419  1.00  0.00     0.033 A 
HETATM   24  C   UNL     1      28.341  39.706  50.084  1.00  0.00     0.041 A 
HETATM   25  C   UNL     1      28.810  38.393  50.096  1.00  0.00     0.035 A 
HETATM   26 CL   UNL     1      30.273  38.017  50.920  1.00  0.00    -0.084 Cl
HETATM   27  C   UNL     1      28.102  37.383  49.451  1.00  0.00     0.024 A 
HETATM   28  C   UNL     1      26.909  37.685  48.795  1.00  0.00     0.003 A 
HETATM   29  C   UNL     1      26.428  38.998  48.781  1.00  0.00     0.017 A 
ENDBRANCH  20  23
ENDBRANCH  18  19
ENDBRANCH   2  18
TORSDOF 5
ENDMDL
MODEL 7
REMARK VINA RESULT:      -8.8      3.556      8.833
REMARK  5 active torsions:
REMARK  status: ('A' for Active; 'I' for Inactive)
REMARK    1  A    between atoms: C_7  and  C_8 
REMARK    2  A    between atoms: N_9  and  N_10 
REMARK       I    between atoms: N_10  and  C_11 
REMARK    3  A    between atoms: C_11  and  C_12 
REMARK    4  A    between atoms: C_12  and  N_13 
REMARK       I    between atoms: N_13  and  C_14 
REMARK    5  A    between atoms: C_14  and  C_15 
ROOT
HETATM    1  N   UNL     1      26.445  43.892  51.329  1.00  0.00    -0.246 N 
HETATM    2  C   UNL     1      26.561  44.234  49.990  1.00  0.00     0.255 C 
HETATM    3  O   UNL     1      27.417  44.978  49.514  1.00  0.00    -0.270 OA
HETATM    4  H   UNL     1      25.619  43.375  51.637  1.00  0.00     0.192 HD
ENDROOT
BRANCH   1   5
HETATM    5  N   UNL     1      27.334  44.371  52.245  1.00  0.00    -0.184 NA
HETATM    6  C   UNL     1      26.812  44.810  53.344  1.00  0.00     0.153 C 
BRANCH   6   7
HETATM    7  C   UNL     1      27.654  45.370  54.385  1.00  0.00     0.018 A 
HETATM    8  C   UNL     1      27.486  46.589  55.031  1.00  0.00     0.018 A 
HETATM    9  C   UNL     1      26.453  47.648  54.869  1.00  0.00     0.069 C 
HETATM   10  N   UNL     1      28.495  46.717  55.952  1.00  0.00    -0.358 N 
HETATM   11  H   UNL     1      28.618  47.507  56.570  1.00  0.00     0.166 HD
HETATM   12  C   UNL     1      29.319  45.619  55.926  1.00  0.00     0.043 A 
HETATM   13  C   UNL     1      28.821  44.756  54.950  1.00  0.00     0.004 A 
HETATM   14  C   UNL     1      30.459  45.331  56.687  1.00  0.00     0.030 A 
HETATM   15  C   UNL     1      29.507  43.542  54.720  1.00  0.00     0.014 A 
HETATM   16  C   UNL     1      30.650  43.241  55.470  1.00  0.00     0.001 A 
HETATM   17  C   UNL     1      31.117  44.123  56.439  1.00  0.00     0.002 A 
ENDBRANCH   6   7
ENDBRANCH   1   5
BRANCH   2  18
HETATM   18  C   UNL     1      25.417  43.689  49.130  1.00  0.00     0.227 C 
BRANCH  18  19
HETATM   19  N   UNL     1      24.485  44.704  48.649  1.00  0.00    -0.348 N 
HETATM   20  C   UNL     1      23.947  45.653  49.488  1.00  0.00     0.252 C 
HETATM   21  O   UNL     1      24.106  45.586  50.705  1.00  0.00    -0.268 OA
HETATM   22  H   UNL     1      24.175  44.619  47.692  1.00  0.00     0.163 HD
BRANCH  20  23
HETATM   23  C   UNL     1      23.108  46.735  48.893  1.00  0.00     0.033 A 
HETATM   24  C   UNL     1      23.283  48.036  49.386  1.00  0.00     0.041 A 
HETATM   25  C   UNL     1      22.538  49.090  48.859  1.00  0.00     0.035 A 
HETATM   26 CL   UNL     1      22.763  50.683  49.467  1.00  0.00    -0.084 Cl
HETATM   27  C   UNL     1      21.618  48.864  47.840  1.00  0.00     0.024 A 
HETATM   28  C   UNL     1      21.444  47.575  47.337  1.00  0.00     0.003 A 
HETATM   29  C   UNL     1      22.190  46.512  47.857  1.00  0.00     0.017 A 
ENDBRANCH  20  23
ENDBRANCH  18  19
ENDBRANCH   2  18
TORSDOF 5
ENDMDL
MODEL 8
REMARK VINA RESULT:      -8.7      3.939      9.545
REMARK  5 active torsions:
REMARK  status: ('A' for Active; 'I' for Inactive)
REMARK    1  A    between atoms: C_7  and  C_8 
REMARK    2  A    between atoms: N_9  and  N_10 
REMARK       I    between atoms: N_10  and  C_11 
REMARK    3  A    between atoms: C_11  and  C_12 
REMARK    4  A    between atoms: C_12  and  N_13 
REMARK       I    between atoms: N_13  and  C_14 
REMARK    5  A    between atoms: C_14  and  C_15 
ROOT
HETATM    1  N   UNL     1      25.528  44.894  51.481  1.00  0.00    -0.246 N 
HETATM    2  C   UNL     1      25.418  45.152  50.122  1.00  0.00     0.255 C 
HETATM    3  O   UNL     1      26.359  45.299  49.345  1.00  0.00    -0.270 OA
HETATM    4  H   UNL     1      24.686  44.922  52.059  1.00  0.00     0.192 HD
ENDROOT
BRANCH   1   5
HETATM    5  N   UNL     1      26.754  44.762  52.063  1.00  0.00    -0.184 NA
HETATM    6  C   UNL     1      26.871  43.768  52.882  1.00  0.00     0.153 C 
BRANCH   6   7
HETATM    7  C   UNL     1      28.120  43.540  53.586  1.00  0.00     0.018 A 
HETATM    8  C   UNL     1      28.987  42.466  53.424  1.00  0.00     0.018 A 
HETATM    9  C   UNL     1      28.915  41.277  52.532  1.00  0.00     0.069 C 
HETATM   10  N   UNL     1      30.049  42.654  54.272  1.00  0.00    -0.358 N 
HETATM   11  H   UNL     1      30.836  42.027  54.361  1.00  0.00     0.166 HD
HETATM   12  C   UNL     1      29.900  43.817  54.987  1.00  0.00     0.043 A 
HETATM   13  C   UNL     1      28.697  44.395  54.583  1.00  0.00     0.004 A 
HETATM   14  C   UNL     1      30.735  44.392  55.953  1.00  0.00     0.030 A 
HETATM   15  C   UNL     1      28.307  45.612  55.184  1.00  0.00     0.014 A 
HETATM   16  C   UNL     1      29.128  46.199  56.155  1.00  0.00     0.001 A 
HETATM   17  C   UNL     1      30.325  45.596  56.531  1.00  0.00     0.002 A 
ENDBRANCH   6   7
ENDBRANCH   1   5
BRANCH   2  18
HETATM   18  C   UNL     1      23.973  45.370  49.668  1.00  0.00     0.227 C 
BRANCH  18  19
HETATM   19  N   UNL     1      23.585  46.772  49.534  1.00  0.00    -0.348 N 
HETATM   20  C   UNL     1      22.641  47.180  48.620  1.00  0.00     0.252 C 
HETATM   21  O   UNL     1      22.202  46.406  47.773  1.00  0.00    -0.268 OA
HETATM   22  H   UNL     1      24.113  47.442  50.074  1.00  0.00     0.163 HD
BRANCH  20  23
HETATM   23  C   UNL     1      22.205  48.607  48.639  1.00  0.00     0.033 A 
HETATM   24  C   UNL     1      20.938  48.893  49.171  1.00  0.00     0.041 A 
HETATM   25  C   UNL     1      20.483  50.209  49.228  1.00  0.00     0.035 A 
HETATM   26 CL   UNL     1      18.931  50.548  49.887  1.00  0.00    -0.084 Cl
HETATM   27  C   UNL     1      21.278  51.252  48.762  1.00  0.00     0.024 A 
HETATM   28  C   UNL     1      22.542  50.979  48.240  1.00  0.00     0.003 A 
HETATM   29  C   UNL     1      23.009  49.662  48.183  1.00  0.00     0.017 A 
ENDBRANCH  20  23
ENDBRANCH  18  19
ENDBRANCH   2  18
TORSDOF 5
ENDMDL
MODEL 9
REMARK VINA RESULT:      -8.6      4.140      9.397
REMARK  5 active torsions:
REMARK  status: ('A' for Active; 'I' for Inactive)
REMARK    1  A    between atoms: C_7  and  C_8 
REMARK    2  A    between atoms: N_9  and  N_10 
REMARK       I    between atoms: N_10  and  C_11 
REMARK    3  A    between atoms: C_11  and  C_12 
REMARK    4  A    between atoms: C_12  and  N_13 
REMARK       I    between atoms: N_13  and  C_14 
REMARK    5  A    between atoms: C_14  and  C_15 
ROOT
HETATM    1  N   UNL     1      24.668  48.294  49.847  1.00  0.00    -0.246 N 
HETATM    2  C   UNL     1      25.602  48.934  49.047  1.00  0.00     0.255 C 
HETATM    3  O   UNL     1      26.823  48.824  49.147  1.00  0.00    -0.270 OA
HETATM    4  H   UNL     1      23.684  48.558  49.766  1.00  0.00     0.192 HD
ENDROOT
BRANCH   1   5
HETATM    5  N   UNL     1      25.069  47.442  50.834  1.00  0.00    -0.184 NA
HETATM    6  C   UNL     1      25.027  46.186  50.529  1.00  0.00     0.153 C 
BRANCH   6   7
HETATM    7  C   UNL     1      25.403  45.180  51.506  1.00  0.00     0.018 A 
HETATM    8  C   UNL     1      25.115  43.821  51.460  1.00  0.00     0.018 A 
HETATM    9  C   UNL     1      24.372  43.011  50.457  1.00  0.00     0.069 C 
HETATM   10  N   UNL     1      25.670  43.239  52.572  1.00  0.00    -0.358 N 
HETATM   11  H   UNL     1      25.621  42.255  52.795  1.00  0.00     0.166 HD
HETATM   12  C   UNL     1      26.308  44.177  53.345  1.00  0.00     0.043 A 
HETATM   13  C   UNL     1      26.156  45.407  52.706  1.00  0.00     0.004 A 
HETATM   14  C   UNL     1      27.002  44.028  54.553  1.00  0.00     0.030 A 
HETATM   15  C   UNL     1      26.723  46.550  53.313  1.00  0.00     0.014 A 
HETATM   16  C   UNL     1      27.416  46.418  54.523  1.00  0.00     0.001 A 
HETATM   17  C   UNL     1      27.553  45.174  55.131  1.00  0.00     0.002 A 
ENDBRANCH   6   7
ENDBRANCH   1   5
BRANCH   2  18
HETATM   18  C   UNL     1      24.973  49.927  48.066  1.00  0.00     0.227 C 
BRANCH  18  19
HETATM   19  N   UNL     1      23.661  50.425  48.467  1.00  0.00    -0.348 N 
HETATM   20  C   UNL     1      22.503  49.743  48.172  1.00  0.00     0.252 C 
HETATM   21  O   UNL     1      22.515  48.770  47.421  1.00  0.00    -0.268 OA
HETATM   22  H   UNL     1      23.632  51.343  48.886  1.00  0.00     0.163 HD
BRANCH  20  23
HETATM   23  C   UNL     1      21.216  50.249  48.733  1.00  0.00     0.033 A 
HETATM   24  C   UNL     1      20.552  49.440  49.667  1.00  0.00     0.041 A 
HETATM   25  C   UNL     1      19.353  49.868  50.237  1.00  0.00     0.035 A 
HETATM   26 CL   UNL     1      18.550  48.870  51.385  1.00  0.00    -0.084 Cl
HETATM   27  C   UNL     1      18.805  51.099  49.888  1.00  0.00     0.024 A 
HETATM   28  C   UNL     1      19.463  51.914  48.967  1.00  0.00     0.003 A 
HETATM   29  C   UNL     1      20.668  51.495  48.393  1.00  0.00     0.017 A 
ENDBRANCH  20  23
ENDBRANCH  18  19
ENDBRANCH   2  18
TORSDOF 5
ENDMDL
MODEL 10
REMARK VINA RESULT:      -8.6      4.955      8.914
REMARK  5 active torsions:
REMARK  status: ('A' for Active; 'I' for Inactive)
REMARK    1  A    between atoms: C_7  and  C_8 
REMARK    2  A    between atoms: N_9  and  N_10 
REMARK       I    between atoms: N_10  and  C_11 
REMARK    3  A    between atoms: C_11  and  C_12 
REMARK    4  A    between atoms: C_12  and  N_13 
REMARK       I    between atoms: N_13  and  C_14 
REMARK    5  A    between atoms: C_14  and  C_15 
ROOT
HETATM    1  N   UNL     1      27.289  42.195  52.414  1.00  0.00    -0.246 N 
HETATM    2  C   UNL     1      28.109  41.139  52.045  1.00  0.00     0.255 C 
HETATM    3  O   UNL     1      29.104  40.758  52.659  1.00  0.00    -0.270 OA
HETATM    4  H   UNL     1      26.568  42.511  51.763  1.00  0.00     0.192 HD
ENDROOT
BRANCH   1   5
HETATM    5  N   UNL     1      27.541  42.900  53.554  1.00  0.00    -0.184 NA
HETATM    6  C   UNL     1      28.329  43.915  53.412  1.00  0.00     0.153 C 
BRANCH   6   7
HETATM    7  C   UNL     1      28.694  44.728  54.558  1.00  0.00     0.018 A 
HETATM    8  C   UNL     1      28.142  45.948  54.928  1.00  0.00     0.018 A 
HETATM    9  C   UNL     1      27.066  46.765  54.303  1.00  0.00     0.069 C 
HETATM   10  N   UNL     1      28.768  46.359  56.078  1.00  0.00    -0.358 N 
HETATM   11  H   UNL     1      28.563  47.214  56.574  1.00  0.00     0.166 HD
HETATM   12  C   UNL     1      29.715  45.445  56.469  1.00  0.00     0.043 A 
HETATM   13  C   UNL     1      29.698  44.411  55.534  1.00  0.00     0.004 A 
HETATM   14  C   UNL     1      30.579  45.460  57.571  1.00  0.00     0.030 A 
HETATM   15  C   UNL     1      30.598  43.337  55.710  1.00  0.00     0.014 A 
HETATM   16  C   UNL     1      31.472  43.338  56.804  1.00  0.00     0.001 A 
HETATM   17  C   UNL     1      31.459  44.385  57.720  1.00  0.00     0.002 A 
ENDBRANCH   6   7
ENDBRANCH   1   5
BRANCH   2  18
HETATM   18  C   UNL     1      27.735  40.534  50.689  1.00  0.00     0.227 C 
BRANCH  18  19
HETATM   19  N   UNL     1      26.432  40.949  50.180  1.00  0.00    -0.348 N 
HETATM   20  C   UNL     1      26.287  42.042  49.355  1.00  0.00     0.252 C 
HETATM   21  O   UNL     1      27.227  42.804  49.144  1.00  0.00    -0.268 OA
HETATM   22  H   UNL     1      25.626  40.457  50.539  1.00  0.00     0.163 HD
BRANCH  20  23
HETATM   23  C   UNL     1      24.942  42.319  48.771  1.00  0.00     0.033 A 
HETATM   24  C   UNL     1      24.155  41.218  48.402  1.00  0.00     0.041 A 
HETATM   25  C   UNL     1      22.884  41.415  47.865  1.00  0.00     0.035 A 
HETATM   26 CL   UNL     1      21.925  40.057  47.420  1.00  0.00    -0.084 Cl
HETATM   27  C   UNL     1      22.382  42.701  47.691  1.00  0.00     0.024 A 
HETATM   28  C   UNL     1      23.154  43.802  48.064  1.00  0.00     0.003 A 
HETATM   29  C   UNL     1      24.429  43.613  48.607  1.00  0.00     0.017 A 
ENDBRANCH  20  23
ENDBRANCH  18  19
ENDBRANCH   2  18
TORSDOF 5
ENDMDL
