MODEL 1
REMARK VINA RESULT:     -10.0      0.000      0.000
REMARK  6 active torsions:
REMARK  status: ('A' for Active; 'I' for Inactive)
REMARK    1  A    between atoms: O_2  and  C_3 
REMARK    2  A    between atoms: C_5  and  C_6 
REMARK    3  A    between atoms: C_6  and  C_7 
REMARK    4  A    between atoms: C_7  and  C_8 
REMARK       I    between atoms: C_8  and  N_9 
REMARK    5  A    between atoms: N_12  and  C_13 
REMARK    6  A    between atoms: C_17  and  C_18 
ROOT
HETATM    1  C   UNL     1      27.348  42.341  51.947  1.00  0.00     0.220 C 
HETATM    2  N   UNL     1      26.204  43.002  51.509  1.00  0.00    -0.349 N 
HETATM    3  C   UNL     1      25.524  44.056  52.278  1.00  0.00     0.145 C 
HETATM    4  C   UNL     1      26.045  45.441  51.838  1.00  0.00     0.144 C 
HETATM    5  N   UNL     1      25.882  45.617  50.374  1.00  0.00    -0.363 N 
HETATM    6  C   UNL     1      26.512  44.523  49.582  1.00  0.00     0.144 C 
HETATM    7  C   UNL     1      26.003  43.143  50.061  1.00  0.00     0.145 C 
HETATM    8  O   UNL     1      28.084  41.729  51.175  1.00  0.00    -0.273 OA
ENDROOT
BRANCH   5   9
HETATM    9  C   UNL     1      24.779  46.270  49.898  1.00  0.00     0.122 A 
HETATM   10  N   UNL     1      23.893  45.692  49.027  1.00  0.00    -0.262 N 
HETATM   11  H   UNL     1      23.940  44.763  48.629  1.00  0.00     0.191 HD
HETATM   12  N   UNL     1      22.886  46.493  48.643  1.00  0.00    -0.173 NA
HETATM   13  C   UNL     1      23.136  47.660  49.256  1.00  0.00     0.090 A 
HETATM   14  C   UNL     1      24.316  47.560  50.045  1.00  0.00     0.084 A 
BRANCH  13  15
HETATM   15  C   UNL     1      22.273  48.831  49.066  1.00  0.00    -0.005 A 
HETATM   16  C   UNL     1      20.876  48.702  49.146  1.00  0.00     0.015 A 
HETATM   17  C   UNL     1      20.040  49.805  48.947  1.00  0.00     0.024 A 
HETATM   18  C   UNL     1      20.597  51.051  48.671  1.00  0.00     0.034 A 
HETATM   19 CL   UNL     1      19.573  52.411  48.425  1.00  0.00    -0.084 Cl
HETATM   20  C   UNL     1      21.980  51.202  48.594  1.00  0.00     0.024 A 
HETATM   21  C   UNL     1      22.814  50.096  48.790  1.00  0.00     0.015 A 
ENDBRANCH  13  15
ENDBRANCH   5   9
BRANCH   1  22
HETATM   22  C   UNL     1      27.646  42.416  53.434  1.00  0.00     0.107 C 
BRANCH  22  23
HETATM   23  C   UNL     1      29.143  42.362  53.731  1.00  0.00     0.048 C 
BRANCH  23  24
HETATM   24  C   UNL     1      29.539  43.477  54.671  1.00  0.00    -0.055 A 
HETATM   25  C   UNL     1      28.716  44.609  54.809  1.00  0.00     0.044 A 
HETATM   26  C   UNL     1      29.045  45.621  55.713  1.00  0.00     0.068 A 
HETATM   27  C   UNL     1      30.205  45.501  56.478  1.00  0.00     0.037 A 
HETATM   28  C   UNL     1      31.030  44.383  56.350  1.00  0.00     0.003 A 
HETATM   29  C   UNL     1      30.696  43.371  55.452  1.00  0.00     0.007 A 
BRANCH  26  30
HETATM   30  O   UNL     1      28.323  46.760  55.943  1.00  0.00    -0.356 OA
HETATM   31  C   UNL     1      27.750  47.400  54.810  1.00  0.00     0.210 C 
ENDBRANCH  26  30
ENDBRANCH  23  24
ENDBRANCH  22  23
ENDBRANCH   1  22
TORSDOF 6
ENDMDL
MODEL 2
REMARK VINA RESULT:      -9.8      1.502      2.122
REMARK  6 active torsions:
REMARK  status: ('A' for Active; 'I' for Inactive)
REMARK    1  A    between atoms: O_2  and  C_3 
REMARK    2  A    between atoms: C_5  and  C_6 
REMARK    3  A    between atoms: C_6  and  C_7 
REMARK    4  A    between atoms: C_7  and  C_8 
REMARK       I    between atoms: C_8  and  N_9 
REMARK    5  A    between atoms: N_12  and  C_13 
REMARK    6  A    between atoms: C_17  and  C_18 
ROOT
HETATM    1  C   UNL     1      26.341  43.754  51.454  1.00  0.00     0.220 C 
HETATM    2  N   UNL     1      25.628  44.949  51.448  1.00  0.00    -0.349 N 
HETATM    3  C   UNL     1      26.242  46.266  51.217  1.00  0.00     0.145 C 
HETATM    4  C   UNL     1      26.148  46.629  49.720  1.00  0.00     0.144 C 
HETATM    5  N   UNL     1      24.738  46.578  49.259  1.00  0.00    -0.363 N 
HETATM    6  C   UNL     1      24.082  45.270  49.543  1.00  0.00     0.144 C 
HETATM    7  C   UNL     1      24.218  44.907  51.040  1.00  0.00     0.145 C 
HETATM    8  O   UNL     1      25.789  42.664  51.306  1.00  0.00    -0.273 OA
ENDROOT
BRANCH   5   9
HETATM    9  C   UNL     1      24.003  47.729  49.227  1.00  0.00     0.122 A 
HETATM   10  N   UNL     1      24.574  48.975  49.226  1.00  0.00    -0.262 N 
HETATM   11  H   UNL     1      25.560  49.198  49.261  1.00  0.00     0.191 HD
HETATM   12  N   UNL     1      23.697  49.991  49.223  1.00  0.00    -0.173 NA
HETATM   13  C   UNL     1      22.495  49.394  49.261  1.00  0.00     0.090 A 
HETATM   14  C   UNL     1      22.648  47.979  49.271  1.00  0.00     0.084 A 
BRANCH  13  15
HETATM   15  C   UNL     1      21.251  50.169  49.305  1.00  0.00    -0.005 A 
HETATM   16  C   UNL     1      21.088  51.296  48.484  1.00  0.00     0.015 A 
HETATM   17  C   UNL     1      19.915  52.057  48.530  1.00  0.00     0.024 A 
HETATM   18  C   UNL     1      18.891  51.690  49.398  1.00  0.00     0.034 A 
HETATM   19 CL   UNL     1      17.447  52.622  49.460  1.00  0.00    -0.084 Cl
HETATM   20  C   UNL     1      19.028  50.571  50.217  1.00  0.00     0.024 A 
HETATM   21  C   UNL     1      20.205  49.814  50.170  1.00  0.00     0.015 A 
ENDBRANCH  13  15
ENDBRANCH   5   9
BRANCH   1  22
HETATM   22  C   UNL     1      27.843  43.861  51.649  1.00  0.00     0.107 C 
BRANCH  22  23
HETATM   23  C   UNL     1      28.366  42.879  52.696  1.00  0.00     0.048 C 
BRANCH  23  24
HETATM   24  C   UNL     1      28.999  43.621  53.850  1.00  0.00    -0.055 A 
HETATM   25  C   UNL     1      28.385  44.774  54.370  1.00  0.00     0.044 A 
HETATM   26  C   UNL     1      28.932  45.437  55.469  1.00  0.00     0.068 A 
HETATM   27  C   UNL     1      30.103  44.946  56.048  1.00  0.00     0.037 A 
HETATM   28  C   UNL     1      30.722  43.803  55.541  1.00  0.00     0.003 A 
HETATM   29  C   UNL     1      30.170  43.138  54.447  1.00  0.00     0.007 A 
BRANCH  26  30
HETATM   30  O   UNL     1      28.424  46.557  56.070  1.00  0.00    -0.356 OA
HETATM   31  C   UNL     1      27.677  47.445  55.247  1.00  0.00     0.210 C 
ENDBRANCH  26  30
ENDBRANCH  23  24
ENDBRANCH  22  23
ENDBRANCH   1  22
TORSDOF 6
ENDMDL
MODEL 3
REMARK VINA RESULT:      -9.5      4.166      9.429
REMARK  6 active torsions:
REMARK  status: ('A' for Active; 'I' for Inactive)
REMARK    1  A    between atoms: O_2  and  C_3 
REMARK    2  A    between atoms: C_5  and  C_6 
REMARK    3  A    between atoms: C_6  and  C_7 
REMARK    4  A    between atoms: C_7  and  C_8 
REMARK       I    between atoms: C_8  and  N_9 
REMARK    5  A    between atoms: N_12  and  C_13 
REMARK    6  A    between atoms: C_17  and  C_18 
ROOT
HETATM    1  C   UNL     1      22.652  44.697  48.302  1.00  0.00     0.220 C 
HETATM    2  N   UNL     1      23.932  44.531  48.825  1.00  0.00    -0.349 N 
HETATM    3  C   UNL     1      24.813  45.648  49.200  1.00  0.00     0.145 C 
HETATM    4  C   UNL     1      24.642  45.966  50.700  1.00  0.00     0.144 C 
HETATM    5  N   UNL     1      24.889  44.753  51.520  1.00  0.00    -0.363 N 
HETATM    6  C   UNL     1      24.047  43.594  51.111  1.00  0.00     0.144 C 
HETATM    7  C   UNL     1      24.206  43.313  49.599  1.00  0.00     0.145 C 
HETATM    8  O   UNL     1      21.819  43.792  48.317  1.00  0.00    -0.273 OA
ENDROOT
BRANCH   5   9
HETATM    9  C   UNL     1      26.128  44.554  52.062  1.00  0.00     0.122 A 
HETATM   10  N   UNL     1      27.160  43.983  51.365  1.00  0.00    -0.262 N 
HETATM   11  H   UNL     1      27.142  43.639  50.414  1.00  0.00     0.191 HD
HETATM   12  N   UNL     1      28.294  43.838  52.067  1.00  0.00    -0.173 NA
HETATM   13  C   UNL     1      27.990  44.297  53.291  1.00  0.00     0.090 A 
HETATM   14  C   UNL     1      26.641  44.748  53.327  1.00  0.00     0.084 A 
BRANCH  13  15
HETATM   15  C   UNL     1      28.967  44.281  54.385  1.00  0.00    -0.005 A 
HETATM   16  C   UNL     1      29.805  43.169  54.570  1.00  0.00     0.015 A 
HETATM   17  C   UNL     1      30.727  43.131  55.621  1.00  0.00     0.024 A 
HETATM   18  C   UNL     1      30.822  44.211  56.493  1.00  0.00     0.034 A 
HETATM   19 CL   UNL     1      31.953  44.169  57.788  1.00  0.00    -0.084 Cl
HETATM   20  C   UNL     1      30.005  45.327  56.324  1.00  0.00     0.024 A 
HETATM   21  C   UNL     1      29.081  45.360  55.274  1.00  0.00     0.015 A 
ENDBRANCH  13  15
ENDBRANCH   5   9
BRANCH   1  22
HETATM   22  C   UNL     1      22.332  46.060  47.714  1.00  0.00     0.107 C 
BRANCH  22  23
HETATM   23  C   UNL     1      21.438  46.894  48.629  1.00  0.00     0.048 C 
BRANCH  23  24
HETATM   24  C   UNL     1      21.887  48.336  48.639  1.00  0.00    -0.055 A 
HETATM   25  C   UNL     1      23.132  48.692  48.091  1.00  0.00     0.044 A 
HETATM   26  C   UNL     1      23.534  50.028  48.047  1.00  0.00     0.068 A 
HETATM   27  C   UNL     1      22.688  51.012  48.560  1.00  0.00     0.037 A 
HETATM   28  C   UNL     1      21.451  50.672  49.107  1.00  0.00     0.003 A 
HETATM   29  C   UNL     1      21.048  49.338  49.143  1.00  0.00     0.007 A 
BRANCH  26  30
HETATM   30  O   UNL     1      24.712  50.498  47.531  1.00  0.00    -0.356 OA
HETATM   31  C   UNL     1      25.910  49.913  48.026  1.00  0.00     0.210 C 
ENDBRANCH  26  30
ENDBRANCH  23  24
ENDBRANCH  22  23
ENDBRANCH   1  22
TORSDOF 6
ENDMDL
MODEL 4
REMARK VINA RESULT:      -9.2      1.254      2.003
REMARK  6 active torsions:
REMARK  status: ('A' for Active; 'I' for Inactive)
REMARK    1  A    between atoms: O_2  and  C_3 
REMARK    2  A    between atoms: C_5  and  C_6 
REMARK    3  A    between atoms: C_6  and  C_7 
REMARK    4  A    between atoms: C_7  and  C_8 
REMARK       I    between atoms: C_8  and  N_9 
REMARK    5  A    between atoms: N_12  and  C_13 
REMARK    6  A    between atoms: C_17  and  C_18 
ROOT
HETATM    1  C   UNL     1      27.066  42.725  51.591  1.00  0.00     0.220 C 
HETATM    2  N   UNL     1      25.969  43.572  51.469  1.00  0.00    -0.349 N 
HETATM    3  C   UNL     1      26.077  45.031  51.309  1.00  0.00     0.145 C 
HETATM    4  C   UNL     1      26.060  45.395  49.810  1.00  0.00     0.144 C 
HETATM    5  N   UNL     1      24.846  44.845  49.155  1.00  0.00    -0.363 N 
HETATM    6  C   UNL     1      24.689  43.377  49.361  1.00  0.00     0.144 C 
HETATM    7  C   UNL     1      24.745  43.030  50.866  1.00  0.00     0.145 C 
HETATM    8  O   UNL     1      26.984  41.515  51.381  1.00  0.00    -0.273 OA
ENDROOT
BRANCH   5   9
HETATM    9  C   UNL     1      23.748  45.645  49.004  1.00  0.00     0.122 A 
HETATM   10  N   UNL     1      22.533  45.166  48.587  1.00  0.00    -0.262 N 
HETATM   11  H   UNL     1      22.301  44.214  48.336  1.00  0.00     0.191 HD
HETATM   12  N   UNL     1      21.578  46.101  48.466  1.00  0.00    -0.173 NA
HETATM   13  C   UNL     1      22.195  47.251  48.779  1.00  0.00     0.090 A 
HETATM   14  C   UNL     1      23.556  47.005  49.115  1.00  0.00     0.084 A 
BRANCH  13  15
HETATM   15  C   UNL     1      21.493  48.539  48.734  1.00  0.00    -0.005 A 
HETATM   16  C   UNL     1      20.158  48.634  49.158  1.00  0.00     0.015 A 
HETATM   17  C   UNL     1      19.471  49.851  49.102  1.00  0.00     0.024 A 
HETATM   18  C   UNL     1      20.119  50.986  48.625  1.00  0.00     0.034 A 
HETATM   19 CL   UNL     1      19.278  52.485  48.553  1.00  0.00    -0.084 Cl
HETATM   20  C   UNL     1      21.446  50.916  48.206  1.00  0.00     0.024 A 
HETATM   21  C   UNL     1      22.130  49.696  48.260  1.00  0.00     0.015 A 
ENDBRANCH  13  15
ENDBRANCH   5   9
BRANCH   1  22
HETATM   22  C   UNL     1      28.380  43.370  51.995  1.00  0.00     0.107 C 
BRANCH  22  23
HETATM   23  C   UNL     1      28.995  42.716  53.231  1.00  0.00     0.048 C 
BRANCH  23  24
HETATM   24  C   UNL     1      29.216  43.740  54.320  1.00  0.00    -0.055 A 
HETATM   25  C   UNL     1      30.236  43.552  55.269  1.00  0.00     0.044 A 
HETATM   26  C   UNL     1      30.483  44.516  56.247  1.00  0.00     0.068 A 
HETATM   27  C   UNL     1      29.700  45.671  56.280  1.00  0.00     0.037 A 
HETATM   28  C   UNL     1      28.685  45.869  55.344  1.00  0.00     0.003 A 
HETATM   29  C   UNL     1      28.445  44.908  54.363  1.00  0.00     0.007 A 
BRANCH  26  30
HETATM   30  O   UNL     1      31.449  44.453  57.215  1.00  0.00    -0.356 OA
HETATM   31  C   UNL     1      32.138  43.217  57.356  1.00  0.00     0.210 C 
ENDBRANCH  26  30
ENDBRANCH  23  24
ENDBRANCH  22  23
ENDBRANCH   1  22
TORSDOF 6
ENDMDL
MODEL 5
REMARK VINA RESULT:      -9.1      4.681     10.349
REMARK  6 active torsions:
REMARK  status: ('A' for Active; 'I' for Inactive)
REMARK    1  A    between atoms: O_2  and  C_3 
REMARK    2  A    between atoms: C_5  and  C_6 
REMARK    3  A    between atoms: C_6  and  C_7 
REMARK    4  A    between atoms: C_7  and  C_8 
REMARK       I    between atoms: C_8  and  N_9 
REMARK    5  A    between atoms: N_12  and  C_13 
REMARK    6  A    between atoms: C_17  and  C_18 
ROOT
HETATM    1  C   UNL     1      24.347  49.580  48.091  1.00  0.00     0.220 C 
HETATM    2  N   UNL     1      24.757  48.988  49.282  1.00  0.00    -0.349 N 
HETATM    3  C   UNL     1      23.912  48.085  50.079  1.00  0.00     0.145 C 
HETATM    4  C   UNL     1      24.194  46.621  49.684  1.00  0.00     0.144 C 
HETATM    5  N   UNL     1      25.639  46.312  49.827  1.00  0.00    -0.363 N 
HETATM    6  C   UNL     1      26.512  47.257  49.074  1.00  0.00     0.144 C 
HETATM    7  C   UNL     1      26.190  48.719  49.459  1.00  0.00     0.145 C 
HETATM    8  O   UNL     1      25.150  50.038  47.279  1.00  0.00    -0.273 OA
ENDROOT
BRANCH   5   9
HETATM    9  C   UNL     1      26.086  45.721  50.976  1.00  0.00     0.122 A 
HETATM   10  N   UNL     1      25.241  45.294  51.967  1.00  0.00    -0.262 N 
HETATM   11  H   UNL     1      24.232  45.367  51.989  1.00  0.00     0.191 HD
HETATM   12  N   UNL     1      25.858  44.766  53.036  1.00  0.00    -0.173 NA
HETATM   13  C   UNL     1      27.166  44.881  52.757  1.00  0.00     0.090 A 
HETATM   14  C   UNL     1      27.346  45.481  51.478  1.00  0.00     0.084 A 
BRANCH  13  15
HETATM   15  C   UNL     1      28.197  44.444  53.703  1.00  0.00    -0.005 A 
HETATM   16  C   UNL     1      28.524  45.240  54.814  1.00  0.00     0.015 A 
HETATM   17  C   UNL     1      29.519  44.845  55.713  1.00  0.00     0.024 A 
HETATM   18  C   UNL     1      30.193  43.644  55.512  1.00  0.00     0.034 A 
HETATM   19 CL   UNL     1      31.418  43.154  56.614  1.00  0.00    -0.084 Cl
HETATM   20  C   UNL     1      29.880  42.836  54.421  1.00  0.00     0.024 A 
HETATM   21  C   UNL     1      28.886  43.235  53.521  1.00  0.00     0.015 A 
ENDBRANCH  13  15
ENDBRANCH   5   9
BRANCH   1  22
HETATM   22  C   UNL     1      22.850  49.629  47.838  1.00  0.00     0.107 C 
BRANCH  22  23
HETATM   23  C   UNL     1      22.271  51.028  48.039  1.00  0.00     0.048 C 
BRANCH  23  24
HETATM   24  C   UNL     1      20.960  50.957  48.787  1.00  0.00    -0.055 A 
HETATM   25  C   UNL     1      20.007  51.980  48.638  1.00  0.00     0.044 A 
HETATM   26  C   UNL     1      18.771  51.900  49.283  1.00  0.00     0.068 A 
HETATM   27  C   UNL     1      18.492  50.793  50.085  1.00  0.00     0.037 A 
HETATM   28  C   UNL     1      19.430  49.772  50.242  1.00  0.00     0.003 A 
HETATM   29  C   UNL     1      20.660  49.851  49.591  1.00  0.00     0.007 A 
BRANCH  26  30
HETATM   30  O   UNL     1      17.762  52.821  49.207  1.00  0.00    -0.356 OA
HETATM   31  C   UNL     1      16.564  52.522  49.913  1.00  0.00     0.210 C 
ENDBRANCH  26  30
ENDBRANCH  23  24
ENDBRANCH  22  23
ENDBRANCH   1  22
TORSDOF 6
ENDMDL
MODEL 6
REMARK VINA RESULT:      -9.1      1.229      1.658
REMARK  6 active torsions:
REMARK  status: ('A' for Active; 'I' for Inactive)
REMARK    1  A    between atoms: O_2  and  C_3 
REMARK    2  A    between atoms: C_5  and  C_6 
REMARK    3  A    between atoms: C_6  and  C_7 
REMARK    4  A    between atoms: C_7  and  C_8 
REMARK       I    between atoms: C_8  and  N_9 
REMARK    5  A    between atoms: N_12  and  C_13 
REMARK    6  A    between atoms: C_17  and  C_18 
ROOT
HETATM    1  C   UNL     1      26.510  43.470  51.224  1.00  0.00     0.220 C 
HETATM    2  N   UNL     1      25.320  44.190  51.180  1.00  0.00    -0.349 N 
HETATM    3  C   UNL     1      25.226  45.632  51.457  1.00  0.00     0.145 C 
HETATM    4  C   UNL     1      25.325  46.425  50.137  1.00  0.00     0.144 C 
HETATM    5  N   UNL     1      24.289  45.968  49.177  1.00  0.00    -0.363 N 
HETATM    6  C   UNL     1      24.331  44.498  48.933  1.00  0.00     0.144 C 
HETATM    7  C   UNL     1      24.266  43.723  50.270  1.00  0.00     0.145 C 
HETATM    8  O   UNL     1      26.632  42.378  50.670  1.00  0.00    -0.273 OA
ENDROOT
BRANCH   5   9
HETATM    9  C   UNL     1      23.108  46.651  49.092  1.00  0.00     0.122 A 
HETATM   10  N   UNL     1      21.944  46.071  48.659  1.00  0.00    -0.262 N 
HETATM   11  H   UNL     1      21.812  45.118  48.348  1.00  0.00     0.191 HD
HETATM   12  N   UNL     1      20.891  46.903  48.611  1.00  0.00    -0.173 NA
HETATM   13  C   UNL     1      21.387  48.090  48.992  1.00  0.00     0.090 A 
HETATM   14  C   UNL     1      22.772  47.973  49.295  1.00  0.00     0.084 A 
BRANCH  13  15
HETATM   15  C   UNL     1      20.550  49.294  49.041  1.00  0.00    -0.005 A 
HETATM   16  C   UNL     1      19.323  49.277  49.725  1.00  0.00     0.015 A 
HETATM   17  C   UNL     1      18.506  50.411  49.762  1.00  0.00     0.024 A 
HETATM   18  C   UNL     1      18.914  51.576  49.120  1.00  0.00     0.034 A 
HETATM   19 CL   UNL     1      17.912  52.974  49.162  1.00  0.00    -0.084 Cl
HETATM   20  C   UNL     1      20.130  51.617  48.442  1.00  0.00     0.024 A 
HETATM   21  C   UNL     1      20.945  50.480  48.403  1.00  0.00     0.015 A 
ENDBRANCH  13  15
ENDBRANCH   5   9
BRANCH   1  22
HETATM   22  C   UNL     1      27.658  44.104  51.989  1.00  0.00     0.107 C 
BRANCH  22  23
HETATM   23  C   UNL     1      28.535  43.068  52.687  1.00  0.00     0.048 C 
BRANCH  23  24
HETATM   24  C   UNL     1      29.194  43.665  53.909  1.00  0.00    -0.055 A 
HETATM   25  C   UNL     1      28.658  44.821  54.505  1.00  0.00     0.044 A 
HETATM   26  C   UNL     1      29.227  45.351  55.664  1.00  0.00     0.068 A 
HETATM   27  C   UNL     1      30.340  44.725  56.226  1.00  0.00     0.037 A 
HETATM   28  C   UNL     1      30.881  43.579  55.643  1.00  0.00     0.003 A 
HETATM   29  C   UNL     1      30.307  43.047  54.490  1.00  0.00     0.007 A 
BRANCH  26  30
HETATM   30  O   UNL     1      28.792  46.459  56.340  1.00  0.00    -0.356 OA
HETATM   31  C   UNL     1      27.706  47.177  55.768  1.00  0.00     0.210 C 
ENDBRANCH  26  30
ENDBRANCH  23  24
ENDBRANCH  22  23
ENDBRANCH   1  22
TORSDOF 6
ENDMDL
MODEL 7
REMARK VINA RESULT:      -9.1      4.207      9.696
REMARK  6 active torsions:
REMARK  status: ('A' for Active; 'I' for Inactive)
REMARK    1  A    between atoms: O_2  and  C_3 
REMARK    2  A    between atoms: C_5  and  C_6 
REMARK    3  A    between atoms: C_6  and  C_7 
REMARK    4  A    between atoms: C_7  and  C_8 
REMARK       I    between atoms: C_8  and  N_9 
REMARK    5  A    between atoms: N_12  and  C_13 
REMARK    6  A    between atoms: C_17  and  C_18 
ROOT
HETATM    1  C   UNL     1      23.050  44.900  48.427  1.00  0.00     0.220 C 
HETATM    2  N   UNL     1      24.291  44.986  49.049  1.00  0.00    -0.349 N 
HETATM    3  C   UNL     1      24.577  45.880  50.183  1.00  0.00     0.145 C 
HETATM    4  C   UNL     1      24.377  45.118  51.510  1.00  0.00     0.144 C 
HETATM    5  N   UNL     1      25.211  43.890  51.536  1.00  0.00    -0.363 N 
HETATM    6  C   UNL     1      24.978  43.005  50.361  1.00  0.00     0.144 C 
HETATM    7  C   UNL     1      25.149  43.794  49.043  1.00  0.00     0.145 C 
HETATM    8  O   UNL     1      22.733  43.934  47.733  1.00  0.00    -0.273 OA
ENDROOT
BRANCH   5   9
HETATM    9  C   UNL     1      26.434  43.926  52.146  1.00  0.00     0.122 A 
HETATM   10  N   UNL     1      27.592  43.569  51.507  1.00  0.00    -0.262 N 
HETATM   11  H   UNL     1      27.693  43.237  50.557  1.00  0.00     0.191 HD
HETATM   12  N   UNL     1      28.694  43.637  52.271  1.00  0.00    -0.173 NA
HETATM   13  C   UNL     1      28.241  44.018  53.476  1.00  0.00     0.090 A 
HETATM   14  C   UNL     1      26.831  44.202  53.437  1.00  0.00     0.084 A 
BRANCH  13  15
HETATM   15  C   UNL     1      29.142  44.177  54.622  1.00  0.00    -0.005 A 
HETATM   16  C   UNL     1      30.096  43.189  54.917  1.00  0.00     0.015 A 
HETATM   17  C   UNL     1      30.948  43.319  56.019  1.00  0.00     0.024 A 
HETATM   18  C   UNL     1      30.856  44.444  56.832  1.00  0.00     0.034 A 
HETATM   19 CL   UNL     1      31.900  44.607  58.189  1.00  0.00    -0.084 Cl
HETATM   20  C   UNL     1      29.922  45.439  56.555  1.00  0.00     0.024 A 
HETATM   21  C   UNL     1      29.068  45.305  55.453  1.00  0.00     0.015 A 
ENDBRANCH  13  15
ENDBRANCH   5   9
BRANCH   1  22
HETATM   22  C   UNL     1      22.096  46.060  48.651  1.00  0.00     0.107 C 
BRANCH  22  23
HETATM   23  C   UNL     1      22.193  47.115  47.552  1.00  0.00     0.048 C 
BRANCH  23  24
HETATM   24  C   UNL     1      21.876  48.487  48.102  1.00  0.00    -0.055 A 
HETATM   25  C   UNL     1      20.717  48.688  48.871  1.00  0.00     0.044 A 
HETATM   26  C   UNL     1      20.441  49.938  49.428  1.00  0.00     0.068 A 
HETATM   27  C   UNL     1      21.329  50.992  49.209  1.00  0.00     0.037 A 
HETATM   28  C   UNL     1      22.483  50.805  48.448  1.00  0.00     0.003 A 
HETATM   29  C   UNL     1      22.759  49.554  47.899  1.00  0.00     0.007 A 
BRANCH  26  30
HETATM   30  O   UNL     1      19.356  50.254  50.200  1.00  0.00    -0.356 OA
HETATM   31  C   UNL     1      18.784  49.203  50.967  1.00  0.00     0.210 C 
ENDBRANCH  26  30
ENDBRANCH  23  24
ENDBRANCH  22  23
ENDBRANCH   1  22
TORSDOF 6
ENDMDL
MODEL 8
REMARK VINA RESULT:      -8.3      5.396     11.571
REMARK  6 active torsions:
REMARK  status: ('A' for Active; 'I' for Inactive)
REMARK    1  A    between atoms: O_2  and  C_3 
REMARK    2  A    between atoms: C_5  and  C_6 
REMARK    3  A    between atoms: C_6  and  C_7 
REMARK    4  A    between atoms: C_7  and  C_8 
REMARK       I    between atoms: C_8  and  N_9 
REMARK    5  A    between atoms: N_12  and  C_13 
REMARK    6  A    between atoms: C_17  and  C_18 
ROOT
HETATM    1  C   UNL     1      19.871  50.979  48.580  1.00  0.00     0.220 C 
HETATM    2  N   UNL     1      20.829  50.247  49.275  1.00  0.00    -0.349 N 
HETATM    3  C   UNL     1      21.080  48.814  49.057  1.00  0.00     0.145 C 
HETATM    4  C   UNL     1      22.220  48.635  48.033  1.00  0.00     0.144 C 
HETATM    5  N   UNL     1      23.438  49.358  48.478  1.00  0.00    -0.363 N 
HETATM    6  C   UNL     1      23.186  50.799  48.764  1.00  0.00     0.144 C 
HETATM    7  C   UNL     1      22.018  50.958  49.764  1.00  0.00     0.145 C 
HETATM    8  O   UNL     1      19.905  52.208  48.522  1.00  0.00    -0.273 OA
ENDROOT
BRANCH   5   9
HETATM    9  C   UNL     1      24.410  48.676  49.155  1.00  0.00     0.122 A 
HETATM   10  N   UNL     1      25.742  48.978  49.044  1.00  0.00    -0.262 N 
HETATM   11  H   UNL     1      26.164  49.695  48.468  1.00  0.00     0.191 HD
HETATM   12  N   UNL     1      26.555  48.183  49.758  1.00  0.00    -0.173 NA
HETATM   13  C   UNL     1      25.731  47.296  50.336  1.00  0.00     0.090 A 
HETATM   14  C   UNL     1      24.381  47.569  49.976  1.00  0.00     0.084 A 
BRANCH  13  15
HETATM   15  C   UNL     1      26.238  46.215  51.187  1.00  0.00    -0.005 A 
HETATM   16  C   UNL     1      26.819  45.072  50.612  1.00  0.00     0.015 A 
HETATM   17  C   UNL     1      27.288  44.025  51.412  1.00  0.00     0.024 A 
HETATM   18  C   UNL     1      27.185  44.116  52.796  1.00  0.00     0.034 A 
HETATM   19 CL   UNL     1      27.760  42.830  53.784  1.00  0.00    -0.084 Cl
HETATM   20  C   UNL     1      26.619  45.242  53.388  1.00  0.00     0.024 A 
HETATM   21  C   UNL     1      26.147  46.288  52.586  1.00  0.00     0.015 A 
ENDBRANCH  13  15
ENDBRANCH   5   9
BRANCH   1  22
HETATM   22  C   UNL     1      18.779  50.183  47.888  1.00  0.00     0.107 C 
BRANCH  22  23
HETATM   23  C   UNL     1      17.553  49.981  48.776  1.00  0.00     0.048 C 
BRANCH  23  24
HETATM   24  C   UNL     1      16.649  51.190  48.716  1.00  0.00    -0.055 A 
HETATM   25  C   UNL     1      16.534  52.042  49.828  1.00  0.00     0.044 A 
HETATM   26  C   UNL     1      15.742  53.190  49.765  1.00  0.00     0.068 A 
HETATM   27  C   UNL     1      15.057  53.482  48.585  1.00  0.00     0.037 A 
HETATM   28  C   UNL     1      15.162  52.644  47.475  1.00  0.00     0.003 A 
HETATM   29  C   UNL     1      15.959  51.502  47.538  1.00  0.00     0.007 A 
BRANCH  26  30
HETATM   30  O   UNL     1      15.561  54.099  50.772  1.00  0.00    -0.356 OA
HETATM   31  C   UNL     1      14.268  54.155  51.363  1.00  0.00     0.210 C 
ENDBRANCH  26  30
ENDBRANCH  23  24
ENDBRANCH  22  23
ENDBRANCH   1  22
TORSDOF 6
ENDMDL
MODEL 9
REMARK VINA RESULT:      -8.2      5.110      9.253
REMARK  6 active torsions:
REMARK  status: ('A' for Active; 'I' for Inactive)
REMARK    1  A    between atoms: O_2  and  C_3 
REMARK    2  A    between atoms: C_5  and  C_6 
REMARK    3  A    between atoms: C_6  and  C_7 
REMARK    4  A    between atoms: C_7  and  C_8 
REMARK       I    between atoms: C_8  and  N_9 
REMARK    5  A    between atoms: N_12  and  C_13 
REMARK    6  A    between atoms: C_17  and  C_18 
ROOT
HETATM    1  C   UNL     1      23.644  42.089  48.331  1.00  0.00     0.220 C 
HETATM    2  N   UNL     1      24.359  42.226  49.517  1.00  0.00    -0.349 N 
HETATM    3  C   UNL     1      25.828  42.274  49.584  1.00  0.00     0.145 C 
HETATM    4  C   UNL     1      26.304  43.741  49.559  1.00  0.00     0.144 C 
HETATM    5  N   UNL     1      25.664  44.514  50.653  1.00  0.00    -0.363 N 
HETATM    6  C   UNL     1      24.177  44.425  50.635  1.00  0.00     0.144 C 
HETATM    7  C   UNL     1      23.721  42.947  50.626  1.00  0.00     0.145 C 
HETATM    8  O   UNL     1      22.454  42.389  48.248  1.00  0.00    -0.273 OA
ENDROOT
BRANCH   5   9
HETATM    9  C   UNL     1      26.335  44.684  51.833  1.00  0.00     0.122 A 
HETATM   10  N   UNL     1      25.953  45.599  52.778  1.00  0.00    -0.262 N 
HETATM   11  H   UNL     1      25.177  46.246  52.729  1.00  0.00     0.191 HD
HETATM   12  N   UNL     1      26.747  45.647  53.859  1.00  0.00    -0.173 NA
HETATM   13  C   UNL     1      27.716  44.755  53.602  1.00  0.00     0.090 A 
HETATM   14  C   UNL     1      27.494  44.136  52.340  1.00  0.00     0.084 A 
BRANCH  13  15
HETATM   15  C   UNL     1      28.822  44.527  54.538  1.00  0.00    -0.005 A 
HETATM   16  C   UNL     1      29.580  43.347  54.466  1.00  0.00     0.015 A 
HETATM   17  C   UNL     1      30.624  43.107  55.365  1.00  0.00     0.024 A 
HETATM   18  C   UNL     1      30.922  44.052  56.342  1.00  0.00     0.034 A 
HETATM   19 CL   UNL     1      32.205  43.762  57.451  1.00  0.00    -0.084 Cl
HETATM   20  C   UNL     1      30.188  45.233  56.427  1.00  0.00     0.024 A 
HETATM   21  C   UNL     1      29.141  45.468  55.529  1.00  0.00     0.015 A 
ENDBRANCH  13  15
ENDBRANCH   5   9
BRANCH   1  22
HETATM   22  C   UNL     1      24.410  41.551  47.135  1.00  0.00     0.107 C 
BRANCH  22  23
HETATM   23  C   UNL     1      24.381  40.026  47.061  1.00  0.00     0.048 C 
BRANCH  23  24
HETATM   24  C   UNL     1      25.783  39.472  46.969  1.00  0.00    -0.055 A 
HETATM   25  C   UNL     1      26.374  38.858  48.086  1.00  0.00     0.044 A 
HETATM   26  C   UNL     1      27.649  38.295  47.998  1.00  0.00     0.068 A 
HETATM   27  C   UNL     1      28.337  38.353  46.785  1.00  0.00     0.037 A 
HETATM   28  C   UNL     1      27.761  38.961  45.669  1.00  0.00     0.003 A 
HETATM   29  C   UNL     1      26.485  39.515  45.758  1.00  0.00     0.007 A 
BRANCH  26  30
HETATM   30  O   UNL     1      28.323  37.663  49.008  1.00  0.00    -0.356 OA
HETATM   31  C   UNL     1      29.630  38.138  49.303  1.00  0.00     0.210 C 
ENDBRANCH  26  30
ENDBRANCH  23  24
ENDBRANCH  22  23
ENDBRANCH   1  22
TORSDOF 6
ENDMDL
MODEL 10
REMARK VINA RESULT:      -8.1      4.787      7.780
REMARK  6 active torsions:
REMARK  status: ('A' for Active; 'I' for Inactive)
REMARK    1  A    between atoms: O_2  and  C_3 
REMARK    2  A    between atoms: C_5  and  C_6 
REMARK    3  A    between atoms: C_6  and  C_7 
REMARK    4  A    between atoms: C_7  and  C_8 
REMARK       I    between atoms: C_8  and  N_9 
REMARK    5  A    between atoms: N_12  and  C_13 
REMARK    6  A    between atoms: C_17  and  C_18 
ROOT
HETATM    1  C   UNL     1      22.809  48.814  48.271  1.00  0.00     0.220 C 
HETATM    2  N   UNL     1      21.447  49.063  48.136  1.00  0.00    -0.349 N 
HETATM    3  C   UNL     1      20.426  48.548  49.063  1.00  0.00     0.145 C 
HETATM    4  C   UNL     1      20.134  49.601  50.153  1.00  0.00     0.144 C 
HETATM    5  N   UNL     1      19.736  50.891  49.537  1.00  0.00    -0.363 N 
HETATM    6  C   UNL     1      20.732  51.394  48.548  1.00  0.00     0.144 C 
HETATM    7  C   UNL     1      21.036  50.314  47.485  1.00  0.00     0.145 C 
HETATM    8  O   UNL     1      23.658  49.510  47.714  1.00  0.00    -0.273 OA
ENDROOT
BRANCH   5   9
HETATM    9  C   UNL     1      18.408  51.182  49.394  1.00  0.00     0.122 A 
HETATM   10  N   UNL     1      17.529  50.343  48.761  1.00  0.00    -0.262 N 
HETATM   11  H   UNL     1      17.734  49.452  48.328  1.00  0.00     0.191 HD
HETATM   12  N   UNL     1      16.271  50.806  48.687  1.00  0.00    -0.173 NA
HETATM   13  C   UNL     1      16.328  52.019  49.260  1.00  0.00     0.090 A 
HETATM   14  C   UNL     1      17.652  52.291  49.708  1.00  0.00     0.084 A 
BRANCH  13  15
HETATM   15  C   UNL     1      15.148  52.885  49.350  1.00  0.00    -0.005 A 
HETATM   16  C   UNL     1      14.724  53.624  48.234  1.00  0.00     0.015 A 
HETATM   17  C   UNL     1      13.612  54.468  48.311  1.00  0.00     0.024 A 
HETATM   18  C   UNL     1      12.910  54.576  49.508  1.00  0.00     0.034 A 
HETATM   19 CL   UNL     1      11.543  55.614  49.609  1.00  0.00    -0.084 Cl
HETATM   20  C   UNL     1      13.309  53.846  50.626  1.00  0.00     0.024 A 
HETATM   21  C   UNL     1      14.424  53.004  50.546  1.00  0.00     0.015 A 
ENDBRANCH  13  15
ENDBRANCH   5   9
BRANCH   1  22
HETATM   22  C   UNL     1      23.201  47.639  49.149  1.00  0.00     0.107 C 
BRANCH  22  23
HETATM   23  C   UNL     1      24.564  47.832  49.808  1.00  0.00     0.048 C 
BRANCH  23  24
HETATM   24  C   UNL     1      24.832  46.732  50.809  1.00  0.00    -0.055 A 
HETATM   25  C   UNL     1      25.433  47.032  52.044  1.00  0.00     0.044 A 
HETATM   26  C   UNL     1      25.637  46.033  52.997  1.00  0.00     0.068 A 
HETATM   27  C   UNL     1      25.242  44.726  52.709  1.00  0.00     0.037 A 
HETATM   28  C   UNL     1      24.645  44.415  51.488  1.00  0.00     0.003 A 
HETATM   29  C   UNL     1      24.436  45.416  50.540  1.00  0.00     0.007 A 
BRANCH  26  30
HETATM   30  O   UNL     1      26.199  46.202  54.233  1.00  0.00    -0.356 OA
HETATM   31  C   UNL     1      26.934  47.401  54.448  1.00  0.00     0.210 C 
ENDBRANCH  26  30
ENDBRANCH  23  24
ENDBRANCH  22  23
ENDBRANCH   1  22
TORSDOF 6
ENDMDL
