MODEL 1
REMARK VINA RESULT:      -9.9      0.000      0.000
REMARK  5 active torsions:
REMARK  status: ('A' for Active; 'I' for Inactive)
REMARK    1  A    between atoms: C_7  and  C_8 
REMARK    2  A    between atoms: C_16  and  C_17 
REMARK    3  A    between atoms: C_19  and  O_20 
REMARK    4  A    between atoms: C_24  and  C_25 
REMARK       I    between atoms: C_25  and  N_26 
REMARK    5  A    between atoms: N_26  and  C_27 
ROOT
HETATM    1  C   UNL     1      23.265  43.826  47.716  1.00  0.00     0.070 C 
HETATM    2  C   UNL     1      23.203  45.231  48.262  1.00  0.00     0.037 C 
HETATM    3  N   UNL     1      22.336  46.099  47.593  1.00  0.00    -0.192 N 
HETATM    4  C   UNL     1      21.942  47.272  48.133  1.00  0.00     0.726 A 
HETATM    5  N   UNL     1      22.624  47.770  49.203  1.00  0.00    -0.083 N 
HETATM    6  N   UNL     1      22.034  48.869  49.707  1.00  0.00    -0.135 NA
HETATM    7  C   UNL     1      21.000  49.023  48.857  1.00  0.00     0.199 A 
HETATM    8  N   UNL     1      20.929  48.054  47.867  1.00  0.00    -0.041 NA
HETATM    9  C   UNL     1      23.796  47.124  49.793  1.00  0.00     0.202 C 
HETATM   10  C   UNL     1      23.905  45.670  49.341  1.00  0.00     0.062 C 
HETATM   11  H   UNL     1      21.723  45.676  46.900  1.00  0.00     0.184 HD
ENDROOT
BRANCH  10  12
HETATM   12  C   UNL     1      24.605  44.706  50.249  1.00  0.00     0.256 C 
HETATM   13  N   UNL     1      25.862  44.325  49.832  1.00  0.00    -0.323 N 
HETATM   14  H   UNL     1      26.181  44.618  48.918  1.00  0.00     0.169 HD
HETATM   15  O   UNL     1      24.062  44.376  51.298  1.00  0.00    -0.267 OA
BRANCH  13  16
HETATM   16  C   UNL     1      26.805  43.560  50.554  1.00  0.00     0.035 A 
HETATM   17  C   UNL     1      27.005  42.189  50.380  1.00  0.00     0.029 A 
HETATM   18  C   UNL     1      27.947  41.505  51.155  1.00  0.00     0.002 A 
HETATM   19  C   UNL     1      28.692  42.182  52.116  1.00  0.00     0.000 A 
HETATM   20  C   UNL     1      28.503  43.549  52.298  1.00  0.00     0.002 A 
HETATM   21  C   UNL     1      27.569  44.235  51.516  1.00  0.00     0.029 A 
ENDBRANCH  13  16
ENDBRANCH  10  12
BRANCH   9  22
HETATM   22  C   UNL     1      25.037  47.959  49.467  1.00  0.00    -0.025 A 
HETATM   23  C   UNL     1      24.991  49.047  48.572  1.00  0.00     0.046 A 
HETATM   24  C   UNL     1      26.150  49.763  48.285  1.00  0.00     0.066 A 
HETATM   25  C   UNL     1      27.359  49.435  48.884  1.00  0.00     0.036 A 
HETATM   26  C   UNL     1      27.414  48.381  49.792  1.00  0.00     0.003 A 
HETATM   27  C   UNL     1      26.261  47.648  50.084  1.00  0.00     0.010 A 
BRANCH  24  28
HETATM   28  O   UNL     1      26.141  50.807  47.408  1.00  0.00    -0.361 OA
HETATM   29  H   UNL     1      26.394  50.488  46.526  1.00  0.00     0.217 HD
ENDBRANCH  24  28
ENDBRANCH   9  22
BRANCH   7  30
HETATM   30  C   UNL     1      20.001  50.080  48.987  1.00  0.00     0.014 A 
HETATM   31  C   UNL     1      20.185  51.326  48.366  1.00  0.00     0.017 A 
HETATM   32  C   UNL     1      19.239  52.345  48.512  1.00  0.00     0.025 A 
HETATM   33  C   UNL     1      18.100  52.124  49.284  1.00  0.00     0.034 A 
HETATM   34 CL   UNL     1      16.940  53.379  49.473  1.00  0.00    -0.084 Cl
HETATM   35  C   UNL     1      17.899  50.894  49.906  1.00  0.00     0.025 A 
HETATM   36  C   UNL     1      18.846  49.876  49.756  1.00  0.00     0.017 A 
ENDBRANCH   7  30
TORSDOF 5
ENDMDL
MODEL 2
REMARK VINA RESULT:      -9.7      3.723      8.843
REMARK  5 active torsions:
REMARK  status: ('A' for Active; 'I' for Inactive)
REMARK    1  A    between atoms: C_7  and  C_8 
REMARK    2  A    between atoms: C_16  and  C_17 
REMARK    3  A    between atoms: C_19  and  O_20 
REMARK    4  A    between atoms: C_24  and  C_25 
REMARK       I    between atoms: C_25  and  N_26 
REMARK    5  A    between atoms: N_26  and  C_27 
ROOT
HETATM    1  C   UNL     1      24.753  50.222  47.667  1.00  0.00     0.070 C 
HETATM    2  C   UNL     1      24.688  49.072  48.642  1.00  0.00     0.037 C 
HETATM    3  N   UNL     1      25.900  48.727  49.247  1.00  0.00    -0.192 N 
HETATM    4  C   UNL     1      25.953  47.944  50.345  1.00  0.00     0.726 A 
HETATM    5  N   UNL     1      24.849  47.227  50.700  1.00  0.00    -0.083 N 
HETATM    6  N   UNL     1      25.013  46.605  51.883  1.00  0.00    -0.135 NA
HETATM    7  C   UNL     1      26.280  46.950  52.184  1.00  0.00     0.199 A 
HETATM    8  N   UNL     1      26.886  47.768  51.242  1.00  0.00    -0.041 NA
HETATM    9  C   UNL     1      23.601  47.224  49.938  1.00  0.00     0.202 C 
HETATM   10  C   UNL     1      23.552  48.397  48.962  1.00  0.00     0.062 C 
HETATM   11  H   UNL     1      26.678  49.363  49.091  1.00  0.00     0.184 HD
ENDROOT
BRANCH  10  12
HETATM   12  C   UNL     1      22.206  48.922  48.567  1.00  0.00     0.256 C 
HETATM   13  N   UNL     1      21.617  49.760  49.488  1.00  0.00    -0.323 N 
HETATM   14  H   UNL     1      22.058  49.877  50.391  1.00  0.00     0.169 HD
HETATM   15  O   UNL     1      21.757  48.634  47.463  1.00  0.00    -0.267 OA
BRANCH  13  16
HETATM   16  C   UNL     1      20.437  50.518  49.321  1.00  0.00     0.035 A 
HETATM   17  C   UNL     1      20.343  51.662  48.524  1.00  0.00     0.029 A 
HETATM   18  C   UNL     1      19.139  52.366  48.433  1.00  0.00     0.002 A 
HETATM   19  C   UNL     1      18.018  51.940  49.142  1.00  0.00     0.000 A 
HETATM   20  C   UNL     1      18.100  50.800  49.937  1.00  0.00     0.002 A 
HETATM   21  C   UNL     1      19.301  50.090  50.021  1.00  0.00     0.029 A 
ENDBRANCH  13  16
ENDBRANCH  10  12
BRANCH   9  22
HETATM   22  C   UNL     1      23.440  45.860  49.261  1.00  0.00    -0.025 A 
HETATM   23  C   UNL     1      24.526  44.978  49.091  1.00  0.00     0.046 A 
HETATM   24  C   UNL     1      24.339  43.757  48.446  1.00  0.00     0.066 A 
HETATM   25  C   UNL     1      23.087  43.382  47.979  1.00  0.00     0.036 A 
HETATM   26  C   UNL     1      21.999  44.231  48.163  1.00  0.00     0.003 A 
HETATM   27  C   UNL     1      22.172  45.462  48.801  1.00  0.00     0.010 A 
BRANCH  24  28
HETATM   28  O   UNL     1      25.374  42.892  48.251  1.00  0.00    -0.361 OA
HETATM   29  H   UNL     1      25.030  42.057  47.891  1.00  0.00     0.217 HD
ENDBRANCH  24  28
ENDBRANCH   9  22
BRANCH   7  30
HETATM   30  C   UNL     1      26.951  46.550  53.419  1.00  0.00     0.014 A 
HETATM   31  C   UNL     1      27.238  47.492  54.420  1.00  0.00     0.017 A 
HETATM   32  C   UNL     1      27.902  47.111  55.590  1.00  0.00     0.025 A 
HETATM   33  C   UNL     1      28.285  45.783  55.765  1.00  0.00     0.034 A 
HETATM   34 CL   UNL     1      29.111  45.315  57.199  1.00  0.00    -0.084 Cl
HETATM   35  C   UNL     1      28.008  44.835  54.784  1.00  0.00     0.025 A 
HETATM   36  C   UNL     1      27.341  45.218  53.615  1.00  0.00     0.017 A 
ENDBRANCH   7  30
TORSDOF 5
ENDMDL
MODEL 3
REMARK VINA RESULT:      -9.6      5.986      9.297
REMARK  5 active torsions:
REMARK  status: ('A' for Active; 'I' for Inactive)
REMARK    1  A    between atoms: C_7  and  C_8 
REMARK    2  A    between atoms: C_16  and  C_17 
REMARK    3  A    between atoms: C_19  and  O_20 
REMARK    4  A    between atoms: C_24  and  C_25 
REMARK       I    between atoms: C_25  and  N_26 
REMARK    5  A    between atoms: N_26  and  C_27 
ROOT
HETATM    1  C   UNL     1      27.484  38.667  49.454  1.00  0.00     0.070 C 
HETATM    2  C   UNL     1      27.381  40.065  50.010  1.00  0.00     0.037 C 
HETATM    3  N   UNL     1      27.516  40.172  51.398  1.00  0.00    -0.192 N 
HETATM    4  C   UNL     1      27.752  41.355  52.003  1.00  0.00     0.726 A 
HETATM    5  N   UNL     1      27.557  42.508  51.302  1.00  0.00    -0.083 N 
HETATM    6  N   UNL     1      27.960  43.590  51.993  1.00  0.00    -0.135 NA
HETATM    7  C   UNL     1      28.358  43.026  53.151  1.00  0.00     0.199 A 
HETATM    8  N   UNL     1      28.227  41.646  53.185  1.00  0.00    -0.041 NA
HETATM    9  C   UNL     1      27.068  42.549  49.925  1.00  0.00     0.202 C 
HETATM   10  C   UNL     1      27.191  41.182  49.258  1.00  0.00     0.062 C 
HETATM   11  H   UNL     1      27.813  39.331  51.887  1.00  0.00     0.184 HD
ENDROOT
BRANCH  10  12
HETATM   12  C   UNL     1      27.338  41.141  47.768  1.00  0.00     0.256 C 
HETATM   13  N   UNL     1      26.211  40.741  47.085  1.00  0.00    -0.323 N 
HETATM   14  H   UNL     1      25.416  40.404  47.613  1.00  0.00     0.169 HD
HETATM   15  O   UNL     1      28.394  41.510  47.264  1.00  0.00    -0.267 OA
BRANCH  13  16
HETATM   16  C   UNL     1      26.008  40.758  45.687  1.00  0.00     0.035 A 
HETATM   17  C   UNL     1      26.824  40.097  44.765  1.00  0.00     0.029 A 
HETATM   18  C   UNL     1      26.564  40.187  43.395  1.00  0.00     0.002 A 
HETATM   19  C   UNL     1      25.491  40.943  42.930  1.00  0.00     0.000 A 
HETATM   20  C   UNL     1      24.670  41.604  43.839  1.00  0.00     0.002 A 
HETATM   21  C   UNL     1      24.924  41.507  45.210  1.00  0.00     0.029 A 
ENDBRANCH  13  16
ENDBRANCH  10  12
BRANCH   9  22
HETATM   22  C   UNL     1      25.639  43.101  49.925  1.00  0.00    -0.025 A 
HETATM   23  C   UNL     1      25.373  44.484  49.908  1.00  0.00     0.046 A 
HETATM   24  C   UNL     1      24.058  44.942  49.935  1.00  0.00     0.066 A 
HETATM   25  C   UNL     1      22.993  44.052  49.959  1.00  0.00     0.036 A 
HETATM   26  C   UNL     1      23.240  42.682  49.948  1.00  0.00     0.003 A 
HETATM   27  C   UNL     1      24.553  42.207  49.929  1.00  0.00     0.010 A 
BRANCH  24  28
HETATM   28  O   UNL     1      23.770  46.275  49.939  1.00  0.00    -0.361 OA
HETATM   29  H   UNL     1      22.955  46.428  49.432  1.00  0.00     0.217 HD
ENDBRANCH  24  28
ENDBRANCH   9  22
BRANCH   7  30
HETATM   30  C   UNL     1      28.930  43.785  54.260  1.00  0.00     0.014 A 
HETATM   31  C   UNL     1      30.129  43.379  54.867  1.00  0.00     0.017 A 
HETATM   32  C   UNL     1      30.662  44.093  55.945  1.00  0.00     0.025 A 
HETATM   33  C   UNL     1      29.996  45.219  56.424  1.00  0.00     0.034 A 
HETATM   34 CL   UNL     1      30.644  46.093  57.757  1.00  0.00    -0.084 Cl
HETATM   35  C   UNL     1      28.806  45.638  55.834  1.00  0.00     0.025 A 
HETATM   36  C   UNL     1      28.276  44.923  54.754  1.00  0.00     0.017 A 
ENDBRANCH   7  30
TORSDOF 5
ENDMDL
MODEL 4
REMARK VINA RESULT:      -9.2      4.908      7.023
REMARK  5 active torsions:
REMARK  status: ('A' for Active; 'I' for Inactive)
REMARK    1  A    between atoms: C_7  and  C_8 
REMARK    2  A    between atoms: C_16  and  C_17 
REMARK    3  A    between atoms: C_19  and  O_20 
REMARK    4  A    between atoms: C_24  and  C_25 
REMARK       I    between atoms: C_25  and  N_26 
REMARK    5  A    between atoms: N_26  and  C_27 
ROOT
HETATM    1  C   UNL     1      28.979  41.601  51.976  1.00  0.00     0.070 C 
HETATM    2  C   UNL     1      27.766  42.269  51.377  1.00  0.00     0.037 C 
HETATM    3  N   UNL     1      27.377  41.795  50.121  1.00  0.00    -0.192 N 
HETATM    4  C   UNL     1      26.161  42.065  49.600  1.00  0.00     0.726 A 
HETATM    5  N   UNL     1      25.410  43.058  50.155  1.00  0.00    -0.083 N 
HETATM    6  N   UNL     1      24.178  43.117  49.616  1.00  0.00    -0.135 NA
HETATM    7  C   UNL     1      24.255  42.145  48.686  1.00  0.00     0.199 A 
HETATM    8  N   UNL     1      25.476  41.488  48.649  1.00  0.00    -0.041 NA
HETATM    9  C   UNL     1      25.855  43.886  51.275  1.00  0.00     0.202 C 
HETATM   10  C   UNL     1      27.050  43.253  51.983  1.00  0.00     0.062 C 
HETATM   11  H   UNL     1      27.849  40.956  49.791  1.00  0.00     0.184 HD
ENDROOT
BRANCH  10  12
HETATM   12  C   UNL     1      27.255  43.574  53.432  1.00  0.00     0.256 C 
HETATM   13  N   UNL     1      28.414  44.262  53.715  1.00  0.00    -0.323 N 
HETATM   14  H   UNL     1      29.087  44.407  52.974  1.00  0.00     0.169 HD
HETATM   15  O   UNL     1      26.382  43.269  54.237  1.00  0.00    -0.267 OA
BRANCH  13  16
HETATM   16  C   UNL     1      28.789  44.829  54.954  1.00  0.00     0.035 A 
HETATM   17  C   UNL     1      28.060  45.816  55.621  1.00  0.00     0.029 A 
HETATM   18  C   UNL     1      28.518  46.338  56.834  1.00  0.00     0.002 A 
HETATM   19  C   UNL     1      29.711  45.885  57.391  1.00  0.00     0.000 A 
HETATM   20  C   UNL     1      30.445  44.900  56.736  1.00  0.00     0.002 A 
HETATM   21  C   UNL     1      29.983  44.370  55.528  1.00  0.00     0.029 A 
ENDBRANCH  13  16
ENDBRANCH  10  12
BRANCH   9  22
HETATM   22  C   UNL     1      26.131  45.302  50.762  1.00  0.00    -0.025 A 
HETATM   23  C   UNL     1      27.154  45.574  49.831  1.00  0.00     0.046 A 
HETATM   24  C   UNL     1      27.386  46.881  49.411  1.00  0.00     0.066 A 
HETATM   25  C   UNL     1      26.608  47.931  49.882  1.00  0.00     0.036 A 
HETATM   26  C   UNL     1      25.576  47.674  50.781  1.00  0.00     0.003 A 
HETATM   27  C   UNL     1      25.336  46.369  51.218  1.00  0.00     0.010 A 
BRANCH  24  28
HETATM   28  O   UNL     1      28.380  47.177  48.527  1.00  0.00    -0.361 OA
HETATM   29  H   UNL     1      28.115  47.944  47.992  1.00  0.00     0.217 HD
ENDBRANCH  24  28
ENDBRANCH   9  22
BRANCH   7  30
HETATM   30  C   UNL     1      23.139  41.767  47.822  1.00  0.00     0.014 A 
HETATM   31  C   UNL     1      22.797  40.418  47.636  1.00  0.00     0.017 A 
HETATM   32  C   UNL     1      21.743  40.059  46.790  1.00  0.00     0.025 A 
HETATM   33  C   UNL     1      21.025  41.049  46.122  1.00  0.00     0.034 A 
HETATM   34 CL   UNL     1      19.736  40.608  45.072  1.00  0.00    -0.084 Cl
HETATM   35  C   UNL     1      21.349  42.392  46.295  1.00  0.00     0.025 A 
HETATM   36  C   UNL     1      22.402  42.749  47.144  1.00  0.00     0.017 A 
ENDBRANCH   7  30
TORSDOF 5
ENDMDL
MODEL 5
REMARK VINA RESULT:      -9.0      3.491      5.041
REMARK  5 active torsions:
REMARK  status: ('A' for Active; 'I' for Inactive)
REMARK    1  A    between atoms: C_7  and  C_8 
REMARK    2  A    between atoms: C_16  and  C_17 
REMARK    3  A    between atoms: C_19  and  O_20 
REMARK    4  A    between atoms: C_24  and  C_25 
REMARK       I    between atoms: C_25  and  N_26 
REMARK    5  A    between atoms: N_26  and  C_27 
ROOT
HETATM    1  C   UNL     1      26.690  42.487  50.342  1.00  0.00     0.070 C 
HETATM    2  C   UNL     1      25.595  43.441  49.933  1.00  0.00     0.037 C 
HETATM    3  N   UNL     1      25.001  43.180  48.695  1.00  0.00    -0.192 N 
HETATM    4  C   UNL     1      23.827  43.740  48.333  1.00  0.00     0.726 A 
HETATM    5  N   UNL     1      23.357  44.806  49.042  1.00  0.00    -0.083 N 
HETATM    6  N   UNL     1      22.121  45.165  48.648  1.00  0.00    -0.135 NA
HETATM    7  C   UNL     1      21.905  44.293  47.643  1.00  0.00     0.199 A 
HETATM    8  N   UNL     1      22.951  43.410  47.422  1.00  0.00    -0.041 NA
HETATM    9  C   UNL     1      24.068  45.414  50.166  1.00  0.00     0.202 C 
HETATM   10  C   UNL     1      25.162  44.486  50.688  1.00  0.00     0.062 C 
HETATM   11  H   UNL     1      25.253  42.300  48.252  1.00  0.00     0.184 HD
ENDROOT
BRANCH  10  12
HETATM   12  C   UNL     1      25.562  44.616  52.125  1.00  0.00     0.256 C 
HETATM   13  N   UNL     1      26.762  45.258  52.337  1.00  0.00    -0.323 N 
HETATM   14  H   UNL     1      27.335  45.495  51.539  1.00  0.00     0.169 HD
HETATM   15  O   UNL     1      24.796  44.212  52.994  1.00  0.00    -0.267 OA
BRANCH  13  16
HETATM   16  C   UNL     1      27.308  45.658  53.578  1.00  0.00     0.035 A 
HETATM   17  C   UNL     1      26.994  46.854  54.227  1.00  0.00     0.029 A 
HETATM   18  C   UNL     1      27.600  47.183  55.443  1.00  0.00     0.002 A 
HETATM   19  C   UNL     1      28.531  46.323  56.020  1.00  0.00     0.000 A 
HETATM   20  C   UNL     1      28.851  45.127  55.383  1.00  0.00     0.002 A 
HETATM   21  C   UNL     1      28.238  44.794  54.172  1.00  0.00     0.029 A 
ENDBRANCH  13  16
ENDBRANCH  10  12
BRANCH   9  22
HETATM   22  C   UNL     1      24.588  46.788  49.735  1.00  0.00    -0.025 A 
HETATM   23  C   UNL     1      25.965  47.066  49.631  1.00  0.00     0.046 A 
HETATM   24  C   UNL     1      26.394  48.338  49.259  1.00  0.00     0.066 A 
HETATM   25  C   UNL     1      25.481  49.343  48.970  1.00  0.00     0.036 A 
HETATM   26  C   UNL     1      24.116  49.075  49.043  1.00  0.00     0.003 A 
HETATM   27  C   UNL     1      23.670  47.807  49.420  1.00  0.00     0.010 A 
BRANCH  24  28
HETATM   28  O   UNL     1      27.720  48.642  49.168  1.00  0.00    -0.361 OA
HETATM   29  H   UNL     1      28.002  49.092  49.982  1.00  0.00     0.217 HD
ENDBRANCH  24  28
ENDBRANCH   9  22
BRANCH   7  30
HETATM   30  C   UNL     1      20.660  44.235  46.881  1.00  0.00     0.014 A 
HETATM   31  C   UNL     1      19.504  44.888  47.339  1.00  0.00     0.017 A 
HETATM   32  C   UNL     1      18.308  44.810  46.620  1.00  0.00     0.025 A 
HETATM   33  C   UNL     1      18.259  44.077  45.437  1.00  0.00     0.034 A 
HETATM   34 CL   UNL     1      16.785  43.972  44.557  1.00  0.00    -0.084 Cl
HETATM   35  C   UNL     1      19.395  43.424  44.966  1.00  0.00     0.025 A 
HETATM   36  C   UNL     1      20.592  43.505  45.686  1.00  0.00     0.017 A 
ENDBRANCH   7  30
TORSDOF 5
ENDMDL
MODEL 6
REMARK VINA RESULT:      -8.8      6.042      9.749
REMARK  5 active torsions:
REMARK  status: ('A' for Active; 'I' for Inactive)
REMARK    1  A    between atoms: C_7  and  C_8 
REMARK    2  A    between atoms: C_16  and  C_17 
REMARK    3  A    between atoms: C_19  and  O_20 
REMARK    4  A    between atoms: C_24  and  C_25 
REMARK       I    between atoms: C_25  and  N_26 
REMARK    5  A    between atoms: N_26  and  C_27 
ROOT
HETATM    1  C   UNL     1      23.791  44.515  47.799  1.00  0.00     0.070 C 
HETATM    2  C   UNL     1      24.738  43.677  48.622  1.00  0.00     0.037 C 
HETATM    3  N   UNL     1      25.829  44.361  49.165  1.00  0.00    -0.192 N 
HETATM    4  C   UNL     1      26.581  43.835  50.155  1.00  0.00     0.726 A 
HETATM    5  N   UNL     1      26.476  42.504  50.430  1.00  0.00    -0.083 N 
HETATM    6  N   UNL     1      27.182  42.159  51.522  1.00  0.00    -0.135 NA
HETATM    7  C   UNL     1      27.745  43.339  51.850  1.00  0.00     0.199 A 
HETATM    8  N   UNL     1      27.398  44.387  51.012  1.00  0.00    -0.041 NA
HETATM    9  C   UNL     1      25.614  41.585  49.687  1.00  0.00     0.202 C 
HETATM   10  C   UNL     1      24.577  42.349  48.867  1.00  0.00     0.062 C 
HETATM   11  H   UNL     1      25.811  45.374  49.082  1.00  0.00     0.184 HD
ENDROOT
BRANCH  10  12
HETATM   12  C   UNL     1      23.285  41.659  48.556  1.00  0.00     0.256 C 
HETATM   13  N   UNL     1      23.244  41.029  47.332  1.00  0.00    -0.323 N 
HETATM   14  H   UNL     1      24.016  41.158  46.692  1.00  0.00     0.169 HD
HETATM   15  O   UNL     1      22.399  41.647  49.404  1.00  0.00    -0.267 OA
BRANCH  13  16
HETATM   16  C   UNL     1      22.227  40.178  46.844  1.00  0.00     0.035 A 
HETATM   17  C   UNL     1      22.248  38.785  46.949  1.00  0.00     0.029 A 
HETATM   18  C   UNL     1      21.209  38.017  46.416  1.00  0.00     0.002 A 
HETATM   19  C   UNL     1      20.141  38.631  45.768  1.00  0.00     0.000 A 
HETATM   20  C   UNL     1      20.107  40.019  45.659  1.00  0.00     0.002 A 
HETATM   21  C   UNL     1      21.142  40.788  46.200  1.00  0.00     0.029 A 
ENDBRANCH  13  16
ENDBRANCH  10  12
BRANCH   9  22
HETATM   22  C   UNL     1      26.493  40.656  48.845  1.00  0.00    -0.025 A 
HETATM   23  C   UNL     1      26.742  39.321  49.221  1.00  0.00     0.046 A 
HETATM   24  C   UNL     1      27.569  38.518  48.438  1.00  0.00     0.066 A 
HETATM   25  C   UNL     1      28.142  39.008  47.272  1.00  0.00     0.036 A 
HETATM   26  C   UNL     1      27.883  40.316  46.873  1.00  0.00     0.003 A 
HETATM   27  C   UNL     1      27.062  41.136  47.652  1.00  0.00     0.010 A 
BRANCH  24  28
HETATM   28  O   UNL     1      27.844  37.229  48.786  1.00  0.00    -0.361 OA
HETATM   29  H   UNL     1      28.341  36.803  48.069  1.00  0.00     0.217 HD
ENDBRANCH  24  28
ENDBRANCH   9  22
BRANCH   7  30
HETATM   30  C   UNL     1      28.605  43.523  53.017  1.00  0.00     0.014 A 
HETATM   31  C   UNL     1      29.832  42.849  53.121  1.00  0.00     0.017 A 
HETATM   32  C   UNL     1      30.641  43.009  54.250  1.00  0.00     0.025 A 
HETATM   33  C   UNL     1      30.226  43.845  55.285  1.00  0.00     0.034 A 
HETATM   34 CL   UNL     1      31.216  44.035  56.679  1.00  0.00    -0.084 Cl
HETATM   35  C   UNL     1      29.013  44.523  55.199  1.00  0.00     0.025 A 
HETATM   36  C   UNL     1      28.206  44.363  54.067  1.00  0.00     0.017 A 
ENDBRANCH   7  30
TORSDOF 5
ENDMDL
MODEL 7
REMARK VINA RESULT:      -8.7      6.920      9.513
REMARK  5 active torsions:
REMARK  status: ('A' for Active; 'I' for Inactive)
REMARK    1  A    between atoms: C_7  and  C_8 
REMARK    2  A    between atoms: C_16  and  C_17 
REMARK    3  A    between atoms: C_19  and  O_20 
REMARK    4  A    between atoms: C_24  and  C_25 
REMARK       I    between atoms: C_25  and  N_26 
REMARK    5  A    between atoms: N_26  and  C_27 
ROOT
HETATM    1  C   UNL     1      14.810  51.180  44.743  1.00  0.00     0.070 C 
HETATM    2  C   UNL     1      15.135  51.464  46.189  1.00  0.00     0.037 C 
HETATM    3  N   UNL     1      14.923  52.781  46.605  1.00  0.00    -0.192 N 
HETATM    4  C   UNL     1      14.871  53.118  47.911  1.00  0.00     0.726 A 
HETATM    5  N   UNL     1      15.330  52.232  48.841  1.00  0.00    -0.083 N 
HETATM    6  N   UNL     1      15.089  52.654  50.097  1.00  0.00    -0.135 NA
HETATM    7  C   UNL     1      14.510  53.848  49.864  1.00  0.00     0.199 A 
HETATM    8  N   UNL     1      14.376  54.162  48.520  1.00  0.00    -0.041 NA
HETATM    9  C   UNL     1      15.916  50.935  48.510  1.00  0.00     0.202 C 
HETATM   10  C   UNL     1      15.585  50.535  47.074  1.00  0.00     0.062 C 
HETATM   11  H   UNL     1      14.438  53.388  45.949  1.00  0.00     0.184 HD
ENDROOT
BRANCH  10  12
HETATM   12  C   UNL     1      15.541  49.074  46.747  1.00  0.00     0.256 C 
HETATM   13  N   UNL     1      16.730  48.545  46.296  1.00  0.00    -0.323 N 
HETATM   14  H   UNL     1      17.502  49.171  46.112  1.00  0.00     0.169 HD
HETATM   15  O   UNL     1      14.505  48.450  46.952  1.00  0.00    -0.267 OA
BRANCH  13  16
HETATM   16  C   UNL     1      17.025  47.182  46.065  1.00  0.00     0.035 A 
HETATM   17  C   UNL     1      16.676  46.488  44.904  1.00  0.00     0.029 A 
HETATM   18  C   UNL     1      16.987  45.132  44.767  1.00  0.00     0.002 A 
HETATM   19  C   UNL     1      17.643  44.454  45.792  1.00  0.00     0.000 A 
HETATM   20  C   UNL     1      17.997  45.136  46.953  1.00  0.00     0.002 A 
HETATM   21  C   UNL     1      17.695  46.494  47.085  1.00  0.00     0.029 A 
ENDBRANCH  13  16
ENDBRANCH  10  12
BRANCH   9  22
HETATM   22  C   UNL     1      17.419  50.984  48.798  1.00  0.00    -0.025 A 
HETATM   23  C   UNL     1      18.085  49.941  49.472  1.00  0.00     0.046 A 
HETATM   24  C   UNL     1      19.449  50.039  49.736  1.00  0.00     0.066 A 
HETATM   25  C   UNL     1      20.176  51.148  49.327  1.00  0.00     0.036 A 
HETATM   26  C   UNL     1      19.538  52.175  48.635  1.00  0.00     0.003 A 
HETATM   27  C   UNL     1      18.169  52.094  48.370  1.00  0.00     0.010 A 
BRANCH  24  28
HETATM   28  O   UNL     1      20.116  49.055  50.403  1.00  0.00    -0.361 OA
HETATM   29  H   UNL     1      21.065  49.260  50.411  1.00  0.00     0.217 HD
ENDBRANCH  24  28
ENDBRANCH   9  22
BRANCH   7  30
HETATM   30  C   UNL     1      14.013  54.722  50.924  1.00  0.00     0.014 A 
HETATM   31  C   UNL     1      12.736  55.300  50.841  1.00  0.00     0.017 A 
HETATM   32  C   UNL     1      12.273  56.155  51.845  1.00  0.00     0.025 A 
HETATM   33  C   UNL     1      13.085  56.438  52.940  1.00  0.00     0.034 A 
HETATM   34 CL   UNL     1      12.520  57.498  54.172  1.00  0.00    -0.084 Cl
HETATM   35  C   UNL     1      14.354  55.873  53.042  1.00  0.00     0.025 A 
HETATM   36  C   UNL     1      14.815  55.015  52.037  1.00  0.00     0.017 A 
ENDBRANCH   7  30
TORSDOF 5
ENDMDL
MODEL 8
REMARK VINA RESULT:      -8.7      1.847      2.781
REMARK  5 active torsions:
REMARK  status: ('A' for Active; 'I' for Inactive)
REMARK    1  A    between atoms: C_7  and  C_8 
REMARK    2  A    between atoms: C_16  and  C_17 
REMARK    3  A    between atoms: C_19  and  O_20 
REMARK    4  A    between atoms: C_24  and  C_25 
REMARK       I    between atoms: C_25  and  N_26 
REMARK    5  A    between atoms: N_26  and  C_27 
ROOT
HETATM    1  C   UNL     1      21.256  44.618  45.904  1.00  0.00     0.070 C 
HETATM    2  C   UNL     1      21.233  45.812  46.826  1.00  0.00     0.037 C 
HETATM    3  N   UNL     1      20.437  46.881  46.405  1.00  0.00    -0.192 N 
HETATM    4  C   UNL     1      20.073  47.874  47.244  1.00  0.00     0.726 A 
HETATM    5  N   UNL     1      20.728  48.009  48.432  1.00  0.00    -0.083 N 
HETATM    6  N   UNL     1      20.166  48.952  49.211  1.00  0.00    -0.135 NA
HETATM    7  C   UNL     1      19.180  49.398  48.408  1.00  0.00     0.199 A 
HETATM    8  N   UNL     1      19.110  48.754  47.182  1.00  0.00    -0.041 NA
HETATM    9  C   UNL     1      21.841  47.157  48.850  1.00  0.00     0.202 C 
HETATM   10  C   UNL     1      21.905  45.887  48.005  1.00  0.00     0.062 C 
HETATM   11  H   UNL     1      19.838  46.707  45.602  1.00  0.00     0.184 HD
ENDROOT
BRANCH  10  12
HETATM   12  C   UNL     1      22.518  44.668  48.622  1.00  0.00     0.256 C 
HETATM   13  N   UNL     1      23.810  44.404  48.224  1.00  0.00    -0.323 N 
HETATM   14  H   UNL     1      24.214  44.961  47.483  1.00  0.00     0.169 HD
HETATM   15  O   UNL     1      21.878  44.038  49.458  1.00  0.00    -0.267 OA
BRANCH  13  16
HETATM   16  C   UNL     1      24.683  43.425  48.751  1.00  0.00     0.035 A 
HETATM   17  C   UNL     1      25.730  43.699  49.633  1.00  0.00     0.029 A 
HETATM   18  C   UNL     1      26.562  42.670  50.088  1.00  0.00     0.002 A 
HETATM   19  C   UNL     1      26.359  41.361  49.661  1.00  0.00     0.000 A 
HETATM   20  C   UNL     1      25.317  41.076  48.783  1.00  0.00     0.002 A 
HETATM   21  C   UNL     1      24.480  42.102  48.336  1.00  0.00     0.029 A 
ENDBRANCH  13  16
ENDBRANCH  10  12
BRANCH   9  22
HETATM   22  C   UNL     1      23.132  47.979  48.813  1.00  0.00    -0.025 A 
HETATM   23  C   UNL     1      24.275  47.608  49.550  1.00  0.00     0.046 A 
HETATM   24  C   UNL     1      25.420  48.399  49.507  1.00  0.00     0.066 A 
HETATM   25  C   UNL     1      25.465  49.549  48.731  1.00  0.00     0.036 A 
HETATM   26  C   UNL     1      24.353  49.914  47.976  1.00  0.00     0.003 A 
HETATM   27  C   UNL     1      23.194  49.134  48.014  1.00  0.00     0.010 A 
BRANCH  24  28
HETATM   28  O   UNL     1      26.534  48.075  50.224  1.00  0.00    -0.361 OA
HETATM   29  H   UNL     1      26.627  47.108  50.253  1.00  0.00     0.217 HD
ENDBRANCH  24  28
ENDBRANCH   9  22
BRANCH   7  30
HETATM   30  C   UNL     1      18.225  50.431  48.804  1.00  0.00     0.014 A 
HETATM   31  C   UNL     1      16.868  50.327  48.458  1.00  0.00     0.017 A 
HETATM   32  C   UNL     1      15.961  51.329  48.817  1.00  0.00     0.025 A 
HETATM   33  C   UNL     1      16.407  52.443  49.524  1.00  0.00     0.034 A 
HETATM   34 CL   UNL     1      15.295  53.682  49.958  1.00  0.00    -0.084 Cl
HETATM   35  C   UNL     1      17.749  52.563  49.878  1.00  0.00     0.025 A 
HETATM   36  C   UNL     1      18.654  51.558  49.520  1.00  0.00     0.017 A 
ENDBRANCH   7  30
TORSDOF 5
ENDMDL
MODEL 9
REMARK VINA RESULT:      -8.6     20.532     22.919
REMARK  5 active torsions:
REMARK  status: ('A' for Active; 'I' for Inactive)
REMARK    1  A    between atoms: C_7  and  C_8 
REMARK    2  A    between atoms: C_16  and  C_17 
REMARK    3  A    between atoms: C_19  and  O_20 
REMARK    4  A    between atoms: C_24  and  C_25 
REMARK       I    between atoms: C_25  and  N_26 
REMARK    5  A    between atoms: N_26  and  C_27 
ROOT
HETATM    1  C   UNL     1      37.099  44.514  63.434  1.00  0.00     0.070 C 
HETATM    2  C   UNL     1      37.795  45.487  64.353  1.00  0.00     0.037 C 
HETATM    3  N   UNL     1      37.551  46.839  64.092  1.00  0.00    -0.192 N 
HETATM    4  C   UNL     1      37.843  47.803  64.990  1.00  0.00     0.726 A 
HETATM    5  N   UNL     1      38.660  47.505  66.040  1.00  0.00    -0.083 N 
HETATM    6  N   UNL     1      38.748  48.524  66.914  1.00  0.00    -0.135 NA
HETATM    7  C   UNL     1      37.982  49.453  66.308  1.00  0.00     0.199 A 
HETATM    8  N   UNL     1      37.421  49.034  65.111  1.00  0.00    -0.041 NA
HETATM    9  C   UNL     1      39.281  46.197  66.241  1.00  0.00     0.202 C 
HETATM   10  C   UNL     1      38.597  45.129  65.391  1.00  0.00     0.062 C 
HETATM   11  H   UNL     1      36.824  47.042  63.411  1.00  0.00     0.184 HD
ENDROOT
BRANCH  10  12
HETATM   12  C   UNL     1      38.641  43.713  65.876  1.00  0.00     0.256 C 
HETATM   13  N   UNL     1      39.382  42.855  65.094  1.00  0.00    -0.323 N 
HETATM   14  H   UNL     1      39.746  43.191  64.213  1.00  0.00     0.169 HD
HETATM   15  O   UNL     1      38.087  43.430  66.933  1.00  0.00    -0.267 OA
BRANCH  13  16
HETATM   16  C   UNL     1      39.727  41.516  65.387  1.00  0.00     0.035 A 
HETATM   17  C   UNL     1      40.784  41.139  66.218  1.00  0.00     0.029 A 
HETATM   18  C   UNL     1      41.070  39.788  66.435  1.00  0.00     0.002 A 
HETATM   19  C   UNL     1      40.307  38.800  65.818  1.00  0.00     0.000 A 
HETATM   20  C   UNL     1      39.250  39.163  64.989  1.00  0.00     0.002 A 
HETATM   21  C   UNL     1      38.958  40.514  64.780  1.00  0.00     0.029 A 
ENDBRANCH  13  16
ENDBRANCH  10  12
BRANCH   9  22
HETATM   22  C   UNL     1      40.784  46.317  65.975  1.00  0.00    -0.025 A 
HETATM   23  C   UNL     1      41.353  45.969  64.733  1.00  0.00     0.046 A 
HETATM   24  C   UNL     1      42.729  46.071  64.543  1.00  0.00     0.066 A 
HETATM   25  C   UNL     1      43.557  46.529  65.558  1.00  0.00     0.036 A 
HETATM   26  C   UNL     1      43.007  46.902  66.781  1.00  0.00     0.003 A 
HETATM   27  C   UNL     1      41.629  46.799  66.990  1.00  0.00     0.010 A 
BRANCH  24  28
HETATM   28  O   UNL     1      43.310  45.724  63.359  1.00  0.00    -0.361 OA
HETATM   29  H   UNL     1      42.842  44.959  62.985  1.00  0.00     0.217 HD
ENDBRANCH  24  28
ENDBRANCH   9  22
BRANCH   7  30
HETATM   30  C   UNL     1      37.712  50.771  66.878  1.00  0.00     0.014 A 
HETATM   31  C   UNL     1      37.938  51.938  66.132  1.00  0.00     0.017 A 
HETATM   32  C   UNL     1      37.702  53.199  66.689  1.00  0.00     0.025 A 
HETATM   33  C   UNL     1      37.239  53.299  67.999  1.00  0.00     0.034 A 
HETATM   34 CL   UNL     1      36.957  54.850  68.689  1.00  0.00    -0.084 Cl
HETATM   35  C   UNL     1      37.007  52.152  68.754  1.00  0.00     0.025 A 
HETATM   36  C   UNL     1      37.241  50.892  68.194  1.00  0.00     0.017 A 
ENDBRANCH   7  30
TORSDOF 5
ENDMDL
MODEL 10
REMARK VINA RESULT:      -8.6      5.530      9.085
REMARK  5 active torsions:
REMARK  status: ('A' for Active; 'I' for Inactive)
REMARK    1  A    between atoms: C_7  and  C_8 
REMARK    2  A    between atoms: C_16  and  C_17 
REMARK    3  A    between atoms: C_19  and  O_20 
REMARK    4  A    between atoms: C_24  and  C_25 
REMARK       I    between atoms: C_25  and  N_26 
REMARK    5  A    between atoms: N_26  and  C_27 
ROOT
HETATM    1  C   UNL     1      23.850  45.542  48.493  1.00  0.00     0.070 C 
HETATM    2  C   UNL     1      24.742  44.692  49.364  1.00  0.00     0.037 C 
HETATM    3  N   UNL     1      25.797  45.367  49.985  1.00  0.00    -0.192 N 
HETATM    4  C   UNL     1      26.482  44.828  51.015  1.00  0.00     0.726 A 
HETATM    5  N   UNL     1      26.360  43.493  51.264  1.00  0.00    -0.083 N 
HETATM    6  N   UNL     1      26.995  43.133  52.395  1.00  0.00    -0.135 NA
HETATM    7  C   UNL     1      27.535  44.307  52.775  1.00  0.00     0.199 A 
HETATM    8  N   UNL     1      27.242  45.368  51.930  1.00  0.00    -0.041 NA
HETATM    9  C   UNL     1      25.548  42.585  50.454  1.00  0.00     0.202 C 
HETATM   10  C   UNL     1      24.566  43.361  49.580  1.00  0.00     0.062 C 
HETATM   11  H   UNL     1      25.784  46.382  49.915  1.00  0.00     0.184 HD
ENDROOT
BRANCH  10  12
HETATM   12  C   UNL     1      23.297  42.677  49.177  1.00  0.00     0.256 C 
HETATM   13  N   UNL     1      23.254  42.259  47.865  1.00  0.00    -0.323 N 
HETATM   14  H   UNL     1      24.006  42.528  47.244  1.00  0.00     0.169 HD
HETATM   15  O   UNL     1      22.431  42.483  50.024  1.00  0.00    -0.267 OA
BRANCH  13  16
HETATM   16  C   UNL     1      22.262  41.458  47.256  1.00  0.00     0.035 A 
HETATM   17  C   UNL     1      22.128  40.082  47.459  1.00  0.00     0.029 A 
HETATM   18  C   UNL     1      21.130  39.361  46.796  1.00  0.00     0.002 A 
HETATM   19  C   UNL     1      20.261  40.005  45.920  1.00  0.00     0.000 A 
HETATM   20  C   UNL     1      20.384  41.376  45.711  1.00  0.00     0.002 A 
HETATM   21  C   UNL     1      21.376  42.099  46.380  1.00  0.00     0.029 A 
ENDBRANCH  13  16
ENDBRANCH  10  12
BRANCH   9  22
HETATM   22  C   UNL     1      26.479  41.667  49.658  1.00  0.00    -0.025 A 
HETATM   23  C   UNL     1      26.915  41.990  48.358  1.00  0.00     0.046 A 
HETATM   24  C   UNL     1      27.742  41.113  47.660  1.00  0.00     0.066 A 
HETATM   25  C   UNL     1      28.164  39.922  48.234  1.00  0.00     0.036 A 
HETATM   26  C   UNL     1      27.764  39.601  49.529  1.00  0.00     0.003 A 
HETATM   27  C   UNL     1      26.929  40.467  50.239  1.00  0.00     0.010 A 
BRANCH  24  28
HETATM   28  O   UNL     1      28.163  41.390  46.394  1.00  0.00    -0.361 OA
HETATM   29  H   UNL     1      27.456  41.853  45.915  1.00  0.00     0.217 HD
ENDBRANCH  24  28
ENDBRANCH   9  22
BRANCH   7  30
HETATM   30  C   UNL     1      28.318  44.475  53.997  1.00  0.00     0.014 A 
HETATM   31  C   UNL     1      27.991  45.472  54.930  1.00  0.00     0.017 A 
HETATM   32  C   UNL     1      28.756  45.646  56.087  1.00  0.00     0.025 A 
HETATM   33  C   UNL     1      29.856  44.823  56.317  1.00  0.00     0.034 A 
HETATM   34 CL   UNL     1      30.805  45.043  57.736  1.00  0.00    -0.084 Cl
HETATM   35  C   UNL     1      30.195  43.828  55.405  1.00  0.00     0.025 A 
HETATM   36  C   UNL     1      29.426  43.654  54.249  1.00  0.00     0.017 A 
ENDBRANCH   7  30
TORSDOF 5
ENDMDL
