MODEL 1
REMARK VINA RESULT:      -8.9      0.000      0.000
REMARK  11 active torsions:
REMARK  status: ('A' for Active; 'I' for Inactive)
REMARK    1  A    between atoms: C_2  and  O_3 
REMARK    2  A    between atoms: O_3  and  C_4 
REMARK    3  A    between atoms: C_4  and  C_5 
REMARK    4  A    between atoms: C_5  and  C_6 
REMARK    5  A    between atoms: C_6  and  C_7 
REMARK    6  A    between atoms: C_13  and  C_14 
REMARK    7  A    between atoms: C_14  and  N_15 
REMARK    8  A    between atoms: N_15  and  C_18 
REMARK    9  A    between atoms: N_21  and  C_23 
REMARK   10  A    between atoms: C_23  and  C_24 
REMARK   11  A    between atoms: C_32  and  O_33 
ROOT
HETATM    1  C   UNL     1      21.508  49.334  48.087  1.00  0.00     0.025 A 
HETATM    2  C   UNL     1      22.752  48.940  48.804  1.00  0.00     0.295 A 
HETATM    3  O   UNL     1      23.509  49.750  49.325  1.00  0.00    -0.259 OA
HETATM    4  O   UNL     1      23.073  47.594  48.828  1.00  0.00    -0.274 OA
HETATM    5  C   UNL     1      22.208  46.608  48.332  1.00  0.00     0.101 A 
HETATM    6  C   UNL     1      20.995  46.966  47.746  1.00  0.00     0.005 A 
HETATM    7  C   UNL     1      22.643  45.278  48.452  1.00  0.00     0.035 A 
HETATM    8  C   UNL     1      21.802  44.273  47.972  1.00  0.00     0.076 A 
HETATM    9  C   UNL     1      20.570  44.580  47.410  1.00  0.00     0.038 A 
HETATM   10  C   UNL     1      20.173  45.919  47.299  1.00  0.00     0.017 A 
HETATM   11  C   UNL     1      20.661  48.400  47.594  1.00  0.00    -0.037 A 
HETATM   12  C   UNL     1      19.387  48.720  46.845  1.00  0.00     0.050 C 
ENDROOT
BRANCH   7  13
HETATM   13  C   UNL     1      23.970  44.936  49.063  1.00  0.00     0.276 C 
BRANCH  13  14
HETATM   14  N   UNL     1      24.085  45.543  50.445  1.00  0.00    -0.067 N 
HETATM   15  H   UNL     1      23.254  46.167  50.462  1.00  0.00     0.277 HD
HETATM   16  H   UNL     1      23.858  44.794  51.109  1.00  0.00     0.277 HD
BRANCH  14  17
HETATM   17  C   UNL     1      25.337  46.312  50.739  1.00  0.00     0.189 C 
HETATM   18  C   UNL     1      26.600  45.532  50.370  1.00  0.00     0.060 C 
HETATM   19  C   UNL     1      26.915  44.377  51.311  1.00  0.00     0.237 C 
HETATM   20  N   UNL     1      26.946  44.864  52.739  1.00  0.00    -0.067 N 
HETATM   21  H   UNL     1      27.746  45.509  52.835  1.00  0.00     0.280 HD
HETATM   22  C   UNL     1      25.690  45.572  53.165  1.00  0.00     0.237 C 
HETATM   23  C   UNL     1      25.372  46.719  52.214  1.00  0.00     0.060 C 
BRANCH  20  24
HETATM   24  C   UNL     1      27.280  43.735  53.728  1.00  0.00     0.273 C 
BRANCH  24  25
HETATM   25  C   UNL     1      28.526  43.994  54.524  1.00  0.00    -0.033 A 
HETATM   26  C   UNL     1      29.566  43.051  54.549  1.00  0.00     0.009 A 
HETATM   27  C   UNL     1      30.710  43.284  55.313  1.00  0.00     0.001 A 
HETATM   28  C   UNL     1      30.827  44.455  56.058  1.00  0.00     0.000 A 
HETATM   29  C   UNL     1      29.805  45.399  56.037  1.00  0.00     0.001 A 
HETATM   30  C   UNL     1      28.660  45.175  55.272  1.00  0.00     0.009 A 
ENDBRANCH  24  25
ENDBRANCH  20  24
ENDBRANCH  14  17
ENDBRANCH  13  14
ENDBRANCH   7  13
BRANCH   8  31
HETATM   31  O   UNL     1      22.243  42.978  48.030  1.00  0.00    -0.360 OA
HETATM   32  H   UNL     1      22.485  42.710  47.117  1.00  0.00     0.217 HD
ENDBRANCH   8  31
BRANCH   1  33
HETATM   33  C   UNL     1      21.329  50.841  47.988  1.00  0.00     0.055 C 
BRANCH  33  34
HETATM   34  C   UNL     1      20.651  51.492  49.196  1.00  0.00     0.116 C 
BRANCH  34  35
HETATM   35  C   UNL     1      19.171  51.694  48.995  1.00  0.00     0.259 C 
HETATM   36  O   UNL     1      18.683  52.696  48.483  1.00  0.00    -0.265 OA
BRANCH  35  37
HETATM   37  O   UNL     1      18.480  50.615  49.445  1.00  0.00    -0.322 OA
BRANCH  37  38
HETATM   38  C   UNL     1      18.970  49.994  50.643  1.00  0.00     0.174 C 
HETATM   39  C   UNL     1      18.625  48.518  50.640  1.00  0.00     0.034 C 
ENDBRANCH  37  38
ENDBRANCH  35  37
ENDBRANCH  34  35
ENDBRANCH  33  34
ENDBRANCH   1  33
TORSDOF 11
ENDMDL
MODEL 2
REMARK VINA RESULT:      -8.8      1.426      2.210
REMARK  11 active torsions:
REMARK  status: ('A' for Active; 'I' for Inactive)
REMARK    1  A    between atoms: C_2  and  O_3 
REMARK    2  A    between atoms: O_3  and  C_4 
REMARK    3  A    between atoms: C_4  and  C_5 
REMARK    4  A    between atoms: C_5  and  C_6 
REMARK    5  A    between atoms: C_6  and  C_7 
REMARK    6  A    between atoms: C_13  and  C_14 
REMARK    7  A    between atoms: C_14  and  N_15 
REMARK    8  A    between atoms: N_15  and  C_18 
REMARK    9  A    between atoms: N_21  and  C_23 
REMARK   10  A    between atoms: C_23  and  C_24 
REMARK   11  A    between atoms: C_32  and  O_33 
ROOT
HETATM    1  C   UNL     1      22.800  48.616  48.368  1.00  0.00     0.025 A 
HETATM    2  C   UNL     1      24.037  48.378  49.162  1.00  0.00     0.295 A 
HETATM    3  O   UNL     1      24.790  49.278  49.513  1.00  0.00    -0.259 OA
HETATM    4  O   UNL     1      24.357  47.066  49.464  1.00  0.00    -0.274 OA
HETATM    5  C   UNL     1      23.495  45.998  49.173  1.00  0.00     0.101 A 
HETATM    6  C   UNL     1      22.287  46.227  48.514  1.00  0.00     0.005 A 
HETATM    7  C   UNL     1      23.926  44.721  49.567  1.00  0.00     0.035 A 
HETATM    8  C   UNL     1      23.088  43.639  49.296  1.00  0.00     0.076 A 
HETATM    9  C   UNL     1      21.862  43.823  48.671  1.00  0.00     0.038 A 
HETATM   10  C   UNL     1      21.469  45.112  48.284  1.00  0.00     0.017 A 
HETATM   11  C   UNL     1      21.957  47.600  48.068  1.00  0.00    -0.037 A 
HETATM   12  C   UNL     1      20.691  47.759  47.258  1.00  0.00     0.050 C 
ENDROOT
BRANCH   7  13
HETATM   13  C   UNL     1      25.247  44.513  50.248  1.00  0.00     0.276 C 
BRANCH  13  14
HETATM   14  N   UNL     1      25.203  45.057  51.660  1.00  0.00    -0.067 N 
HETATM   15  H   UNL     1      25.973  45.755  51.632  1.00  0.00     0.277 HD
HETATM   16  H   UNL     1      24.348  45.620  51.726  1.00  0.00     0.277 HD
BRANCH  14  17
HETATM   17  C   UNL     1      25.416  44.070  52.767  1.00  0.00     0.189 C 
HETATM   18  C   UNL     1      25.203  44.689  54.149  1.00  0.00     0.060 C 
HETATM   19  C   UNL     1      26.314  45.636  54.584  1.00  0.00     0.237 C 
HETATM   20  N   UNL     1      27.654  44.953  54.469  1.00  0.00    -0.067 N 
HETATM   21  H   UNL     1      27.676  44.185  55.158  1.00  0.00     0.280 HD
HETATM   22  C   UNL     1      27.934  44.394  53.102  1.00  0.00     0.237 C 
HETATM   23  C   UNL     1      26.814  43.456  52.666  1.00  0.00     0.060 C 
BRANCH  20  24
HETATM   24  C   UNL     1      28.808  45.864  54.916  1.00  0.00     0.273 C 
BRANCH  24  25
HETATM   25  C   UNL     1      29.743  45.204  55.888  1.00  0.00    -0.033 A 
HETATM   26  C   UNL     1      30.438  44.038  55.528  1.00  0.00     0.009 A 
HETATM   27  C   UNL     1      31.285  43.413  56.445  1.00  0.00     0.001 A 
HETATM   28  C   UNL     1      31.444  43.941  57.724  1.00  0.00     0.000 A 
HETATM   29  C   UNL     1      30.764  45.099  58.089  1.00  0.00     0.001 A 
HETATM   30  C   UNL     1      29.919  45.732  57.177  1.00  0.00     0.009 A 
ENDBRANCH  24  25
ENDBRANCH  20  24
ENDBRANCH  14  17
ENDBRANCH  13  14
ENDBRANCH   7  13
BRANCH   8  31
HETATM   31  O   UNL     1      23.527  42.383  49.623  1.00  0.00    -0.360 OA
HETATM   32  H   UNL     1      23.764  42.395  50.576  1.00  0.00     0.217 HD
ENDBRANCH   8  31
BRANCH   1  33
HETATM   33  C   UNL     1      22.625  50.071  47.960  1.00  0.00     0.055 C 
BRANCH  33  34
HETATM   34  C   UNL     1      21.297  50.704  48.383  1.00  0.00     0.116 C 
BRANCH  34  35
HETATM   35  C   UNL     1      21.233  50.990  49.862  1.00  0.00     0.259 C 
HETATM   36  O   UNL     1      22.219  51.047  50.588  1.00  0.00    -0.265 OA
BRANCH  35  37
HETATM   37  O   UNL     1      19.947  51.183  50.251  1.00  0.00    -0.322 OA
BRANCH  37  38
HETATM   38  C   UNL     1      18.985  50.222  49.789  1.00  0.00     0.174 C 
HETATM   39  C   UNL     1      18.990  49.007  50.695  1.00  0.00     0.034 C 
ENDBRANCH  37  38
ENDBRANCH  35  37
ENDBRANCH  34  35
ENDBRANCH  33  34
ENDBRANCH   1  33
TORSDOF 11
ENDMDL
MODEL 3
REMARK VINA RESULT:      -8.8      2.127      3.698
REMARK  11 active torsions:
REMARK  status: ('A' for Active; 'I' for Inactive)
REMARK    1  A    between atoms: C_2  and  O_3 
REMARK    2  A    between atoms: O_3  and  C_4 
REMARK    3  A    between atoms: C_4  and  C_5 
REMARK    4  A    between atoms: C_5  and  C_6 
REMARK    5  A    between atoms: C_6  and  C_7 
REMARK    6  A    between atoms: C_13  and  C_14 
REMARK    7  A    between atoms: C_14  and  N_15 
REMARK    8  A    between atoms: N_15  and  C_18 
REMARK    9  A    between atoms: N_21  and  C_23 
REMARK   10  A    between atoms: C_23  and  C_24 
REMARK   11  A    between atoms: C_32  and  O_33 
ROOT
HETATM    1  C   UNL     1      18.717  49.710  48.860  1.00  0.00     0.025 A 
HETATM    2  C   UNL     1      19.095  48.270  48.840  1.00  0.00     0.295 A 
HETATM    3  O   UNL     1      18.273  47.363  48.861  1.00  0.00    -0.259 OA
HETATM    4  O   UNL     1      20.445  47.967  48.847  1.00  0.00    -0.274 OA
HETATM    5  C   UNL     1      21.436  48.953  48.731  1.00  0.00     0.101 A 
HETATM    6  C   UNL     1      21.084  50.299  48.651  1.00  0.00     0.005 A 
HETATM    7  C   UNL     1      22.766  48.503  48.715  1.00  0.00     0.035 A 
HETATM    8  C   UNL     1      23.775  49.460  48.595  1.00  0.00     0.076 A 
HETATM    9  C   UNL     1      23.470  50.810  48.481  1.00  0.00     0.038 A 
HETATM   10  C   UNL     1      22.131  51.222  48.509  1.00  0.00     0.017 A 
HETATM   11  C   UNL     1      19.656  50.680  48.756  1.00  0.00    -0.037 A 
HETATM   12  C   UNL     1      19.354  52.161  48.781  1.00  0.00     0.050 C 
ENDROOT
BRANCH   7  13
HETATM   13  C   UNL     1      23.106  47.046  48.833  1.00  0.00     0.276 C 
BRANCH  13  14
HETATM   14  N   UNL     1      23.863  46.785  50.117  1.00  0.00    -0.067 N 
HETATM   15  H   UNL     1      24.216  47.737  50.341  1.00  0.00     0.277 HD
HETATM   16  H   UNL     1      23.156  46.597  50.836  1.00  0.00     0.277 HD
BRANCH  14  17
HETATM   17  C   UNL     1      24.990  45.800  50.044  1.00  0.00     0.189 C 
HETATM   18  C   UNL     1      24.772  44.596  50.961  1.00  0.00     0.060 C 
HETATM   19  C   UNL     1      24.944  44.903  52.443  1.00  0.00     0.237 C 
HETATM   20  N   UNL     1      26.278  45.566  52.684  1.00  0.00    -0.067 N 
HETATM   21  H   UNL     1      27.015  44.877  52.470  1.00  0.00     0.280 HD
HETATM   22  C   UNL     1      26.501  46.799  51.854  1.00  0.00     0.237 C 
HETATM   23  C   UNL     1      26.316  46.489  50.373  1.00  0.00     0.060 C 
BRANCH  20  24
HETATM   24  C   UNL     1      26.507  45.879  54.172  1.00  0.00     0.273 C 
BRANCH  24  25
HETATM   25  C   UNL     1      27.814  45.357  54.693  1.00  0.00    -0.033 A 
HETATM   26  C   UNL     1      28.582  46.121  55.587  1.00  0.00     0.009 A 
HETATM   27  C   UNL     1      29.809  45.643  56.047  1.00  0.00     0.001 A 
HETATM   28  C   UNL     1      30.282  44.404  55.621  1.00  0.00     0.000 A 
HETATM   29  C   UNL     1      29.528  43.636  54.740  1.00  0.00     0.001 A 
HETATM   30  C   UNL     1      28.297  44.106  54.278  1.00  0.00     0.009 A 
ENDBRANCH  24  25
ENDBRANCH  20  24
ENDBRANCH  14  17
ENDBRANCH  13  14
ENDBRANCH   7  13
BRANCH   8  31
HETATM   31  O   UNL     1      25.077  49.036  48.639  1.00  0.00    -0.360 OA
HETATM   32  H   UNL     1      25.415  49.225  49.541  1.00  0.00     0.217 HD
ENDBRANCH   8  31
BRANCH   1  33
HETATM   33  C   UNL     1      17.219  49.932  49.007  1.00  0.00     0.055 C 
BRANCH  33  34
HETATM   34  C   UNL     1      16.504  50.373  47.728  1.00  0.00     0.116 C 
BRANCH  34  35
HETATM   35  C   UNL     1      15.678  51.620  47.922  1.00  0.00     0.259 C 
HETATM   36  O   UNL     1      15.298  52.335  47.002  1.00  0.00    -0.265 OA
BRANCH  35  37
HETATM   37  O   UNL     1      15.415  51.813  49.240  1.00  0.00    -0.322 OA
BRANCH  37  38
HETATM   38  C   UNL     1      15.224  53.172  49.663  1.00  0.00     0.174 C 
HETATM   39  C   UNL     1      14.096  53.246  50.672  1.00  0.00     0.034 C 
ENDBRANCH  37  38
ENDBRANCH  35  37
ENDBRANCH  34  35
ENDBRANCH  33  34
ENDBRANCH   1  33
TORSDOF 11
ENDMDL
MODEL 4
REMARK VINA RESULT:      -8.7      2.072      3.739
REMARK  11 active torsions:
REMARK  status: ('A' for Active; 'I' for Inactive)
REMARK    1  A    between atoms: C_2  and  O_3 
REMARK    2  A    between atoms: O_3  and  C_4 
REMARK    3  A    between atoms: C_4  and  C_5 
REMARK    4  A    between atoms: C_5  and  C_6 
REMARK    5  A    between atoms: C_6  and  C_7 
REMARK    6  A    between atoms: C_13  and  C_14 
REMARK    7  A    between atoms: C_14  and  N_15 
REMARK    8  A    between atoms: N_15  and  C_18 
REMARK    9  A    between atoms: N_21  and  C_23 
REMARK   10  A    between atoms: C_23  and  C_24 
REMARK   11  A    between atoms: C_32  and  O_33 
ROOT
HETATM    1  C   UNL     1      18.636  49.766  48.949  1.00  0.00     0.025 A 
HETATM    2  C   UNL     1      18.980  48.318  48.928  1.00  0.00     0.295 A 
HETATM    3  O   UNL     1      18.139  47.429  48.984  1.00  0.00    -0.259 OA
HETATM    4  O   UNL     1      20.323  47.984  48.892  1.00  0.00    -0.274 OA
HETATM    5  C   UNL     1      21.331  48.946  48.736  1.00  0.00     0.101 A 
HETATM    6  C   UNL     1      21.007  50.300  48.657  1.00  0.00     0.005 A 
HETATM    7  C   UNL     1      22.649  48.465  48.679  1.00  0.00     0.035 A 
HETATM    8  C   UNL     1      23.675  49.398  48.518  1.00  0.00     0.076 A 
HETATM    9  C   UNL     1      23.397  50.754  48.403  1.00  0.00     0.038 A 
HETATM   10  C   UNL     1      22.069  51.197  48.472  1.00  0.00     0.017 A 
HETATM   11  C   UNL     1      19.592  50.714  48.806  1.00  0.00    -0.037 A 
HETATM   12  C   UNL     1      19.325  52.201  48.829  1.00  0.00     0.050 C 
ENDROOT
BRANCH   7  13
HETATM   13  C   UNL     1      22.960  47.002  48.797  1.00  0.00     0.276 C 
BRANCH  13  14
HETATM   14  N   UNL     1      23.836  46.747  50.004  1.00  0.00    -0.067 N 
HETATM   15  H   UNL     1      24.357  47.644  50.070  1.00  0.00     0.277 HD
HETATM   16  H   UNL     1      23.213  46.751  50.820  1.00  0.00     0.277 HD
BRANCH  14  17
HETATM   17  C   UNL     1      24.780  45.586  49.916  1.00  0.00     0.189 C 
HETATM   18  C   UNL     1      24.479  44.510  50.960  1.00  0.00     0.060 C 
HETATM   19  C   UNL     1      24.862  44.899  52.382  1.00  0.00     0.237 C 
HETATM   20  N   UNL     1      26.301  45.348  52.428  1.00  0.00    -0.067 N 
HETATM   21  H   UNL     1      26.893  44.532  52.209  1.00  0.00     0.280 HD
HETATM   22  C   UNL     1      26.620  46.458  51.467  1.00  0.00     0.237 C 
HETATM   23  C   UNL     1      26.226  46.070  50.047  1.00  0.00     0.060 C 
BRANCH  20  24
HETATM   24  C   UNL     1      26.741  45.734  53.850  1.00  0.00     0.273 C 
BRANCH  24  25
HETATM   25  C   UNL     1      27.987  45.026  54.298  1.00  0.00    -0.033 A 
HETATM   26  C   UNL     1      28.384  43.826  53.686  1.00  0.00     0.009 A 
HETATM   27  C   UNL     1      29.528  43.158  54.125  1.00  0.00     0.001 A 
HETATM   28  C   UNL     1      30.282  43.677  55.175  1.00  0.00     0.000 A 
HETATM   29  C   UNL     1      29.901  44.868  55.785  1.00  0.00     0.001 A 
HETATM   30  C   UNL     1      28.761  45.544  55.349  1.00  0.00     0.009 A 
ENDBRANCH  24  25
ENDBRANCH  20  24
ENDBRANCH  14  17
ENDBRANCH  13  14
ENDBRANCH   7  13
BRANCH   8  31
HETATM   31  O   UNL     1      24.968  48.945  48.522  1.00  0.00    -0.360 OA
HETATM   32  H   UNL     1      24.942  47.988  48.302  1.00  0.00     0.217 HD
ENDBRANCH   8  31
BRANCH   1  33
HETATM   33  C   UNL     1      17.149  50.023  49.143  1.00  0.00     0.055 C 
BRANCH  33  34
HETATM   34  C   UNL     1      16.384  50.384  47.868  1.00  0.00     0.116 C 
BRANCH  34  35
HETATM   35  C   UNL     1      15.782  49.181  47.188  1.00  0.00     0.259 C 
HETATM   36  O   UNL     1      15.155  48.308  47.779  1.00  0.00    -0.265 OA
BRANCH  35  37
HETATM   37  O   UNL     1      16.023  49.221  45.853  1.00  0.00    -0.322 OA
BRANCH  37  38
HETATM   38  C   UNL     1      17.365  49.534  45.452  1.00  0.00     0.174 C 
HETATM   39  C   UNL     1      18.185  48.264  45.350  1.00  0.00     0.034 C 
ENDBRANCH  37  38
ENDBRANCH  35  37
ENDBRANCH  34  35
ENDBRANCH  33  34
ENDBRANCH   1  33
TORSDOF 11
ENDMDL
MODEL 5
REMARK VINA RESULT:      -8.6      3.310     10.407
REMARK  11 active torsions:
REMARK  status: ('A' for Active; 'I' for Inactive)
REMARK    1  A    between atoms: C_2  and  O_3 
REMARK    2  A    between atoms: O_3  and  C_4 
REMARK    3  A    between atoms: C_4  and  C_5 
REMARK    4  A    between atoms: C_5  and  C_6 
REMARK    5  A    between atoms: C_6  and  C_7 
REMARK    6  A    between atoms: C_13  and  C_14 
REMARK    7  A    between atoms: C_14  and  N_15 
REMARK    8  A    between atoms: N_15  and  C_18 
REMARK    9  A    between atoms: N_21  and  C_23 
REMARK   10  A    between atoms: C_23  and  C_24 
REMARK   11  A    between atoms: C_32  and  O_33 
ROOT
HETATM    1  C   UNL     1      26.838  45.668  53.894  1.00  0.00     0.025 A 
HETATM    2  C   UNL     1      26.101  46.826  53.318  1.00  0.00     0.295 A 
HETATM    3  O   UNL     1      25.966  47.892  53.905  1.00  0.00    -0.259 OA
HETATM    4  O   UNL     1      25.506  46.649  52.081  1.00  0.00    -0.274 OA
HETATM    5  C   UNL     1      25.697  45.489  51.316  1.00  0.00     0.101 A 
HETATM    6  C   UNL     1      26.468  44.438  51.810  1.00  0.00     0.005 A 
HETATM    7  C   UNL     1      25.065  45.457  50.062  1.00  0.00     0.035 A 
HETATM    8  C   UNL     1      25.239  44.317  49.275  1.00  0.00     0.076 A 
HETATM    9  C   UNL     1      26.025  43.259  49.713  1.00  0.00     0.038 A 
HETATM   10  C   UNL     1      26.634  43.324  50.974  1.00  0.00     0.017 A 
HETATM   11  C   UNL     1      27.029  44.535  53.178  1.00  0.00    -0.037 A 
HETATM   12  C   UNL     1      27.755  43.314  53.696  1.00  0.00     0.050 C 
ENDROOT
BRANCH   7  13
HETATM   13  C   UNL     1      24.218  46.597  49.578  1.00  0.00     0.276 C 
BRANCH  13  14
HETATM   14  N   UNL     1      22.827  46.110  49.235  1.00  0.00    -0.067 N 
HETATM   15  H   UNL     1      23.003  45.100  49.061  1.00  0.00     0.277 HD
HETATM   16  H   UNL     1      22.290  46.130  50.109  1.00  0.00     0.277 HD
BRANCH  14  17
HETATM   17  C   UNL     1      22.164  46.749  48.052  1.00  0.00     0.189 C 
HETATM   18  C   UNL     1      22.134  48.274  48.155  1.00  0.00     0.060 C 
HETATM   19  C   UNL     1      21.145  48.810  49.182  1.00  0.00     0.237 C 
HETATM   20  N   UNL     1      19.774  48.231  48.934  1.00  0.00    -0.067 N 
HETATM   21  H   UNL     1      19.438  48.595  48.028  1.00  0.00     0.280 HD
HETATM   22  C   UNL     1      19.748  46.729  48.900  1.00  0.00     0.237 C 
HETATM   23  C   UNL     1      20.747  46.197  47.879  1.00  0.00     0.060 C 
BRANCH  20  24
HETATM   24  C   UNL     1      18.734  48.758  49.935  1.00  0.00     0.273 C 
BRANCH  24  25
HETATM   25  C   UNL     1      18.044  50.008  49.473  1.00  0.00    -0.033 A 
HETATM   26  C   UNL     1      18.481  51.268  49.914  1.00  0.00     0.009 A 
HETATM   27  C   UNL     1      17.820  52.425  49.503  1.00  0.00     0.001 A 
HETATM   28  C   UNL     1      16.720  52.339  48.652  1.00  0.00     0.000 A 
HETATM   29  C   UNL     1      16.282  51.096  48.204  1.00  0.00     0.001 A 
HETATM   30  C   UNL     1      16.941  49.934  48.608  1.00  0.00     0.009 A 
ENDBRANCH  24  25
ENDBRANCH  20  24
ENDBRANCH  14  17
ENDBRANCH  13  14
ENDBRANCH   7  13
BRANCH   8  31
HETATM   31  O   UNL     1      24.578  44.252  48.077  1.00  0.00    -0.360 OA
HETATM   32  H   UNL     1      24.435  45.174  47.771  1.00  0.00     0.217 HD
ENDBRANCH   8  31
BRANCH   1  33
HETATM   33  C   UNL     1      27.319  45.914  55.316  1.00  0.00     0.055 C 
BRANCH  33  34
HETATM   34  C   UNL     1      28.729  46.500  55.428  1.00  0.00     0.116 C 
BRANCH  34  35
HETATM   35  C   UNL     1      29.486  45.972  56.621  1.00  0.00     0.259 C 
HETATM   36  O   UNL     1      29.041  45.973  57.764  1.00  0.00    -0.265 OA
BRANCH  35  37
HETATM   37  O   UNL     1      30.699  45.497  56.240  1.00  0.00    -0.322 OA
BRANCH  37  38
HETATM   38  C   UNL     1      30.756  44.112  55.865  1.00  0.00     0.174 C 
HETATM   39  C   UNL     1      31.432  43.307  56.956  1.00  0.00     0.034 C 
ENDBRANCH  37  38
ENDBRANCH  35  37
ENDBRANCH  34  35
ENDBRANCH  33  34
ENDBRANCH   1  33
TORSDOF 11
ENDMDL
MODEL 6
REMARK VINA RESULT:      -8.4      3.310     10.113
REMARK  11 active torsions:
REMARK  status: ('A' for Active; 'I' for Inactive)
REMARK    1  A    between atoms: C_2  and  O_3 
REMARK    2  A    between atoms: O_3  and  C_4 
REMARK    3  A    between atoms: C_4  and  C_5 
REMARK    4  A    between atoms: C_5  and  C_6 
REMARK    5  A    between atoms: C_6  and  C_7 
REMARK    6  A    between atoms: C_13  and  C_14 
REMARK    7  A    between atoms: C_14  and  N_15 
REMARK    8  A    between atoms: N_15  and  C_18 
REMARK    9  A    between atoms: N_21  and  C_23 
REMARK   10  A    between atoms: C_23  and  C_24 
REMARK   11  A    between atoms: C_32  and  O_33 
ROOT
HETATM    1  C   UNL     1      26.738  43.367  53.236  1.00  0.00     0.025 A 
HETATM    2  C   UNL     1      25.543  44.249  53.135  1.00  0.00     0.295 A 
HETATM    3  O   UNL     1      25.295  45.136  53.943  1.00  0.00    -0.259 OA
HETATM    4  O   UNL     1      24.659  44.007  52.097  1.00  0.00    -0.274 OA
HETATM    5  C   UNL     1      24.927  43.071  51.087  1.00  0.00     0.101 A 
HETATM    6  C   UNL     1      26.094  42.309  51.125  1.00  0.00     0.005 A 
HETATM    7  C   UNL     1      23.962  42.952  50.074  1.00  0.00     0.035 A 
HETATM    8  C   UNL     1      24.203  42.032  49.052  1.00  0.00     0.076 A 
HETATM    9  C   UNL     1      25.366  41.274  49.032  1.00  0.00     0.038 A 
HETATM   10  C   UNL     1      26.303  41.415  50.064  1.00  0.00     0.017 A 
HETATM   11  C   UNL     1      27.014  42.452  52.278  1.00  0.00    -0.037 A 
HETATM   12  C   UNL     1      28.197  41.513  52.316  1.00  0.00     0.050 C 
ENDROOT
BRANCH   7  13
HETATM   13  C   UNL     1      22.705  43.770  50.085  1.00  0.00     0.276 C 
BRANCH  13  14
HETATM   14  N   UNL     1      23.015  45.215  49.760  1.00  0.00    -0.067 N 
HETATM   15  H   UNL     1      22.479  45.710  50.500  1.00  0.00     0.277 HD
HETATM   16  H   UNL     1      23.999  45.364  50.012  1.00  0.00     0.277 HD
BRANCH  14  17
HETATM   17  C   UNL     1      22.616  45.698  48.398  1.00  0.00     0.189 C 
HETATM   18  C   UNL     1      22.696  47.220  48.273  1.00  0.00     0.060 C 
HETATM   19  C   UNL     1      21.596  47.965  49.019  1.00  0.00     0.237 C 
HETATM   20  N   UNL     1      20.243  47.432  48.615  1.00  0.00    -0.067 N 
HETATM   21  H   UNL     1      20.096  47.669  47.621  1.00  0.00     0.280 HD
HETATM   22  C   UNL     1      20.099  45.947  48.793  1.00  0.00     0.237 C 
HETATM   23  C   UNL     1      21.208  45.207  48.055  1.00  0.00     0.060 C 
BRANCH  20  24
HETATM   24  C   UNL     1      19.096  48.167  49.328  1.00  0.00     0.273 C 
BRANCH  24  25
HETATM   25  C   UNL     1      19.044  49.634  49.013  1.00  0.00    -0.033 A 
HETATM   26  C   UNL     1      19.037  50.585  50.046  1.00  0.00     0.009 A 
HETATM   27  C   UNL     1      18.961  51.946  49.748  1.00  0.00     0.001 A 
HETATM   28  C   UNL     1      18.890  52.370  48.424  1.00  0.00     0.000 A 
HETATM   29  C   UNL     1      18.903  51.437  47.392  1.00  0.00     0.001 A 
HETATM   30  C   UNL     1      18.982  50.074  47.681  1.00  0.00     0.009 A 
ENDBRANCH  24  25
ENDBRANCH  20  24
ENDBRANCH  14  17
ENDBRANCH  13  14
ENDBRANCH   7  13
BRANCH   8  31
HETATM   31  O   UNL     1      23.239  41.865  48.093  1.00  0.00    -0.360 OA
HETATM   32  H   UNL     1      22.641  41.151  48.401  1.00  0.00     0.217 HD
ENDBRANCH   8  31
BRANCH   1  33
HETATM   33  C   UNL     1      27.558  43.616  54.493  1.00  0.00     0.055 C 
BRANCH  33  34
HETATM   34  C   UNL     1      28.792  44.498  54.293  1.00  0.00     0.116 C 
BRANCH  34  35
HETATM   35  C   UNL     1      29.073  45.386  55.479  1.00  0.00     0.259 C 
HETATM   36  O   UNL     1      28.247  46.148  55.971  1.00  0.00    -0.265 OA
BRANCH  35  37
HETATM   37  O   UNL     1      30.346  45.205  55.916  1.00  0.00    -0.322 OA
BRANCH  37  38
HETATM   38  C   UNL     1      30.898  43.889  55.756  1.00  0.00     0.174 C 
HETATM   39  C   UNL     1      31.627  43.476  57.019  1.00  0.00     0.034 C 
ENDBRANCH  37  38
ENDBRANCH  35  37
ENDBRANCH  34  35
ENDBRANCH  33  34
ENDBRANCH   1  33
TORSDOF 11
ENDMDL
MODEL 7
REMARK VINA RESULT:      -8.2      3.489     10.843
REMARK  11 active torsions:
REMARK  status: ('A' for Active; 'I' for Inactive)
REMARK    1  A    between atoms: C_2  and  O_3 
REMARK    2  A    between atoms: O_3  and  C_4 
REMARK    3  A    between atoms: C_4  and  C_5 
REMARK    4  A    between atoms: C_5  and  C_6 
REMARK    5  A    between atoms: C_6  and  C_7 
REMARK    6  A    between atoms: C_13  and  C_14 
REMARK    7  A    between atoms: C_14  and  N_15 
REMARK    8  A    between atoms: N_15  and  C_18 
REMARK    9  A    between atoms: N_21  and  C_23 
REMARK   10  A    between atoms: C_23  and  C_24 
REMARK   11  A    between atoms: C_32  and  O_33 
ROOT
HETATM    1  C   UNL     1      25.796  45.439  52.537  1.00  0.00     0.025 A 
HETATM    2  C   UNL     1      25.776  46.923  52.428  1.00  0.00     0.295 A 
HETATM    3  O   UNL     1      26.363  47.660  53.211  1.00  0.00    -0.259 OA
HETATM    4  O   UNL     1      25.012  47.477  51.416  1.00  0.00    -0.274 OA
HETATM    5  C   UNL     1      24.390  46.694  50.432  1.00  0.00     0.101 A 
HETATM    6  C   UNL     1      24.486  45.304  50.474  1.00  0.00     0.005 A 
HETATM    7  C   UNL     1      23.675  47.387  49.442  1.00  0.00     0.035 A 
HETATM    8  C   UNL     1      23.049  46.636  48.446  1.00  0.00     0.076 A 
HETATM    9  C   UNL     1      23.144  45.251  48.429  1.00  0.00     0.038 A 
HETATM   10  C   UNL     1      23.860  44.593  49.439  1.00  0.00     0.017 A 
HETATM   11  C   UNL     1      25.197  44.662  51.603  1.00  0.00    -0.037 A 
HETATM   12  C   UNL     1      25.163  43.152  51.650  1.00  0.00     0.050 C 
ENDROOT
BRANCH   7  13
HETATM   13  C   UNL     1      23.570  48.884  49.449  1.00  0.00     0.276 C 
BRANCH  13  14
HETATM   14  N   UNL     1      22.185  49.312  49.883  1.00  0.00    -0.067 N 
HETATM   15  H   UNL     1      21.591  48.653  49.343  1.00  0.00     0.277 HD
HETATM   16  H   UNL     1      22.082  49.011  50.859  1.00  0.00     0.277 HD
BRANCH  14  17
HETATM   17  C   UNL     1      21.801  50.733  49.600  1.00  0.00     0.189 C 
HETATM   18  C   UNL     1      20.436  51.095  50.186  1.00  0.00     0.060 C 
HETATM   19  C   UNL     1      19.257  50.476  49.445  1.00  0.00     0.237 C 
HETATM   20  N   UNL     1      19.345  50.793  47.973  1.00  0.00    -0.067 N 
HETATM   21  H   UNL     1      19.222  51.812  47.862  1.00  0.00     0.280 HD
HETATM   22  C   UNL     1      20.647  50.384  47.342  1.00  0.00     0.237 C 
HETATM   23  C   UNL     1      21.823  50.995  48.093  1.00  0.00     0.060 C 
BRANCH  20  24
HETATM   24  C   UNL     1      18.165  50.205  47.183  1.00  0.00     0.273 C 
BRANCH  24  25
HETATM   25  C   UNL     1      17.864  50.956  45.919  1.00  0.00    -0.033 A 
HETATM   26  C   UNL     1      18.321  50.479  44.680  1.00  0.00     0.009 A 
HETATM   27  C   UNL     1      18.062  51.196  43.511  1.00  0.00     0.001 A 
HETATM   28  C   UNL     1      17.349  52.391  43.566  1.00  0.00     0.000 A 
HETATM   29  C   UNL     1      16.887  52.871  44.787  1.00  0.00     0.001 A 
HETATM   30  C   UNL     1      17.138  52.158  45.960  1.00  0.00     0.009 A 
ENDBRANCH  24  25
ENDBRANCH  20  24
ENDBRANCH  14  17
ENDBRANCH  13  14
ENDBRANCH   7  13
BRANCH   8  31
HETATM   31  O   UNL     1      22.300  47.299  47.511  1.00  0.00    -0.360 OA
HETATM   32  H   UNL     1      21.620  46.671  47.181  1.00  0.00     0.217 HD
ENDBRANCH   8  31
BRANCH   1  33
HETATM   33  C   UNL     1      26.536  44.941  53.769  1.00  0.00     0.055 C 
BRANCH  33  34
HETATM   34  C   UNL     1      27.983  44.510  53.522  1.00  0.00     0.116 C 
BRANCH  34  35
HETATM   35  C   UNL     1      28.868  44.720  54.725  1.00  0.00     0.259 C 
HETATM   36  O   UNL     1      29.026  45.807  55.272  1.00  0.00    -0.265 OA
BRANCH  35  37
HETATM   37  O   UNL     1      29.436  43.548  55.107  1.00  0.00    -0.322 OA
BRANCH  37  38
HETATM   38  C   UNL     1      30.865  43.543  55.246  1.00  0.00     0.174 C 
HETATM   39  C   UNL     1      31.243  43.352  56.701  1.00  0.00     0.034 C 
ENDBRANCH  37  38
ENDBRANCH  35  37
ENDBRANCH  34  35
ENDBRANCH  33  34
ENDBRANCH   1  33
TORSDOF 11
ENDMDL
MODEL 8
REMARK VINA RESULT:      -8.0      1.476      2.133
REMARK  11 active torsions:
REMARK  status: ('A' for Active; 'I' for Inactive)
REMARK    1  A    between atoms: C_2  and  O_3 
REMARK    2  A    between atoms: O_3  and  C_4 
REMARK    3  A    between atoms: C_4  and  C_5 
REMARK    4  A    between atoms: C_5  and  C_6 
REMARK    5  A    between atoms: C_6  and  C_7 
REMARK    6  A    between atoms: C_13  and  C_14 
REMARK    7  A    between atoms: C_14  and  N_15 
REMARK    8  A    between atoms: N_15  and  C_18 
REMARK    9  A    between atoms: N_21  and  C_23 
REMARK   10  A    between atoms: C_23  and  C_24 
REMARK   11  A    between atoms: C_32  and  O_33 
ROOT
HETATM    1  C   UNL     1      21.195  49.176  47.672  1.00  0.00     0.025 A 
HETATM    2  C   UNL     1      22.529  48.608  48.014  1.00  0.00     0.295 A 
HETATM    3  O   UNL     1      23.465  49.290  48.409  1.00  0.00    -0.259 OA
HETATM    4  O   UNL     1      22.710  47.249  47.822  1.00  0.00    -0.274 OA
HETATM    5  C   UNL     1      21.657  46.396  47.460  1.00  0.00     0.101 A 
HETATM    6  C   UNL     1      20.381  46.910  47.232  1.00  0.00     0.005 A 
HETATM    7  C   UNL     1      21.972  45.034  47.334  1.00  0.00     0.035 A 
HETATM    8  C   UNL     1      20.944  44.158  46.979  1.00  0.00     0.076 A 
HETATM    9  C   UNL     1      19.650  44.620  46.774  1.00  0.00     0.038 A 
HETATM   10  C   UNL     1      19.376  45.989  46.901  1.00  0.00     0.017 A 
HETATM   11  C   UNL     1      20.165  48.373  47.314  1.00  0.00    -0.037 A 
HETATM   12  C   UNL     1      18.789  48.873  46.941  1.00  0.00     0.050 C 
ENDROOT
BRANCH   7  13
HETATM   13  C   UNL     1      23.365  44.524  47.558  1.00  0.00     0.276 C 
BRANCH  13  14
HETATM   14  N   UNL     1      23.380  43.512  48.683  1.00  0.00    -0.067 N 
HETATM   15  H   UNL     1      22.487  43.008  48.515  1.00  0.00     0.277 HD
HETATM   16  H   UNL     1      24.109  42.829  48.448  1.00  0.00     0.277 HD
BRANCH  14  17
HETATM   17  C   UNL     1      23.431  44.059  50.078  1.00  0.00     0.189 C 
HETATM   18  C   UNL     1      24.281  45.327  50.176  1.00  0.00     0.060 C 
HETATM   19  C   UNL     1      25.780  45.082  50.061  1.00  0.00     0.237 C 
HETATM   20  N   UNL     1      26.211  44.031  51.054  1.00  0.00    -0.067 N 
HETATM   21  H   UNL     1      26.079  44.420  52.001  1.00  0.00     0.280 HD
HETATM   22  C   UNL     1      25.450  42.741  50.941  1.00  0.00     0.237 C 
HETATM   23  C   UNL     1      23.950  42.992  51.045  1.00  0.00     0.060 C 
BRANCH  20  24
HETATM   24  C   UNL     1      27.724  43.762  50.991  1.00  0.00     0.273 C 
BRANCH  24  25
HETATM   25  C   UNL     1      28.378  43.730  52.342  1.00  0.00    -0.033 A 
HETATM   26  C   UNL     1      27.848  44.474  53.408  1.00  0.00     0.009 A 
HETATM   27  C   UNL     1      28.476  44.463  54.654  1.00  0.00     0.001 A 
HETATM   28  C   UNL     1      29.634  43.713  54.848  1.00  0.00     0.000 A 
HETATM   29  C   UNL     1      30.165  42.968  53.799  1.00  0.00     0.001 A 
HETATM   30  C   UNL     1      29.540  42.972  52.551  1.00  0.00     0.009 A 
ENDBRANCH  24  25
ENDBRANCH  20  24
ENDBRANCH  14  17
ENDBRANCH  13  14
ENDBRANCH   7  13
BRANCH   8  31
HETATM   31  O   UNL     1      21.254  42.837  46.795  1.00  0.00    -0.360 OA
HETATM   32  H   UNL     1      20.412  42.359  46.631  1.00  0.00     0.217 HD
ENDBRANCH   8  31
BRANCH   1  33
HETATM   33  C   UNL     1      21.150  50.693  47.773  1.00  0.00     0.055 C 
BRANCH  33  34
HETATM   34  C   UNL     1      20.332  51.238  48.946  1.00  0.00     0.116 C 
BRANCH  34  35
HETATM   35  C   UNL     1      20.929  50.889  50.285  1.00  0.00     0.259 C 
HETATM   36  O   UNL     1      22.073  51.181  50.618  1.00  0.00    -0.265 OA
BRANCH  35  37
HETATM   37  O   UNL     1      20.023  50.229  51.051  1.00  0.00    -0.322 OA
BRANCH  37  38
HETATM   38  C   UNL     1      18.755  49.942  50.440  1.00  0.00     0.174 C 
HETATM   39  C   UNL     1      18.406  48.480  50.635  1.00  0.00     0.034 C 
ENDBRANCH  37  38
ENDBRANCH  35  37
ENDBRANCH  34  35
ENDBRANCH  33  34
ENDBRANCH   1  33
TORSDOF 11
ENDMDL
MODEL 9
REMARK VINA RESULT:      -7.9      2.083      4.461
REMARK  11 active torsions:
REMARK  status: ('A' for Active; 'I' for Inactive)
REMARK    1  A    between atoms: C_2  and  O_3 
REMARK    2  A    between atoms: O_3  and  C_4 
REMARK    3  A    between atoms: C_4  and  C_5 
REMARK    4  A    between atoms: C_5  and  C_6 
REMARK    5  A    between atoms: C_6  and  C_7 
REMARK    6  A    between atoms: C_13  and  C_14 
REMARK    7  A    between atoms: C_14  and  N_15 
REMARK    8  A    between atoms: N_15  and  C_18 
REMARK    9  A    between atoms: N_21  and  C_23 
REMARK   10  A    between atoms: C_23  and  C_24 
REMARK   11  A    between atoms: C_32  and  O_33 
ROOT
HETATM    1  C   UNL     1      19.038  46.624  48.187  1.00  0.00     0.025 A 
HETATM    2  C   UNL     1      20.454  46.176  48.082  1.00  0.00     0.295 A 
HETATM    3  O   UNL     1      20.777  45.064  47.682  1.00  0.00    -0.259 OA
HETATM    4  O   UNL     1      21.434  47.056  48.508  1.00  0.00    -0.274 OA
HETATM    5  C   UNL     1      21.142  48.374  48.890  1.00  0.00     0.101 A 
HETATM    6  C   UNL     1      19.824  48.830  48.897  1.00  0.00     0.005 A 
HETATM    7  C   UNL     1      22.235  49.172  49.265  1.00  0.00     0.035 A 
HETATM    8  C   UNL     1      21.978  50.490  49.646  1.00  0.00     0.076 A 
HETATM    9  C   UNL     1      20.685  50.997  49.638  1.00  0.00     0.038 A 
HETATM   10  C   UNL     1      19.618  50.168  49.265  1.00  0.00     0.017 A 
HETATM   11  C   UNL     1      18.732  47.889  48.560  1.00  0.00    -0.037 A 
HETATM   12  C   UNL     1      17.322  48.414  48.702  1.00  0.00     0.050 C 
ENDROOT
BRANCH   7  13
HETATM   13  C   UNL     1      23.636  48.635  49.273  1.00  0.00     0.276 C 
BRANCH  13  14
HETATM   14  N   UNL     1      23.725  47.410  50.158  1.00  0.00    -0.067 N 
HETATM   15  H   UNL     1      23.816  47.845  51.097  1.00  0.00     0.277 HD
HETATM   16  H   UNL     1      22.790  46.987  50.160  1.00  0.00     0.277 HD
BRANCH  14  17
HETATM   17  C   UNL     1      24.861  46.470  49.892  1.00  0.00     0.189 C 
HETATM   18  C   UNL     1      24.695  45.135  50.620  1.00  0.00     0.060 C 
HETATM   19  C   UNL     1      24.923  45.214  52.124  1.00  0.00     0.237 C 
HETATM   20  N   UNL     1      26.256  45.858  52.414  1.00  0.00    -0.067 N 
HETATM   21  H   UNL     1      26.993  45.224  52.069  1.00  0.00     0.280 HD
HETATM   22  C   UNL     1      26.429  47.207  51.777  1.00  0.00     0.237 C 
HETATM   23  C   UNL     1      26.190  47.126  50.274  1.00  0.00     0.060 C 
BRANCH  20  24
HETATM   24  C   UNL     1      26.540  45.943  53.923  1.00  0.00     0.273 C 
BRANCH  24  25
HETATM   25  C   UNL     1      27.761  45.176  54.341  1.00  0.00    -0.033 A 
HETATM   26  C   UNL     1      28.594  45.663  55.361  1.00  0.00     0.009 A 
HETATM   27  C   UNL     1      29.743  44.960  55.727  1.00  0.00     0.001 A 
HETATM   28  C   UNL     1      30.071  43.770  55.081  1.00  0.00     0.000 A 
HETATM   29  C   UNL     1      29.249  43.275  54.072  1.00  0.00     0.001 A 
HETATM   30  C   UNL     1      28.097  43.971  53.703  1.00  0.00     0.009 A 
ENDBRANCH  24  25
ENDBRANCH  20  24
ENDBRANCH  14  17
ENDBRANCH  13  14
ENDBRANCH   7  13
BRANCH   8  31
HETATM   31  O   UNL     1      23.030  51.257  50.072  1.00  0.00    -0.360 OA
HETATM   32  H   UNL     1      22.776  51.647  50.937  1.00  0.00     0.217 HD
ENDBRANCH   8  31
BRANCH   1  33
HETATM   33  C   UNL     1      18.040  45.530  47.840  1.00  0.00     0.055 C 
BRANCH  33  34
HETATM   34  C   UNL     1      17.355  45.689  46.481  1.00  0.00     0.116 C 
BRANCH  34  35
HETATM   35  C   UNL     1      18.291  45.448  45.324  1.00  0.00     0.259 C 
HETATM   36  O   UNL     1      18.756  44.348  45.042  1.00  0.00    -0.265 OA
BRANCH  35  37
HETATM   37  O   UNL     1      18.521  46.604  44.652  1.00  0.00    -0.322 OA
BRANCH  37  38
HETATM   38  C   UNL     1      17.550  47.649  44.821  1.00  0.00     0.174 C 
HETATM   39  C   UNL     1      18.249  48.979  45.019  1.00  0.00     0.034 C 
ENDBRANCH  37  38
ENDBRANCH  35  37
ENDBRANCH  34  35
ENDBRANCH  33  34
ENDBRANCH   1  33
TORSDOF 11
ENDMDL
MODEL 10
REMARK VINA RESULT:      -7.9      3.366     10.560
REMARK  11 active torsions:
REMARK  status: ('A' for Active; 'I' for Inactive)
REMARK    1  A    between atoms: C_2  and  O_3 
REMARK    2  A    between atoms: O_3  and  C_4 
REMARK    3  A    between atoms: C_4  and  C_5 
REMARK    4  A    between atoms: C_5  and  C_6 
REMARK    5  A    between atoms: C_6  and  C_7 
REMARK    6  A    between atoms: C_13  and  C_14 
REMARK    7  A    between atoms: C_14  and  N_15 
REMARK    8  A    between atoms: N_15  and  C_18 
REMARK    9  A    between atoms: N_21  and  C_23 
REMARK   10  A    between atoms: C_23  and  C_24 
REMARK   11  A    between atoms: C_32  and  O_33 
ROOT
HETATM    1  C   UNL     1      25.185  45.315  51.770  1.00  0.00     0.025 A 
HETATM    2  C   UNL     1      25.238  46.792  51.586  1.00  0.00     0.295 A 
HETATM    3  O   UNL     1      25.877  47.535  52.321  1.00  0.00    -0.259 OA
HETATM    4  O   UNL     1      24.484  47.333  50.560  1.00  0.00    -0.274 OA
HETATM    5  C   UNL     1      23.804  46.535  49.628  1.00  0.00     0.101 A 
HETATM    6  C   UNL     1      23.830  45.145  49.739  1.00  0.00     0.005 A 
HETATM    7  C   UNL     1      23.107  47.214  48.616  1.00  0.00     0.035 A 
HETATM    8  C   UNL     1      22.424  46.447  47.670  1.00  0.00     0.076 A 
HETATM    9  C   UNL     1      22.448  45.059  47.722  1.00  0.00     0.038 A 
HETATM   10  C   UNL     1      23.148  44.417  48.752  1.00  0.00     0.017 A 
HETATM   11  C   UNL     1      24.529  44.525  50.888  1.00  0.00    -0.037 A 
HETATM   12  C   UNL     1      24.419  43.023  51.012  1.00  0.00     0.050 C 
ENDROOT
BRANCH   7  13
HETATM   13  C   UNL     1      23.078  48.712  48.548  1.00  0.00     0.276 C 
BRANCH  13  14
HETATM   14  N   UNL     1      22.130  49.268  49.588  1.00  0.00    -0.067 N 
HETATM   15  H   UNL     1      21.476  48.470  49.713  1.00  0.00     0.277 HD
HETATM   16  H   UNL     1      22.657  49.308  50.468  1.00  0.00     0.277 HD
BRANCH  14  17
HETATM   17  C   UNL     1      21.387  50.516  49.222  1.00  0.00     0.189 C 
HETATM   18  C   UNL     1      20.343  50.903  50.271  1.00  0.00     0.060 C 
HETATM   19  C   UNL     1      19.115  50.003  50.288  1.00  0.00     0.237 C 
HETATM   20  N   UNL     1      18.520  49.909  48.904  1.00  0.00    -0.067 N 
HETATM   21  H   UNL     1      18.160  50.843  48.652  1.00  0.00     0.280 HD
HETATM   22  C   UNL     1      19.497  49.460  47.854  1.00  0.00     0.237 C 
HETATM   23  C   UNL     1      20.730  50.356  47.849  1.00  0.00     0.060 C 
BRANCH  20  24
HETATM   24  C   UNL     1      17.263  49.025  48.873  1.00  0.00     0.273 C 
BRANCH  24  25
HETATM   25  C   UNL     1      16.309  49.388  47.772  1.00  0.00    -0.033 A 
HETATM   26  C   UNL     1      16.214  50.715  47.321  1.00  0.00     0.009 A 
HETATM   27  C   UNL     1      15.305  51.052  46.317  1.00  0.00     0.001 A 
HETATM   28  C   UNL     1      14.486  50.075  45.756  1.00  0.00     0.000 A 
HETATM   29  C   UNL     1      14.577  48.756  46.192  1.00  0.00     0.001 A 
HETATM   30  C   UNL     1      15.485  48.411  47.193  1.00  0.00     0.009 A 
ENDBRANCH  24  25
ENDBRANCH  20  24
ENDBRANCH  14  17
ENDBRANCH  13  14
ENDBRANCH   7  13
BRANCH   8  31
HETATM   31  O   UNL     1      21.691  47.101  46.715  1.00  0.00    -0.360 OA
HETATM   32  H   UNL     1      21.280  46.416  46.143  1.00  0.00     0.217 HD
ENDBRANCH   8  31
BRANCH   1  33
HETATM   33  C   UNL     1      25.922  44.842  53.014  1.00  0.00     0.055 C 
BRANCH  33  34
HETATM   34  C   UNL     1      27.384  44.450  52.787  1.00  0.00     0.116 C 
BRANCH  34  35
HETATM   35  C   UNL     1      27.911  43.525  53.855  1.00  0.00     0.259 C 
HETATM   36  O   UNL     1      27.212  42.728  54.472  1.00  0.00    -0.265 OA
BRANCH  35  37
HETATM   37  O   UNL     1      29.249  43.696  54.011  1.00  0.00    -0.322 OA
BRANCH  37  38
HETATM   38  C   UNL     1      29.682  44.249  55.264  1.00  0.00     0.174 C 
HETATM   39  C   UNL     1      30.865  43.465  55.794  1.00  0.00     0.034 C 
ENDBRANCH  37  38
ENDBRANCH  35  37
ENDBRANCH  34  35
ENDBRANCH  33  34
ENDBRANCH   1  33
TORSDOF 11
ENDMDL
