MODEL 1
REMARK VINA RESULT:      -8.3      0.000      0.000
REMARK  4 active torsions:
REMARK  status: ('A' for Active; 'I' for Inactive)
REMARK    1  A    between atoms: C_4  and  C_5 
REMARK       I    between atoms: C_5  and  N_6 
REMARK    2  A    between atoms: N_6  and  C_7 
REMARK    3  A    between atoms: C_7  and  N_8 
REMARK    4  A    between atoms: N_8  and  C_9 
ROOT
HETATM    1  C   UNL     1      26.771  45.195  52.953  1.00  0.00     0.257 C 
HETATM    2  N   UNL     1      26.270  44.932  51.685  1.00  0.00    -0.299 N 
HETATM    3  O   UNL     1      26.272  45.910  53.811  1.00  0.00    -0.267 OA
HETATM    4  H   UNL     1      26.685  44.136  51.204  1.00  0.00     0.171 HD
ENDROOT
BRANCH   2   5
HETATM    5  C   UNL     1      25.296  45.554  50.934  1.00  0.00     0.180 C 
HETATM    6  S   UNL     1      24.188  44.824  49.919  1.00  0.00    -0.040 SA
BRANCH   5   7
HETATM    7  N   UNL     1      25.229  46.923  51.048  1.00  0.00    -0.318 N 
HETATM    8  H   UNL     1      24.840  47.242  51.927  1.00  0.00     0.170 HD
BRANCH   7   9
HETATM    9  C   UNL     1      25.581  47.899  50.105  1.00  0.00     0.129 A 
HETATM   10  N   UNL     1      24.609  48.627  49.507  1.00  0.00    -0.236 NA
HETATM   11  C   UNL     1      24.982  49.585  48.622  1.00  0.00     0.033 A 
HETATM   12  C   UNL     1      23.891  50.395  47.986  1.00  0.00     0.070 C 
HETATM   13  C   UNL     1      26.310  49.824  48.294  1.00  0.00     0.027 A 
HETATM   14  C   UNL     1      27.296  49.058  48.907  1.00  0.00     0.006 A 
HETATM   15  C   UNL     1      26.929  48.081  49.828  1.00  0.00     0.050 A 
ENDBRANCH   7   9
ENDBRANCH   5   7
ENDBRANCH   2   5
BRANCH   1  16
HETATM   16  C   UNL     1      27.986  44.408  53.284  1.00  0.00     0.032 A 
HETATM   17  C   UNL     1      28.690  44.646  54.473  1.00  0.00     0.023 A 
HETATM   18  C   UNL     1      29.846  43.911  54.763  1.00  0.00    -0.061 A 
HETATM   19  C   UNL     1      30.621  44.167  56.023  1.00  0.00     0.048 C 
HETATM   20  C   UNL     1      30.298  42.960  53.839  1.00  0.00     0.007 A 
HETATM   21  C   UNL     1      29.588  42.716  52.662  1.00  0.00     0.002 A 
HETATM   22  C   UNL     1      28.423  43.431  52.388  1.00  0.00     0.017 A 
ENDBRANCH   1  16
TORSDOF 4
ENDMDL
MODEL 2
REMARK VINA RESULT:      -8.2      2.716      3.739
REMARK  4 active torsions:
REMARK  status: ('A' for Active; 'I' for Inactive)
REMARK    1  A    between atoms: C_4  and  C_5 
REMARK       I    between atoms: C_5  and  N_6 
REMARK    2  A    between atoms: N_6  and  C_7 
REMARK    3  A    between atoms: C_7  and  N_8 
REMARK    4  A    between atoms: N_8  and  C_9 
ROOT
HETATM    1  C   UNL     1      28.656  42.395  53.401  1.00  0.00     0.257 C 
HETATM    2  N   UNL     1      28.291  42.978  52.193  1.00  0.00    -0.299 N 
HETATM    3  O   UNL     1      28.627  41.206  53.685  1.00  0.00    -0.267 OA
HETATM    4  H   UNL     1      28.604  43.937  52.056  1.00  0.00     0.171 HD
ENDROOT
BRANCH   2   5
HETATM    5  C   UNL     1      27.573  42.497  51.120  1.00  0.00     0.180 C 
HETATM    6  S   UNL     1      27.779  41.032  50.345  1.00  0.00    -0.040 SA
BRANCH   5   7
HETATM    7  N   UNL     1      26.571  43.315  50.651  1.00  0.00    -0.318 N 
HETATM    8  H   UNL     1      25.877  42.834  50.093  1.00  0.00     0.170 HD
BRANCH   7   9
HETATM    9  C   UNL     1      26.425  44.701  50.810  1.00  0.00     0.129 A 
HETATM   10  N   UNL     1      26.184  45.206  52.042  1.00  0.00    -0.236 NA
HETATM   11  C   UNL     1      26.078  46.552  52.171  1.00  0.00     0.033 A 
HETATM   12  C   UNL     1      25.832  47.095  53.548  1.00  0.00     0.070 C 
HETATM   13  C   UNL     1      26.183  47.417  51.089  1.00  0.00     0.027 A 
HETATM   14  C   UNL     1      26.418  46.880  49.828  1.00  0.00     0.006 A 
HETATM   15  C   UNL     1      26.542  45.502  49.684  1.00  0.00     0.050 A 
ENDBRANCH   7   9
ENDBRANCH   5   7
ENDBRANCH   2   5
BRANCH   1  16
HETATM   16  C   UNL     1      29.238  43.357  54.369  1.00  0.00     0.032 A 
HETATM   17  C   UNL     1      30.294  42.975  55.209  1.00  0.00     0.023 A 
HETATM   18  C   UNL     1      30.820  43.886  56.133  1.00  0.00    -0.061 A 
HETATM   19  C   UNL     1      31.939  43.486  57.051  1.00  0.00     0.048 C 
HETATM   20  C   UNL     1      30.260  45.167  56.223  1.00  0.00     0.007 A 
HETATM   21  C   UNL     1      29.216  45.549  55.376  1.00  0.00     0.002 A 
HETATM   22  C   UNL     1      28.711  44.649  54.440  1.00  0.00     0.017 A 
ENDBRANCH   1  16
TORSDOF 4
ENDMDL
MODEL 3
REMARK VINA RESULT:      -8.1      1.353      2.506
REMARK  4 active torsions:
REMARK  status: ('A' for Active; 'I' for Inactive)
REMARK    1  A    between atoms: C_4  and  C_5 
REMARK       I    between atoms: C_5  and  N_6 
REMARK    2  A    between atoms: N_6  and  C_7 
REMARK    3  A    between atoms: C_7  and  N_8 
REMARK    4  A    between atoms: N_8  and  C_9 
ROOT
HETATM    1  C   UNL     1      25.880  46.528  52.799  1.00  0.00     0.257 C 
HETATM    2  N   UNL     1      25.601  45.577  51.825  1.00  0.00    -0.299 N 
HETATM    3  O   UNL     1      25.271  47.566  53.013  1.00  0.00    -0.267 OA
HETATM    4  H   UNL     1      26.056  44.675  51.948  1.00  0.00     0.171 HD
ENDROOT
BRANCH   2   5
HETATM    5  C   UNL     1      24.807  45.620  50.700  1.00  0.00     0.180 C 
HETATM    6  S   UNL     1      24.618  44.419  49.554  1.00  0.00    -0.040 SA
BRANCH   5   7
HETATM    7  N   UNL     1      24.087  46.777  50.514  1.00  0.00    -0.318 N 
HETATM    8  H   UNL     1      23.209  46.799  51.018  1.00  0.00     0.170 HD
BRANCH   7   9
HETATM    9  C   UNL     1      24.392  47.878  49.700  1.00  0.00     0.129 A 
HETATM   10  N   UNL     1      25.668  48.324  49.636  1.00  0.00    -0.236 NA
HETATM   11  C   UNL     1      25.939  49.370  48.817  1.00  0.00     0.033 A 
HETATM   12  C   UNL     1      27.363  49.836  48.743  1.00  0.00     0.070 C 
HETATM   13  C   UNL     1      24.957  50.008  48.069  1.00  0.00     0.027 A 
HETATM   14  C   UNL     1      23.649  49.546  48.157  1.00  0.00     0.006 A 
HETATM   15  C   UNL     1      23.359  48.464  48.983  1.00  0.00     0.050 A 
ENDBRANCH   7   9
ENDBRANCH   5   7
ENDBRANCH   2   5
BRANCH   1  16
HETATM   16  C   UNL     1      26.977  46.128  53.717  1.00  0.00     0.032 A 
HETATM   17  C   UNL     1      27.561  44.857  53.620  1.00  0.00     0.023 A 
HETATM   18  C   UNL     1      28.581  44.484  54.506  1.00  0.00    -0.061 A 
HETATM   19  C   UNL     1      29.203  43.121  54.427  1.00  0.00     0.048 C 
HETATM   20  C   UNL     1      28.984  45.386  55.499  1.00  0.00     0.007 A 
HETATM   21  C   UNL     1      28.409  46.656  55.584  1.00  0.00     0.002 A 
HETATM   22  C   UNL     1      27.413  47.034  54.686  1.00  0.00     0.017 A 
ENDBRANCH   1  16
TORSDOF 4
ENDMDL
MODEL 4
REMARK VINA RESULT:      -8.0      4.557      6.699
REMARK  4 active torsions:
REMARK  status: ('A' for Active; 'I' for Inactive)
REMARK    1  A    between atoms: C_4  and  C_5 
REMARK       I    between atoms: C_5  and  N_6 
REMARK    2  A    between atoms: N_6  and  C_7 
REMARK    3  A    between atoms: C_7  and  N_8 
REMARK    4  A    between atoms: N_8  and  C_9 
ROOT
HETATM    1  C   UNL     1      28.430  42.747  53.439  1.00  0.00     0.257 C 
HETATM    2  N   UNL     1      28.181  43.401  52.238  1.00  0.00    -0.299 N 
HETATM    3  O   UNL     1      28.217  41.571  53.697  1.00  0.00    -0.267 OA
HETATM    4  H   UNL     1      28.639  44.304  52.126  1.00  0.00     0.171 HD
ENDROOT
BRANCH   2   5
HETATM    5  C   UNL     1      27.418  43.055  51.144  1.00  0.00     0.180 C 
HETATM    6  S   UNL     1      26.803  44.083  49.980  1.00  0.00    -0.040 SA
BRANCH   5   7
HETATM    7  N   UNL     1      27.148  41.715  50.998  1.00  0.00    -0.318 N 
HETATM    8  H   UNL     1      26.349  41.397  51.532  1.00  0.00     0.170 HD
BRANCH   7   9
HETATM    9  C   UNL     1      27.852  40.755  50.255  1.00  0.00     0.129 A 
HETATM   10  N   UNL     1      28.535  39.783  50.904  1.00  0.00    -0.236 NA
HETATM   11  C   UNL     1      29.181  38.851  50.160  1.00  0.00     0.033 A 
HETATM   12  C   UNL     1      29.914  37.770  50.897  1.00  0.00     0.070 C 
HETATM   13  C   UNL     1      29.186  38.875  48.771  1.00  0.00     0.027 A 
HETATM   14  C   UNL     1      28.491  39.888  48.120  1.00  0.00     0.006 A 
HETATM   15  C   UNL     1      27.812  40.844  48.871  1.00  0.00     0.050 A 
ENDBRANCH   7   9
ENDBRANCH   5   7
ENDBRANCH   2   5
BRANCH   1  16
HETATM   16  C   UNL     1      29.134  43.592  54.436  1.00  0.00     0.032 A 
HETATM   17  C   UNL     1      30.205  43.076  55.181  1.00  0.00     0.023 A 
HETATM   18  C   UNL     1      30.846  43.877  56.134  1.00  0.00    -0.061 A 
HETATM   19  C   UNL     1      31.982  43.333  56.952  1.00  0.00     0.048 C 
HETATM   20  C   UNL     1      30.387  45.182  56.348  1.00  0.00     0.007 A 
HETATM   21  C   UNL     1      29.328  45.698  55.596  1.00  0.00     0.002 A 
HETATM   22  C   UNL     1      28.708  44.907  54.630  1.00  0.00     0.017 A 
ENDBRANCH   1  16
TORSDOF 4
ENDMDL
MODEL 5
REMARK VINA RESULT:      -7.9      2.116      3.035
REMARK  4 active torsions:
REMARK  status: ('A' for Active; 'I' for Inactive)
REMARK    1  A    between atoms: C_4  and  C_5 
REMARK       I    between atoms: C_5  and  N_6 
REMARK    2  A    between atoms: N_6  and  C_7 
REMARK    3  A    between atoms: C_7  and  N_8 
REMARK    4  A    between atoms: N_8  and  C_9 
ROOT
HETATM    1  C   UNL     1      28.198  42.881  53.179  1.00  0.00     0.257 C 
HETATM    2  N   UNL     1      27.887  43.582  52.021  1.00  0.00    -0.299 N 
HETATM    3  O   UNL     1      28.041  41.685  53.383  1.00  0.00    -0.267 OA
HETATM    4  H   UNL     1      28.304  44.508  51.942  1.00  0.00     0.171 HD
ENDROOT
BRANCH   2   5
HETATM    5  C   UNL     1      27.107  43.259  50.932  1.00  0.00     0.180 C 
HETATM    6  S   UNL     1      26.185  41.882  50.727  1.00  0.00    -0.040 SA
BRANCH   5   7
HETATM    7  N   UNL     1      27.083  44.183  49.913  1.00  0.00    -0.318 N 
HETATM    8  H   UNL     1      27.560  43.881  49.074  1.00  0.00     0.170 HD
BRANCH   7   9
HETATM    9  C   UNL     1      26.532  45.474  49.914  1.00  0.00     0.129 A 
HETATM   10  N   UNL     1      27.289  46.519  49.508  1.00  0.00    -0.236 NA
HETATM   11  C   UNL     1      26.721  47.750  49.489  1.00  0.00     0.033 A 
HETATM   12  C   UNL     1      27.569  48.893  49.017  1.00  0.00     0.070 C 
HETATM   13  C   UNL     1      25.410  47.974  49.892  1.00  0.00     0.027 A 
HETATM   14  C   UNL     1      24.650  46.891  50.318  1.00  0.00     0.006 A 
HETATM   15  C   UNL     1      25.216  45.620  50.329  1.00  0.00     0.050 A 
ENDBRANCH   7   9
ENDBRANCH   5   7
ENDBRANCH   2   5
BRANCH   1  16
HETATM   16  C   UNL     1      28.895  43.704  54.199  1.00  0.00     0.032 A 
HETATM   17  C   UNL     1      29.966  43.174  54.935  1.00  0.00     0.023 A 
HETATM   18  C   UNL     1      30.601  43.954  55.909  1.00  0.00    -0.061 A 
HETATM   19  C   UNL     1      31.736  43.395  56.717  1.00  0.00     0.048 C 
HETATM   20  C   UNL     1      30.135  45.252  56.154  1.00  0.00     0.007 A 
HETATM   21  C   UNL     1      29.077  45.781  55.411  1.00  0.00     0.002 A 
HETATM   22  C   UNL     1      28.463  45.012  54.424  1.00  0.00     0.017 A 
ENDBRANCH   1  16
TORSDOF 4
ENDMDL
MODEL 6
REMARK VINA RESULT:      -7.8      2.674      3.692
REMARK  4 active torsions:
REMARK  status: ('A' for Active; 'I' for Inactive)
REMARK    1  A    between atoms: C_4  and  C_5 
REMARK       I    between atoms: C_5  and  N_6 
REMARK    2  A    between atoms: N_6  and  C_7 
REMARK    3  A    between atoms: C_7  and  N_8 
REMARK    4  A    between atoms: N_8  and  C_9 
ROOT
HETATM    1  C   UNL     1      28.315  42.331  53.316  1.00  0.00     0.257 C 
HETATM    2  N   UNL     1      28.165  42.887  52.051  1.00  0.00    -0.299 N 
HETATM    3  O   UNL     1      28.046  41.188  53.656  1.00  0.00    -0.267 OA
HETATM    4  H   UNL     1      28.660  43.764  51.895  1.00  0.00     0.171 HD
ENDROOT
BRANCH   2   5
HETATM    5  C   UNL     1      27.461  42.472  50.942  1.00  0.00     0.180 C 
HETATM    6  S   UNL     1      27.661  41.045  50.099  1.00  0.00    -0.040 SA
BRANCH   5   7
HETATM    7  N   UNL     1      26.481  43.328  50.496  1.00  0.00    -0.318 N 
HETATM    8  H   UNL     1      25.780  42.882  49.917  1.00  0.00     0.170 HD
BRANCH   7   9
HETATM    9  C   UNL     1      26.364  44.710  50.703  1.00  0.00     0.129 A 
HETATM   10  N   UNL     1      26.104  45.176  51.946  1.00  0.00    -0.236 NA
HETATM   11  C   UNL     1      26.027  46.519  52.122  1.00  0.00     0.033 A 
HETATM   12  C   UNL     1      25.759  47.017  53.511  1.00  0.00     0.070 C 
HETATM   13  C   UNL     1      26.181  47.420  51.076  1.00  0.00     0.027 A 
HETATM   14  C   UNL     1      26.435  46.924  49.802  1.00  0.00     0.006 A 
HETATM   15  C   UNL     1      26.530  45.549  49.610  1.00  0.00     0.050 A 
ENDBRANCH   7   9
ENDBRANCH   5   7
ENDBRANCH   2   5
BRANCH   1  16
HETATM   16  C   UNL     1      28.984  43.237  54.284  1.00  0.00     0.032 A 
HETATM   17  C   UNL     1      28.371  44.435  54.681  1.00  0.00     0.023 A 
HETATM   18  C   UNL     1      29.021  45.291  55.579  1.00  0.00    -0.061 A 
HETATM   19  C   UNL     1      28.387  46.584  56.000  1.00  0.00     0.048 C 
HETATM   20  C   UNL     1      30.296  44.946  56.048  1.00  0.00     0.007 A 
HETATM   21  C   UNL     1      30.897  43.747  55.660  1.00  0.00     0.002 A 
HETATM   22  C   UNL     1      30.237  42.884  54.786  1.00  0.00     0.017 A 
ENDBRANCH   1  16
TORSDOF 4
ENDMDL
MODEL 7
REMARK VINA RESULT:      -7.3      4.821      6.554
REMARK  4 active torsions:
REMARK  status: ('A' for Active; 'I' for Inactive)
REMARK    1  A    between atoms: C_4  and  C_5 
REMARK       I    between atoms: C_5  and  N_6 
REMARK    2  A    between atoms: N_6  and  C_7 
REMARK    3  A    between atoms: C_7  and  N_8 
REMARK    4  A    between atoms: N_8  and  C_9 
ROOT
HETATM    1  C   UNL     1      29.746  43.247  53.865  1.00  0.00     0.257 C 
HETATM    2  N   UNL     1      28.509  43.716  53.441  1.00  0.00    -0.299 N 
HETATM    3  O   UNL     1      30.542  42.578  53.221  1.00  0.00    -0.267 OA
HETATM    4  H   UNL     1      28.096  44.449  54.015  1.00  0.00     0.171 HD
ENDROOT
BRANCH   2   5
HETATM    5  C   UNL     1      27.714  43.374  52.368  1.00  0.00     0.180 C 
HETATM    6  S   UNL     1      27.292  44.346  51.078  1.00  0.00    -0.040 SA
BRANCH   5   7
HETATM    7  N   UNL     1      27.231  42.086  52.364  1.00  0.00    -0.318 N 
HETATM    8  H   UNL     1      26.886  41.775  53.264  1.00  0.00     0.170 HD
BRANCH   7   9
HETATM    9  C   UNL     1      27.201  41.165  51.307  1.00  0.00     0.129 A 
HETATM   10  N   UNL     1      28.298  40.418  51.045  1.00  0.00    -0.236 NA
HETATM   11  C   UNL     1      28.230  39.513  50.037  1.00  0.00     0.033 A 
HETATM   12  C   UNL     1      29.449  38.680  49.776  1.00  0.00     0.070 C 
HETATM   13  C   UNL     1      27.092  39.349  49.256  1.00  0.00     0.027 A 
HETATM   14  C   UNL     1      25.978  40.134  49.530  1.00  0.00     0.006 A 
HETATM   15  C   UNL     1      26.030  41.056  50.571  1.00  0.00     0.050 A 
ENDBRANCH   7   9
ENDBRANCH   5   7
ENDBRANCH   2   5
BRANCH   1  16
HETATM   16  C   UNL     1      30.135  43.739  55.210  1.00  0.00     0.032 A 
HETATM   17  C   UNL     1      29.452  44.811  55.804  1.00  0.00     0.023 A 
HETATM   18  C   UNL     1      29.842  45.280  57.064  1.00  0.00    -0.061 A 
HETATM   19  C   UNL     1      29.133  46.437  57.705  1.00  0.00     0.048 C 
HETATM   20  C   UNL     1      30.935  44.682  57.705  1.00  0.00     0.007 A 
HETATM   21  C   UNL     1      31.606  43.607  57.117  1.00  0.00     0.002 A 
HETATM   22  C   UNL     1      31.199  43.126  55.874  1.00  0.00     0.017 A 
ENDBRANCH   1  16
TORSDOF 4
ENDMDL
MODEL 8
REMARK VINA RESULT:      -7.3      4.026      5.172
REMARK  4 active torsions:
REMARK  status: ('A' for Active; 'I' for Inactive)
REMARK    1  A    between atoms: C_4  and  C_5 
REMARK       I    between atoms: C_5  and  N_6 
REMARK    2  A    between atoms: N_6  and  C_7 
REMARK    3  A    between atoms: C_7  and  N_8 
REMARK    4  A    between atoms: N_8  and  C_9 
ROOT
HETATM    1  C   UNL     1      28.299  43.302  53.415  1.00  0.00     0.257 C 
HETATM    2  N   UNL     1      27.992  44.133  52.345  1.00  0.00    -0.299 N 
HETATM    3  O   UNL     1      28.090  42.101  53.500  1.00  0.00    -0.267 OA
HETATM    4  H   UNL     1      28.450  45.043  52.348  1.00  0.00     0.171 HD
ENDROOT
BRANCH   2   5
HETATM    5  C   UNL     1      27.169  43.960  51.253  1.00  0.00     0.180 C 
HETATM    6  S   UNL     1      26.996  44.989  49.949  1.00  0.00    -0.040 SA
BRANCH   5   7
HETATM    7  N   UNL     1      26.421  42.806  51.240  1.00  0.00    -0.318 N 
HETATM    8  H   UNL     1      26.740  42.103  51.895  1.00  0.00     0.170 HD
BRANCH   7   9
HETATM    9  C   UNL     1      25.332  42.477  50.419  1.00  0.00     0.129 A 
HETATM   10  N   UNL     1      25.513  41.624  49.384  1.00  0.00    -0.236 NA
HETATM   11  C   UNL     1      24.435  41.301  48.627  1.00  0.00     0.033 A 
HETATM   12  C   UNL     1      24.652  40.338  47.497  1.00  0.00     0.070 C 
HETATM   13  C   UNL     1      23.172  41.828  48.862  1.00  0.00     0.027 A 
HETATM   14  C   UNL     1      23.005  42.713  49.921  1.00  0.00     0.006 A 
HETATM   15  C   UNL     1      24.100  43.043  50.715  1.00  0.00     0.050 A 
ENDBRANCH   7   9
ENDBRANCH   5   7
ENDBRANCH   2   5
BRANCH   1  16
HETATM   16  C   UNL     1      29.061  43.984  54.492  1.00  0.00     0.032 A 
HETATM   17  C   UNL     1      30.100  43.320  55.161  1.00  0.00     0.023 A 
HETATM   18  C   UNL     1      30.797  43.966  56.189  1.00  0.00    -0.061 A 
HETATM   19  C   UNL     1      31.899  43.263  56.927  1.00  0.00     0.048 C 
HETATM   20  C   UNL     1      30.425  45.267  56.553  1.00  0.00     0.007 A 
HETATM   21  C   UNL     1      29.398  45.929  55.876  1.00  0.00     0.002 A 
HETATM   22  C   UNL     1      28.722  45.293  54.836  1.00  0.00     0.017 A 
ENDBRANCH   1  16
TORSDOF 4
ENDMDL
MODEL 9
REMARK VINA RESULT:      -7.3      2.505      3.639
REMARK  4 active torsions:
REMARK  status: ('A' for Active; 'I' for Inactive)
REMARK    1  A    between atoms: C_4  and  C_5 
REMARK       I    between atoms: C_5  and  N_6 
REMARK    2  A    between atoms: N_6  and  C_7 
REMARK    3  A    between atoms: C_7  and  N_8 
REMARK    4  A    between atoms: N_8  and  C_9 
ROOT
HETATM    1  C   UNL     1      28.996  44.108  54.098  1.00  0.00     0.257 C 
HETATM    2  N   UNL     1      27.783  44.764  54.267  1.00  0.00    -0.299 N 
HETATM    3  O   UNL     1      29.442  43.636  53.062  1.00  0.00    -0.267 OA
HETATM    4  H   UNL     1      27.687  45.295  55.131  1.00  0.00     0.171 HD
ENDROOT
BRANCH   2   5
HETATM    5  C   UNL     1      26.659  44.838  53.473  1.00  0.00     0.180 C 
HETATM    6  S   UNL     1      25.091  44.467  53.911  1.00  0.00    -0.040 SA
BRANCH   5   7
HETATM    7  N   UNL     1      26.860  45.276  52.185  1.00  0.00    -0.318 N 
HETATM    8  H   UNL     1      27.835  45.337  51.920  1.00  0.00     0.170 HD
BRANCH   7   9
HETATM    9  C   UNL     1      25.907  45.678  51.238  1.00  0.00     0.129 A 
HETATM   10  N   UNL     1      25.429  44.775  50.350  1.00  0.00    -0.236 NA
HETATM   11  C   UNL     1      24.485  45.186  49.467  1.00  0.00     0.033 A 
HETATM   12  C   UNL     1      23.953  44.165  48.505  1.00  0.00     0.070 C 
HETATM   13  C   UNL     1      24.017  46.493  49.427  1.00  0.00     0.027 A 
HETATM   14  C   UNL     1      24.528  47.412  50.337  1.00  0.00     0.006 A 
HETATM   15  C   UNL     1      25.487  47.001  51.258  1.00  0.00     0.050 A 
ENDBRANCH   7   9
ENDBRANCH   5   7
ENDBRANCH   2   5
BRANCH   1  16
HETATM   16  C   UNL     1      29.844  44.111  55.317  1.00  0.00     0.032 A 
HETATM   17  C   UNL     1      29.769  45.168  56.236  1.00  0.00     0.023 A 
HETATM   18  C   UNL     1      30.590  45.170  57.371  1.00  0.00    -0.061 A 
HETATM   19  C   UNL     1      30.534  46.302  58.354  1.00  0.00     0.048 C 
HETATM   20  C   UNL     1      31.500  44.121  57.556  1.00  0.00     0.007 A 
HETATM   21  C   UNL     1      31.563  43.064  56.645  1.00  0.00     0.002 A 
HETATM   22  C   UNL     1      30.727  43.051  55.530  1.00  0.00     0.017 A 
ENDBRANCH   1  16
TORSDOF 4
ENDMDL
MODEL 10
REMARK VINA RESULT:      -7.2      3.153      6.596
REMARK  4 active torsions:
REMARK  status: ('A' for Active; 'I' for Inactive)
REMARK    1  A    between atoms: C_4  and  C_5 
REMARK       I    between atoms: C_5  and  N_6 
REMARK    2  A    between atoms: N_6  and  C_7 
REMARK    3  A    between atoms: C_7  and  N_8 
REMARK    4  A    between atoms: N_8  and  C_9 
ROOT
HETATM    1  C   UNL     1      26.070  46.915  53.039  1.00  0.00     0.257 C 
HETATM    2  N   UNL     1      27.118  46.768  53.939  1.00  0.00    -0.299 N 
HETATM    3  O   UNL     1      25.184  47.758  53.068  1.00  0.00    -0.267 OA
HETATM    4  H   UNL     1      27.885  46.175  53.628  1.00  0.00     0.171 HD
ENDROOT
BRANCH   2   5
HETATM    5  C   UNL     1      27.325  47.283  55.200  1.00  0.00     0.180 C 
HETATM    6  S   UNL     1      26.457  48.500  55.946  1.00  0.00    -0.040 SA
BRANCH   5   7
HETATM    7  N   UNL     1      28.353  46.719  55.919  1.00  0.00    -0.318 N 
HETATM    8  H   UNL     1      28.610  47.243  56.747  1.00  0.00     0.170 HD
BRANCH   7   9
HETATM    9  C   UNL     1      29.096  45.566  55.628  1.00  0.00     0.129 A 
HETATM   10  N   UNL     1      28.767  44.818  54.550  1.00  0.00    -0.236 NA
HETATM   11  C   UNL     1      29.522  43.725  54.275  1.00  0.00     0.033 A 
HETATM   12  C   UNL     1      29.154  42.921  53.064  1.00  0.00     0.070 C 
HETATM   13  C   UNL     1      30.595  43.340  55.070  1.00  0.00     0.027 A 
HETATM   14  C   UNL     1      30.912  44.112  56.182  1.00  0.00     0.006 A 
HETATM   15  C   UNL     1      30.153  45.243  56.467  1.00  0.00     0.050 A 
ENDBRANCH   7   9
ENDBRANCH   5   7
ENDBRANCH   2   5
BRANCH   1  16
HETATM   16  C   UNL     1      26.154  45.992  51.879  1.00  0.00     0.032 A 
HETATM   17  C   UNL     1      26.014  44.608  52.057  1.00  0.00     0.023 A 
HETATM   18  C   UNL     1      26.116  43.746  50.958  1.00  0.00    -0.061 A 
HETATM   19  C   UNL     1      25.987  42.261  51.134  1.00  0.00     0.048 C 
HETATM   20  C   UNL     1      26.385  44.284  49.692  1.00  0.00     0.007 A 
HETATM   21  C   UNL     1      26.512  45.664  49.517  1.00  0.00     0.002 A 
HETATM   22  C   UNL     1      26.384  46.522  50.608  1.00  0.00     0.017 A 
ENDBRANCH   1  16
TORSDOF 4
ENDMDL
