MODEL 1
REMARK VINA RESULT:     -10.3      0.000      0.000
REMARK  7 active torsions:
REMARK  status: ('A' for Active; 'I' for Inactive)
REMARK    1  A    between atoms: O_2  and  C_3 
REMARK    2  A    between atoms: C_6  and  C_7 
REMARK    3  A    between atoms: N_9  and  C_10 
REMARK    4  A    between atoms: C_10  and  C_11 
REMARK    5  A    between atoms: C_18  and  C_19 
REMARK       I    between atoms: C_19  and  N_20 
REMARK    6  A    between atoms: N_20  and  N_21 
REMARK       I    between atoms: N_21  and  C_22 
REMARK    7  A    between atoms: C_22  and  C_23 
ROOT
HETATM    1  C   UNL     1      27.571  44.364  53.145  1.00  0.00     0.104 A 
HETATM    2  N   UNL     1      28.450  44.761  54.086  1.00  0.00    -0.171 NA
HETATM    3  N   UNL     1      27.942  45.895  54.586  1.00  0.00    -0.275 N 
HETATM    4  C   UNL     1      26.816  46.307  53.941  1.00  0.00     0.132 A 
HETATM    5  C   UNL     1      26.511  45.325  53.012  1.00  0.00     0.082 A 
ENDROOT
BRANCH   5   6
HETATM    6  C   UNL     1      25.323  45.298  52.170  1.00  0.00     0.274 C 
HETATM    7  N   UNL     1      25.366  46.161  51.093  1.00  0.00    -0.263 N 
HETATM    8  H   UNL     1      26.133  46.805  50.921  1.00  0.00     0.190 HD
HETATM    9  O   UNL     1      24.347  44.582  52.383  1.00  0.00    -0.266 OA
BRANCH   7  10
HETATM   10  N   UNL     1      24.216  46.343  50.313  1.00  0.00    -0.262 N 
HETATM   11  C   UNL     1      23.998  47.588  49.760  1.00  0.00     0.286 C 
HETATM   12  O   UNL     1      24.847  48.479  49.826  1.00  0.00    -0.264 OA
HETATM   13  H   UNL     1      23.480  45.648  50.417  1.00  0.00     0.190 HD
BRANCH  11  14
HETATM   14  C   UNL     1      22.718  47.780  49.119  1.00  0.00     0.102 A 
HETATM   15  N   UNL     1      21.812  48.707  49.591  1.00  0.00    -0.361 N 
HETATM   16  H   UNL     1      21.982  49.299  50.396  1.00  0.00     0.165 HD
HETATM   17  C   UNL     1      20.680  48.700  48.823  1.00  0.00     0.088 A 
HETATM   18  C   UNL     1      20.848  47.762  47.832  1.00  0.00     0.019 A 
HETATM   19  C   UNL     1      22.129  47.183  48.014  1.00  0.00     0.036 A 
ENDBRANCH  11  14
ENDBRANCH   7  10
ENDBRANCH   5   6
BRANCH   1  20
HETATM   20  C   UNL     1      27.810  43.096  52.445  1.00  0.00    -0.004 A 
HETATM   21  C   UNL     1      28.485  42.057  53.111  1.00  0.00     0.016 A 
HETATM   22  C   UNL     1      28.749  40.836  52.480  1.00  0.00     0.037 A 
HETATM   23  C   UNL     1      28.338  40.629  51.165  1.00  0.00     0.068 A 
HETATM   24  C   UNL     1      27.679  41.659  50.490  1.00  0.00     0.037 A 
HETATM   25  C   UNL     1      27.424  42.885  51.119  1.00  0.00     0.016 A 
BRANCH  23  26
HETATM   26  O   UNL     1      28.523  39.487  50.436  1.00  0.00    -0.356 OA
HETATM   27  C   UNL     1      28.722  39.647  49.037  1.00  0.00     0.210 C 
ENDBRANCH  23  26
ENDBRANCH   1  20
BRANCH   3  28
HETATM   28  C   UNL     1      28.579  46.538  55.728  1.00  0.00     0.189 C 
BRANCH  28  29
HETATM   29  C   UNL     1      29.582  45.617  56.382  1.00  0.00    -0.038 A 
HETATM   30  C   UNL     1      29.927  45.791  57.732  1.00  0.00     0.009 A 
HETATM   31  C   UNL     1      30.869  44.958  58.338  1.00  0.00     0.001 A 
HETATM   32  C   UNL     1      31.471  43.939  57.604  1.00  0.00     0.000 A 
HETATM   33  C   UNL     1      31.131  43.751  56.264  1.00  0.00     0.001 A 
HETATM   34  C   UNL     1      30.192  44.585  55.655  1.00  0.00     0.009 A 
ENDBRANCH  28  29
ENDBRANCH   3  28
TORSDOF 7
ENDMDL
MODEL 2
REMARK VINA RESULT:     -10.0      2.251      6.899
REMARK  7 active torsions:
REMARK  status: ('A' for Active; 'I' for Inactive)
REMARK    1  A    between atoms: O_2  and  C_3 
REMARK    2  A    between atoms: C_6  and  C_7 
REMARK    3  A    between atoms: N_9  and  C_10 
REMARK    4  A    between atoms: C_10  and  C_11 
REMARK    5  A    between atoms: C_18  and  C_19 
REMARK       I    between atoms: C_19  and  N_20 
REMARK    6  A    between atoms: N_20  and  N_21 
REMARK       I    between atoms: N_21  and  C_22 
REMARK    7  A    between atoms: C_22  and  C_23 
ROOT
HETATM    1  C   UNL     1      26.486  46.472  52.616  1.00  0.00     0.104 A 
HETATM    2  N   UNL     1      26.686  47.220  53.718  1.00  0.00    -0.171 NA
HETATM    3  N   UNL     1      27.243  46.389  54.610  1.00  0.00    -0.275 N 
HETATM    4  C   UNL     1      27.322  45.104  54.167  1.00  0.00     0.132 A 
HETATM    5  C   UNL     1      26.871  45.109  52.856  1.00  0.00     0.082 A 
ENDROOT
BRANCH   5   6
HETATM    6  C   UNL     1      26.883  43.966  51.954  1.00  0.00     0.274 C 
HETATM    7  N   UNL     1      26.853  42.738  52.587  1.00  0.00    -0.263 N 
HETATM    8  H   UNL     1      26.876  42.627  53.597  1.00  0.00     0.190 HD
HETATM    9  O   UNL     1      26.922  44.058  50.729  1.00  0.00    -0.266 OA
BRANCH   7  10
HETATM   10  N   UNL     1      27.029  41.572  51.830  1.00  0.00    -0.262 N 
HETATM   11  C   UNL     1      28.284  41.002  51.802  1.00  0.00     0.286 C 
HETATM   12  O   UNL     1      29.195  41.412  52.524  1.00  0.00    -0.264 OA
HETATM   13  H   UNL     1      26.313  41.366  51.138  1.00  0.00     0.190 HD
BRANCH  11  14
HETATM   14  C   UNL     1      28.463  39.912  50.871  1.00  0.00     0.102 A 
HETATM   15  N   UNL     1      29.350  38.886  51.129  1.00  0.00    -0.361 N 
HETATM   16  H   UNL     1      29.916  38.832  51.968  1.00  0.00     0.165 HD
HETATM   17  C   UNL     1      29.343  37.982  50.104  1.00  0.00     0.088 A 
HETATM   18  C   UNL     1      28.438  38.416  49.164  1.00  0.00     0.019 A 
HETATM   19  C   UNL     1      27.882  39.628  49.644  1.00  0.00     0.036 A 
ENDBRANCH  11  14
ENDBRANCH   7  10
ENDBRANCH   5   6
BRANCH   1  20
HETATM   20  C   UNL     1      25.941  47.118  51.414  1.00  0.00    -0.004 A 
HETATM   21  C   UNL     1      26.794  47.872  50.589  1.00  0.00     0.016 A 
HETATM   22  C   UNL     1      26.317  48.517  49.443  1.00  0.00     0.037 A 
HETATM   23  C   UNL     1      24.971  48.418  49.097  1.00  0.00     0.068 A 
HETATM   24  C   UNL     1      24.113  47.683  49.917  1.00  0.00     0.037 A 
HETATM   25  C   UNL     1      24.589  47.045  51.070  1.00  0.00     0.016 A 
BRANCH  23  26
HETATM   26  O   UNL     1      24.378  48.989  48.005  1.00  0.00    -0.356 OA
HETATM   27  C   UNL     1      23.694  50.218  48.217  1.00  0.00     0.210 C 
ENDBRANCH  23  26
ENDBRANCH   1  20
BRANCH   3  28
HETATM   28  C   UNL     1      27.715  46.902  55.889  1.00  0.00     0.189 C 
BRANCH  28  29
HETATM   29  C   UNL     1      28.871  46.083  56.411  1.00  0.00    -0.038 A 
HETATM   30  C   UNL     1      29.659  45.327  55.529  1.00  0.00     0.009 A 
HETATM   31  C   UNL     1      30.715  44.550  56.006  1.00  0.00     0.001 A 
HETATM   32  C   UNL     1      31.000  44.525  57.368  1.00  0.00     0.000 A 
HETATM   33  C   UNL     1      30.230  45.278  58.255  1.00  0.00     0.001 A 
HETATM   34  C   UNL     1      29.171  46.053  57.781  1.00  0.00     0.009 A 
ENDBRANCH  28  29
ENDBRANCH   3  28
TORSDOF 7
ENDMDL
MODEL 3
REMARK VINA RESULT:     -10.0      2.808      3.724
REMARK  7 active torsions:
REMARK  status: ('A' for Active; 'I' for Inactive)
REMARK    1  A    between atoms: O_2  and  C_3 
REMARK    2  A    between atoms: C_6  and  C_7 
REMARK    3  A    between atoms: N_9  and  C_10 
REMARK    4  A    between atoms: C_10  and  C_11 
REMARK    5  A    between atoms: C_18  and  C_19 
REMARK       I    between atoms: C_19  and  N_20 
REMARK    6  A    between atoms: N_20  and  N_21 
REMARK       I    between atoms: N_21  and  C_22 
REMARK    7  A    between atoms: C_22  and  C_23 
ROOT
HETATM    1  C   UNL     1      26.545  42.996  51.030  1.00  0.00     0.104 A 
HETATM    2  N   UNL     1      27.123  42.133  51.890  1.00  0.00    -0.171 NA
HETATM    3  N   UNL     1      28.092  42.835  52.493  1.00  0.00    -0.275 N 
HETATM    4  C   UNL     1      28.234  44.093  51.990  1.00  0.00     0.132 A 
HETATM    5  C   UNL     1      27.226  44.261  51.054  1.00  0.00     0.082 A 
ENDROOT
BRANCH   5   6
HETATM    6  C   UNL     1      26.931  45.496  50.342  1.00  0.00     0.274 C 
HETATM    7  N   UNL     1      26.140  46.386  51.044  1.00  0.00    -0.263 N 
HETATM    8  H   UNL     1      25.746  46.184  51.959  1.00  0.00     0.190 HD
HETATM    9  O   UNL     1      27.333  45.748  49.209  1.00  0.00    -0.266 OA
BRANCH   7  10
HETATM   10  N   UNL     1      25.655  47.530  50.397  1.00  0.00    -0.262 N 
HETATM   11  C   UNL     1      24.424  47.452  49.779  1.00  0.00     0.286 C 
HETATM   12  O   UNL     1      23.703  46.461  49.904  1.00  0.00    -0.264 OA
HETATM   13  H   UNL     1      26.335  48.256  50.184  1.00  0.00     0.190 HD
BRANCH  11  14
HETATM   14  C   UNL     1      24.047  48.592  48.976  1.00  0.00     0.102 A 
HETATM   15  N   UNL     1      22.745  48.771  48.553  1.00  0.00    -0.361 N 
HETATM   16  H   UNL     1      21.990  48.133  48.776  1.00  0.00     0.165 HD
HETATM   17  C   UNL     1      22.640  49.913  47.808  1.00  0.00     0.088 A 
HETATM   18  C   UNL     1      23.885  50.493  47.746  1.00  0.00     0.019 A 
HETATM   19  C   UNL     1      24.772  49.665  48.480  1.00  0.00     0.036 A 
ENDBRANCH  11  14
ENDBRANCH   7  10
ENDBRANCH   5   6
BRANCH   1  20
HETATM   20  C   UNL     1      25.385  42.544  50.251  1.00  0.00    -0.004 A 
HETATM   21  C   UNL     1      24.118  43.094  50.519  1.00  0.00     0.016 A 
HETATM   22  C   UNL     1      22.981  42.685  49.813  1.00  0.00     0.037 A 
HETATM   23  C   UNL     1      23.091  41.714  48.820  1.00  0.00     0.068 A 
HETATM   24  C   UNL     1      24.341  41.152  48.556  1.00  0.00     0.037 A 
HETATM   25  C   UNL     1      25.478  41.555  49.269  1.00  0.00     0.016 A 
BRANCH  23  26
HETATM   26  O   UNL     1      22.067  41.232  48.052  1.00  0.00    -0.356 OA
HETATM   27  C   UNL     1      22.417  40.311  47.025  1.00  0.00     0.210 C 
ENDBRANCH  23  26
ENDBRANCH   1  20
BRANCH   3  28
HETATM   28  C   UNL     1      28.847  42.243  53.588  1.00  0.00     0.189 C 
BRANCH  28  29
HETATM   29  C   UNL     1      29.353  43.303  54.537  1.00  0.00    -0.038 A 
HETATM   30  C   UNL     1      30.635  43.197  55.100  1.00  0.00     0.009 A 
HETATM   31  C   UNL     1      31.101  44.161  55.995  1.00  0.00     0.001 A 
HETATM   32  C   UNL     1      30.294  45.244  56.333  1.00  0.00     0.000 A 
HETATM   33  C   UNL     1      29.021  45.365  55.776  1.00  0.00     0.001 A 
HETATM   34  C   UNL     1      28.551  44.401  54.882  1.00  0.00     0.009 A 
ENDBRANCH  28  29
ENDBRANCH   3  28
TORSDOF 7
ENDMDL
MODEL 4
REMARK VINA RESULT:      -9.9      2.579      6.735
REMARK  7 active torsions:
REMARK  status: ('A' for Active; 'I' for Inactive)
REMARK    1  A    between atoms: O_2  and  C_3 
REMARK    2  A    between atoms: C_6  and  C_7 
REMARK    3  A    between atoms: N_9  and  C_10 
REMARK    4  A    between atoms: C_10  and  C_11 
REMARK    5  A    between atoms: C_18  and  C_19 
REMARK       I    between atoms: C_19  and  N_20 
REMARK    6  A    between atoms: N_20  and  N_21 
REMARK       I    between atoms: N_21  and  C_22 
REMARK    7  A    between atoms: C_22  and  C_23 
ROOT
HETATM    1  C   UNL     1      25.994  46.415  51.474  1.00  0.00     0.104 A 
HETATM    2  N   UNL     1      26.327  46.864  52.700  1.00  0.00    -0.171 NA
HETATM    3  N   UNL     1      26.662  45.769  53.395  1.00  0.00    -0.275 N 
HETATM    4  C   UNL     1      26.466  44.613  52.702  1.00  0.00     0.132 A 
HETATM    5  C   UNL     1      26.062  44.981  51.428  1.00  0.00     0.082 A 
ENDROOT
BRANCH   5   6
HETATM    6  C   UNL     1      25.843  44.067  50.316  1.00  0.00     0.274 C 
HETATM    7  N   UNL     1      26.963  43.359  49.928  1.00  0.00    -0.263 N 
HETATM    8  H   UNL     1      27.882  43.494  50.341  1.00  0.00     0.190 HD
HETATM    9  O   UNL     1      24.762  43.925  49.747  1.00  0.00    -0.266 OA
BRANCH   7  10
HETATM   10  N   UNL     1      26.913  42.578  48.766  1.00  0.00    -0.262 N 
HETATM   11  C   UNL     1      27.506  41.333  48.796  1.00  0.00     0.286 C 
HETATM   12  O   UNL     1      27.944  40.854  49.843  1.00  0.00    -0.264 OA
HETATM   13  H   UNL     1      26.693  43.064  47.899  1.00  0.00     0.190 HD
BRANCH  11  14
HETATM   14  C   UNL     1      27.589  40.641  47.530  1.00  0.00     0.102 A 
HETATM   15  N   UNL     1      27.127  41.219  46.365  1.00  0.00    -0.361 N 
HETATM   16  H   UNL     1      26.711  42.142  46.323  1.00  0.00     0.165 HD
HETATM   17  C   UNL     1      27.311  40.371  45.308  1.00  0.00     0.088 A 
HETATM   18  C   UNL     1      27.907  39.227  45.784  1.00  0.00     0.019 A 
HETATM   19  C   UNL     1      28.084  39.394  47.180  1.00  0.00     0.036 A 
ENDBRANCH  11  14
ENDBRANCH   7  10
ENDBRANCH   5   6
BRANCH   1  20
HETATM   20  C   UNL     1      25.636  47.392  50.438  1.00  0.00    -0.004 A 
HETATM   21  C   UNL     1      26.649  48.157  49.832  1.00  0.00     0.016 A 
HETATM   22  C   UNL     1      26.355  49.111  48.851  1.00  0.00     0.037 A 
HETATM   23  C   UNL     1      25.036  49.317  48.454  1.00  0.00     0.068 A 
HETATM   24  C   UNL     1      24.021  48.572  49.059  1.00  0.00     0.037 A 
HETATM   25  C   UNL     1      24.315  47.624  50.048  1.00  0.00     0.016 A 
BRANCH  23  26
HETATM   26  O   UNL     1      24.612  50.206  47.505  1.00  0.00    -0.356 OA
HETATM   27  C   UNL     1      23.325  50.781  47.696  1.00  0.00     0.210 C 
ENDBRANCH  23  26
ENDBRANCH   1  20
BRANCH   3  28
HETATM   28  C   UNL     1      27.203  45.898  54.742  1.00  0.00     0.189 C 
BRANCH  28  29
HETATM   29  C   UNL     1      28.401  44.999  54.936  1.00  0.00    -0.038 A 
HETATM   30  C   UNL     1      29.473  45.412  55.745  1.00  0.00     0.009 A 
HETATM   31  C   UNL     1      30.593  44.597  55.911  1.00  0.00     0.001 A 
HETATM   32  C   UNL     1      30.652  43.358  55.278  1.00  0.00     0.000 A 
HETATM   33  C   UNL     1      29.592  42.934  54.477  1.00  0.00     0.001 A 
HETATM   34  C   UNL     1      28.471  43.748  54.307  1.00  0.00     0.009 A 
ENDBRANCH  28  29
ENDBRANCH   3  28
TORSDOF 7
ENDMDL
MODEL 5
REMARK VINA RESULT:      -9.9      3.325      7.845
REMARK  7 active torsions:
REMARK  status: ('A' for Active; 'I' for Inactive)
REMARK    1  A    between atoms: O_2  and  C_3 
REMARK    2  A    between atoms: C_6  and  C_7 
REMARK    3  A    between atoms: N_9  and  C_10 
REMARK    4  A    between atoms: C_10  and  C_11 
REMARK    5  A    between atoms: C_18  and  C_19 
REMARK       I    between atoms: C_19  and  N_20 
REMARK    6  A    between atoms: N_20  and  N_21 
REMARK       I    between atoms: N_21  and  C_22 
REMARK    7  A    between atoms: C_22  and  C_23 
ROOT
HETATM    1  C   UNL     1      27.075  44.347  51.785  1.00  0.00     0.104 A 
HETATM    2  N   UNL     1      26.535  45.582  51.773  1.00  0.00    -0.171 NA
HETATM    3  N   UNL     1      25.583  45.539  50.831  1.00  0.00    -0.275 N 
HETATM    4  C   UNL     1      25.547  44.356  50.159  1.00  0.00     0.132 A 
HETATM    5  C   UNL     1      26.480  43.528  50.765  1.00  0.00     0.082 A 
ENDROOT
BRANCH   5   6
HETATM    6  C   UNL     1      26.704  42.127  50.440  1.00  0.00     0.274 C 
HETATM    7  N   UNL     1      27.607  41.914  49.417  1.00  0.00    -0.263 N 
HETATM    8  H   UNL     1      28.044  42.666  48.890  1.00  0.00     0.190 HD
HETATM    9  O   UNL     1      26.144  41.192  51.009  1.00  0.00    -0.266 OA
BRANCH   7  10
HETATM   10  N   UNL     1      27.774  40.620  48.907  1.00  0.00    -0.262 N 
HETATM   11  C   UNL     1      28.132  40.487  47.582  1.00  0.00     0.286 C 
HETATM   12  O   UNL     1      28.435  41.465  46.895  1.00  0.00    -0.264 OA
HETATM   13  H   UNL     1      27.366  39.861  49.447  1.00  0.00     0.190 HD
BRANCH  11  14
HETATM   14  C   UNL     1      28.117  39.143  47.054  1.00  0.00     0.102 A 
HETATM   15  N   UNL     1      27.545  38.859  45.830  1.00  0.00    -0.361 N 
HETATM   16  H   UNL     1      27.112  39.558  45.238  1.00  0.00     0.165 HD
HETATM   17  C   UNL     1      27.652  37.525  45.553  1.00  0.00     0.088 A 
HETATM   18  C   UNL     1      28.306  36.926  46.604  1.00  0.00     0.019 A 
HETATM   19  C   UNL     1      28.601  37.941  47.548  1.00  0.00     0.036 A 
ENDBRANCH  11  14
ENDBRANCH   7  10
ENDBRANCH   5   6
BRANCH   1  20
HETATM   20  C   UNL     1      28.119  44.043  52.772  1.00  0.00    -0.004 A 
HETATM   21  C   UNL     1      29.160  43.163  52.426  1.00  0.00     0.016 A 
HETATM   22  C   UNL     1      30.169  42.832  53.338  1.00  0.00     0.037 A 
HETATM   23  C   UNL     1      30.157  43.380  54.618  1.00  0.00     0.068 A 
HETATM   24  C   UNL     1      29.120  44.244  54.976  1.00  0.00     0.037 A 
HETATM   25  C   UNL     1      28.105  44.568  54.067  1.00  0.00     0.016 A 
BRANCH  23  26
HETATM   26  O   UNL     1      31.081  43.149  55.600  1.00  0.00    -0.356 OA
HETATM   27  C   UNL     1      31.059  44.028  56.718  1.00  0.00     0.210 C 
ENDBRANCH  23  26
ENDBRANCH   1  20
BRANCH   3  28
HETATM   28  C   UNL     1      24.701  46.682  50.635  1.00  0.00     0.189 C 
BRANCH  28  29
HETATM   29  C   UNL     1      25.388  47.772  49.847  1.00  0.00    -0.038 A 
HETATM   30  C   UNL     1      26.789  47.860  49.834  1.00  0.00     0.009 A 
HETATM   31  C   UNL     1      27.431  48.878  49.127  1.00  0.00     0.001 A 
HETATM   32  C   UNL     1      26.681  49.814  48.420  1.00  0.00     0.000 A 
HETATM   33  C   UNL     1      25.288  49.734  48.420  1.00  0.00     0.001 A 
HETATM   34  C   UNL     1      24.643  48.718  49.129  1.00  0.00     0.009 A 
ENDBRANCH  28  29
ENDBRANCH   3  28
TORSDOF 7
ENDMDL
MODEL 6
REMARK VINA RESULT:      -9.8      2.565      6.276
REMARK  7 active torsions:
REMARK  status: ('A' for Active; 'I' for Inactive)
REMARK    1  A    between atoms: O_2  and  C_3 
REMARK    2  A    between atoms: C_6  and  C_7 
REMARK    3  A    between atoms: N_9  and  C_10 
REMARK    4  A    between atoms: C_10  and  C_11 
REMARK    5  A    between atoms: C_18  and  C_19 
REMARK       I    between atoms: C_19  and  N_20 
REMARK    6  A    between atoms: N_20  and  N_21 
REMARK       I    between atoms: N_21  and  C_22 
REMARK    7  A    between atoms: C_22  and  C_23 
ROOT
HETATM    1  C   UNL     1      27.530  42.547  51.993  1.00  0.00     0.104 A 
HETATM    2  N   UNL     1      27.318  41.217  51.952  1.00  0.00    -0.171 NA
HETATM    3  N   UNL     1      26.603  41.009  50.839  1.00  0.00    -0.275 N 
HETATM    4  C   UNL     1      26.254  42.163  50.204  1.00  0.00     0.132 A 
HETATM    5  C   UNL     1      26.863  43.196  50.899  1.00  0.00     0.082 A 
ENDROOT
BRANCH   5   6
HETATM    6  C   UNL     1      26.851  44.599  50.508  1.00  0.00     0.274 C 
HETATM    7  N   UNL     1      25.836  45.342  51.079  1.00  0.00    -0.263 N 
HETATM    8  H   UNL     1      25.119  44.944  51.679  1.00  0.00     0.190 HD
HETATM    9  O   UNL     1      27.660  45.103  49.733  1.00  0.00    -0.266 OA
BRANCH   7  10
HETATM   10  N   UNL     1      25.625  46.659  50.648  1.00  0.00    -0.262 N 
HETATM   11  C   UNL     1      24.534  46.909  49.842  1.00  0.00     0.286 C 
HETATM   12  O   UNL     1      23.687  46.042  49.616  1.00  0.00    -0.264 OA
HETATM   13  H   UNL     1      26.415  47.295  50.721  1.00  0.00     0.190 HD
BRANCH  11  14
HETATM   14  C   UNL     1      24.456  48.236  49.277  1.00  0.00     0.102 A 
HETATM   15  N   UNL     1      25.586  48.894  48.835  1.00  0.00    -0.361 N 
HETATM   16  H   UNL     1      26.518  48.499  48.875  1.00  0.00     0.165 HD
HETATM   17  C   UNL     1      25.257  50.129  48.349  1.00  0.00     0.088 A 
HETATM   18  C   UNL     1      23.896  50.281  48.468  1.00  0.00     0.019 A 
HETATM   19  C   UNL     1      23.389  49.093  49.050  1.00  0.00     0.036 A 
ENDBRANCH  11  14
ENDBRANCH   7  10
ENDBRANCH   5   6
BRANCH   1  20
HETATM   20  C   UNL     1      28.356  43.097  53.076  1.00  0.00    -0.004 A 
HETATM   21  C   UNL     1      27.872  44.182  53.829  1.00  0.00     0.016 A 
HETATM   22  C   UNL     1      28.629  44.749  54.861  1.00  0.00     0.037 A 
HETATM   23  C   UNL     1      29.889  44.237  55.161  1.00  0.00     0.068 A 
HETATM   24  C   UNL     1      30.384  43.169  54.411  1.00  0.00     0.037 A 
HETATM   25  C   UNL     1      29.631  42.608  53.372  1.00  0.00     0.016 A 
BRANCH  23  26
HETATM   26  O   UNL     1      30.726  44.689  56.144  1.00  0.00    -0.356 OA
HETATM   27  C   UNL     1      31.490  43.708  56.835  1.00  0.00     0.210 C 
ENDBRANCH  23  26
ENDBRANCH   1  20
BRANCH   3  28
HETATM   28  C   UNL     1      26.300  39.651  50.410  1.00  0.00     0.189 C 
BRANCH  28  29
HETATM   29  C   UNL     1      27.396  39.100  49.529  1.00  0.00    -0.038 A 
HETATM   30  C   UNL     1      27.214  39.017  48.139  1.00  0.00     0.009 A 
HETATM   31  C   UNL     1      28.214  38.489  47.321  1.00  0.00     0.001 A 
HETATM   32  C   UNL     1      29.408  38.045  47.881  1.00  0.00     0.000 A 
HETATM   33  C   UNL     1      29.605  38.129  49.260  1.00  0.00     0.001 A 
HETATM   34  C   UNL     1      28.606  38.654  50.080  1.00  0.00     0.009 A 
ENDBRANCH  28  29
ENDBRANCH   3  28
TORSDOF 7
ENDMDL
MODEL 7
REMARK VINA RESULT:      -9.7      2.997      7.183
REMARK  7 active torsions:
REMARK  status: ('A' for Active; 'I' for Inactive)
REMARK    1  A    between atoms: O_2  and  C_3 
REMARK    2  A    between atoms: C_6  and  C_7 
REMARK    3  A    between atoms: N_9  and  C_10 
REMARK    4  A    between atoms: C_10  and  C_11 
REMARK    5  A    between atoms: C_18  and  C_19 
REMARK       I    between atoms: C_19  and  N_20 
REMARK    6  A    between atoms: N_20  and  N_21 
REMARK       I    between atoms: N_21  and  C_22 
REMARK    7  A    between atoms: C_22  and  C_23 
ROOT
HETATM    1  C   UNL     1      28.039  43.543  52.442  1.00  0.00     0.104 A 
HETATM    2  N   UNL     1      28.929  44.063  53.309  1.00  0.00    -0.171 NA
HETATM    3  N   UNL     1      29.639  43.017  53.753  1.00  0.00    -0.275 N 
HETATM    4  C   UNL     1      29.181  41.823  53.286  1.00  0.00     0.132 A 
HETATM    5  C   UNL     1      28.157  42.112  52.398  1.00  0.00     0.082 A 
ENDROOT
BRANCH   5   6
HETATM    6  C   UNL     1      27.450  41.139  51.578  1.00  0.00     0.274 C 
HETATM    7  N   UNL     1      28.198  40.031  51.231  1.00  0.00    -0.263 N 
HETATM    8  H   UNL     1      29.178  39.918  51.475  1.00  0.00     0.190 HD
HETATM    9  O   UNL     1      26.285  41.271  51.207  1.00  0.00    -0.266 OA
BRANCH   7  10
HETATM   10  N   UNL     1      27.678  39.113  50.310  1.00  0.00    -0.262 N 
HETATM   11  C   UNL     1      28.557  38.251  49.688  1.00  0.00     0.286 C 
HETATM   12  O   UNL     1      29.741  38.185  50.025  1.00  0.00    -0.264 OA
HETATM   13  H   UNL     1      26.746  39.306  49.949  1.00  0.00     0.190 HD
BRANCH  11  14
HETATM   14  C   UNL     1      28.008  37.449  48.619  1.00  0.00     0.102 A 
HETATM   15  N   UNL     1      27.049  36.488  48.864  1.00  0.00    -0.361 N 
HETATM   16  H   UNL     1      26.676  36.288  49.785  1.00  0.00     0.165 HD
HETATM   17  C   UNL     1      26.692  35.864  47.700  1.00  0.00     0.088 A 
HETATM   18  C   UNL     1      27.421  36.427  46.679  1.00  0.00     0.019 A 
HETATM   19  C   UNL     1      28.248  37.425  47.253  1.00  0.00     0.036 A 
ENDBRANCH  11  14
ENDBRANCH   7  10
ENDBRANCH   5   6
BRANCH   1  20
HETATM   20  C   UNL     1      27.142  44.455  51.720  1.00  0.00    -0.004 A 
HETATM   21  C   UNL     1      27.256  44.573  50.324  1.00  0.00     0.016 A 
HETATM   22  C   UNL     1      26.433  45.440  49.595  1.00  0.00     0.037 A 
HETATM   23  C   UNL     1      25.475  46.207  50.253  1.00  0.00     0.068 A 
HETATM   24  C   UNL     1      25.362  46.107  51.641  1.00  0.00     0.037 A 
HETATM   25  C   UNL     1      26.192  45.247  52.372  1.00  0.00     0.016 A 
BRANCH  23  26
HETATM   26  O   UNL     1      24.605  47.083  49.665  1.00  0.00    -0.356 OA
HETATM   27  C   UNL     1      25.087  48.399  49.425  1.00  0.00     0.210 C 
ENDBRANCH  23  26
ENDBRANCH   1  20
BRANCH   3  28
HETATM   28  C   UNL     1      30.788  43.232  54.623  1.00  0.00     0.189 C 
BRANCH  28  29
HETATM   29  C   UNL     1      30.438  44.149  55.770  1.00  0.00    -0.038 A 
HETATM   30  C   UNL     1      29.430  45.115  55.623  1.00  0.00     0.009 A 
HETATM   31  C   UNL     1      29.116  45.981  56.672  1.00  0.00     0.001 A 
HETATM   32  C   UNL     1      29.802  45.888  57.880  1.00  0.00     0.000 A 
HETATM   33  C   UNL     1      30.801  44.928  58.042  1.00  0.00     0.001 A 
HETATM   34  C   UNL     1      31.119  44.062  56.993  1.00  0.00     0.009 A 
ENDBRANCH  28  29
ENDBRANCH   3  28
TORSDOF 7
ENDMDL
MODEL 8
REMARK VINA RESULT:      -9.7      2.623      8.740
REMARK  7 active torsions:
REMARK  status: ('A' for Active; 'I' for Inactive)
REMARK    1  A    between atoms: O_2  and  C_3 
REMARK    2  A    between atoms: C_6  and  C_7 
REMARK    3  A    between atoms: N_9  and  C_10 
REMARK    4  A    between atoms: C_10  and  C_11 
REMARK    5  A    between atoms: C_18  and  C_19 
REMARK       I    between atoms: C_19  and  N_20 
REMARK    6  A    between atoms: N_20  and  N_21 
REMARK       I    between atoms: N_21  and  C_22 
REMARK    7  A    between atoms: C_22  and  C_23 
ROOT
HETATM    1  C   UNL     1      26.051  43.757  50.314  1.00  0.00     0.104 A 
HETATM    2  N   UNL     1      25.738  42.868  49.351  1.00  0.00    -0.171 NA
HETATM    3  N   UNL     1      26.041  41.670  49.867  1.00  0.00    -0.275 N 
HETATM    4  C   UNL     1      26.633  41.748  51.091  1.00  0.00     0.132 A 
HETATM    5  C   UNL     1      26.632  43.089  51.445  1.00  0.00     0.082 A 
ENDROOT
BRANCH   5   6
HETATM    6  C   UNL     1      27.072  43.625  52.725  1.00  0.00     0.274 C 
HETATM    7  N   UNL     1      28.378  44.074  52.739  1.00  0.00    -0.263 N 
HETATM    8  H   UNL     1      29.007  43.994  51.945  1.00  0.00     0.190 HD
HETATM    9  O   UNL     1      26.362  43.678  53.727  1.00  0.00    -0.266 OA
BRANCH   7  10
HETATM   10  N   UNL     1      28.960  44.454  53.956  1.00  0.00    -0.262 N 
HETATM   11  C   UNL     1      30.013  43.702  54.433  1.00  0.00     0.286 C 
HETATM   12  O   UNL     1      30.526  42.809  53.755  1.00  0.00    -0.264 OA
HETATM   13  H   UNL     1      28.416  45.079  54.546  1.00  0.00     0.190 HD
BRANCH  11  14
HETATM   14  C   UNL     1      30.462  44.017  55.769  1.00  0.00     0.102 A 
HETATM   15  N   UNL     1      30.001  45.135  56.435  1.00  0.00    -0.361 N 
HETATM   16  H   UNL     1      29.334  45.788  56.041  1.00  0.00     0.165 HD
HETATM   17  C   UNL     1      30.572  45.219  57.675  1.00  0.00     0.088 A 
HETATM   18  C   UNL     1      31.412  44.141  57.827  1.00  0.00     0.019 A 
HETATM   19  C   UNL     1      31.345  43.383  56.631  1.00  0.00     0.036 A 
ENDBRANCH  11  14
ENDBRANCH   7  10
ENDBRANCH   5   6
BRANCH   1  20
HETATM   20  C   UNL     1      25.769  45.179  50.080  1.00  0.00    -0.004 A 
HETATM   21  C   UNL     1      26.833  46.058  49.810  1.00  0.00     0.016 A 
HETATM   22  C   UNL     1      26.615  47.424  49.595  1.00  0.00     0.037 A 
HETATM   23  C   UNL     1      25.321  47.938  49.645  1.00  0.00     0.068 A 
HETATM   24  C   UNL     1      24.259  47.076  49.926  1.00  0.00     0.037 A 
HETATM   25  C   UNL     1      24.479  45.711  50.151  1.00  0.00     0.016 A 
BRANCH  23  26
HETATM   26  O   UNL     1      24.968  49.244  49.446  1.00  0.00    -0.356 OA
HETATM   27  C   UNL     1      25.383  49.840  48.223  1.00  0.00     0.210 C 
ENDBRANCH  23  26
ENDBRANCH   1  20
BRANCH   3  28
HETATM   28  C   UNL     1      25.708  40.455  49.135  1.00  0.00     0.189 C 
BRANCH  28  29
HETATM   29  C   UNL     1      26.877  39.500  49.104  1.00  0.00    -0.038 A 
HETATM   30  C   UNL     1      26.747  38.203  49.627  1.00  0.00     0.009 A 
HETATM   31  C   UNL     1      27.829  37.322  49.622  1.00  0.00     0.001 A 
HETATM   32  C   UNL     1      29.051  37.724  49.090  1.00  0.00     0.000 A 
HETATM   33  C   UNL     1      29.192  39.007  48.561  1.00  0.00     0.001 A 
HETATM   34  C   UNL     1      28.112  39.892  48.567  1.00  0.00     0.009 A 
ENDBRANCH  28  29
ENDBRANCH   3  28
TORSDOF 7
ENDMDL
MODEL 9
REMARK VINA RESULT:      -9.5      2.566      8.754
REMARK  7 active torsions:
REMARK  status: ('A' for Active; 'I' for Inactive)
REMARK    1  A    between atoms: O_2  and  C_3 
REMARK    2  A    between atoms: C_6  and  C_7 
REMARK    3  A    between atoms: N_9  and  C_10 
REMARK    4  A    between atoms: C_10  and  C_11 
REMARK    5  A    between atoms: C_18  and  C_19 
REMARK       I    between atoms: C_19  and  N_20 
REMARK    6  A    between atoms: N_20  and  N_21 
REMARK       I    between atoms: N_21  and  C_22 
REMARK    7  A    between atoms: C_22  and  C_23 
ROOT
HETATM    1  C   UNL     1      25.489  45.867  51.109  1.00  0.00     0.104 A 
HETATM    2  N   UNL     1      24.408  46.628  50.850  1.00  0.00    -0.171 NA
HETATM    3  N   UNL     1      24.010  46.266  49.624  1.00  0.00    -0.275 N 
HETATM    4  C   UNL     1      24.847  45.371  49.031  1.00  0.00     0.132 A 
HETATM    5  C   UNL     1      25.813  45.051  49.973  1.00  0.00     0.082 A 
ENDROOT
BRANCH   5   6
HETATM    6  C   UNL     1      26.853  44.045  49.808  1.00  0.00     0.274 C 
HETATM    7  N   UNL     1      26.459  42.925  49.102  1.00  0.00    -0.263 N 
HETATM    8  H   UNL     1      25.511  42.778  48.768  1.00  0.00     0.190 HD
HETATM    9  O   UNL     1      27.993  44.157  50.254  1.00  0.00    -0.266 OA
BRANCH   7  10
HETATM   10  N   UNL     1      27.322  41.824  49.026  1.00  0.00    -0.262 N 
HETATM   11  C   UNL     1      27.180  40.823  49.964  1.00  0.00     0.286 C 
HETATM   12  O   UNL     1      26.240  40.817  50.762  1.00  0.00    -0.264 OA
HETATM   13  H   UNL     1      28.165  41.943  48.469  1.00  0.00     0.190 HD
BRANCH  11  14
HETATM   14  C   UNL     1      28.200  39.801  49.959  1.00  0.00     0.102 A 
HETATM   15  N   UNL     1      28.842  39.423  51.121  1.00  0.00    -0.361 N 
HETATM   16  H   UNL     1      28.643  39.827  52.029  1.00  0.00     0.165 HD
HETATM   17  C   UNL     1      29.764  38.447  50.860  1.00  0.00     0.088 A 
HETATM   18  C   UNL     1      29.722  38.177  49.512  1.00  0.00     0.019 A 
HETATM   19  C   UNL     1      28.739  39.025  48.943  1.00  0.00     0.036 A 
ENDBRANCH  11  14
ENDBRANCH   7  10
ENDBRANCH   5   6
BRANCH   1  20
HETATM   20  C   UNL     1      26.132  45.979  52.425  1.00  0.00    -0.004 A 
HETATM   21  C   UNL     1      26.371  47.252  52.971  1.00  0.00     0.016 A 
HETATM   22  C   UNL     1      26.993  47.408  54.215  1.00  0.00     0.037 A 
HETATM   23  C   UNL     1      27.388  46.287  54.941  1.00  0.00     0.068 A 
HETATM   24  C   UNL     1      27.167  45.018  54.402  1.00  0.00     0.037 A 
HETATM   25  C   UNL     1      26.553  44.862  53.153  1.00  0.00     0.016 A 
BRANCH  23  26
HETATM   26  O   UNL     1      27.995  46.297  56.166  1.00  0.00    -0.356 OA
HETATM   27  C   UNL     1      29.331  45.810  56.222  1.00  0.00     0.210 C 
ENDBRANCH  23  26
ENDBRANCH   1  20
BRANCH   3  28
HETATM   28  C   UNL     1      22.775  46.805  49.069  1.00  0.00     0.189 C 
BRANCH  28  29
HETATM   29  C   UNL     1      22.863  48.303  48.899  1.00  0.00    -0.038 A 
HETATM   30  C   UNL     1      24.046  48.894  48.428  1.00  0.00     0.009 A 
HETATM   31  C   UNL     1      24.143  50.279  48.289  1.00  0.00     0.001 A 
HETATM   32  C   UNL     1      23.057  51.089  48.612  1.00  0.00     0.000 A 
HETATM   33  C   UNL     1      21.873  50.514  49.074  1.00  0.00     0.001 A 
HETATM   34  C   UNL     1      21.775  49.129  49.217  1.00  0.00     0.009 A 
ENDBRANCH  28  29
ENDBRANCH   3  28
TORSDOF 7
ENDMDL
MODEL 10
REMARK VINA RESULT:      -9.5      2.265      8.746
REMARK  7 active torsions:
REMARK  status: ('A' for Active; 'I' for Inactive)
REMARK    1  A    between atoms: O_2  and  C_3 
REMARK    2  A    between atoms: C_6  and  C_7 
REMARK    3  A    between atoms: N_9  and  C_10 
REMARK    4  A    between atoms: C_10  and  C_11 
REMARK    5  A    between atoms: C_18  and  C_19 
REMARK       I    between atoms: C_19  and  N_20 
REMARK    6  A    between atoms: N_20  and  N_21 
REMARK       I    between atoms: N_21  and  C_22 
REMARK    7  A    between atoms: C_22  and  C_23 
ROOT
HETATM    1  C   UNL     1      23.684  46.256  49.213  1.00  0.00     0.104 A 
HETATM    2  N   UNL     1      22.690  46.667  48.402  1.00  0.00    -0.171 NA
HETATM    3  N   UNL     1      22.663  48.001  48.528  1.00  0.00    -0.275 N 
HETATM    4  C   UNL     1      23.535  48.468  49.464  1.00  0.00     0.132 A 
HETATM    5  C   UNL     1      24.251  47.372  49.919  1.00  0.00     0.082 A 
ENDROOT
BRANCH   5   6
HETATM    6  C   UNL     1      25.368  47.420  50.852  1.00  0.00     0.274 C 
HETATM    7  N   UNL     1      25.188  46.671  51.999  1.00  0.00    -0.263 N 
HETATM    8  H   UNL     1      24.332  46.167  52.211  1.00  0.00     0.190 HD
HETATM    9  O   UNL     1      26.393  48.071  50.662  1.00  0.00    -0.266 OA
BRANCH   7  10
HETATM   10  N   UNL     1      26.121  46.776  53.039  1.00  0.00    -0.262 N 
HETATM   11  C   UNL     1      26.969  45.710  53.258  1.00  0.00     0.286 C 
HETATM   12  O   UNL     1      27.011  44.751  52.484  1.00  0.00    -0.264 OA
HETATM   13  H   UNL     1      25.947  47.495  53.737  1.00  0.00     0.190 HD
BRANCH  11  14
HETATM   14  C   UNL     1      27.786  45.785  54.447  1.00  0.00     0.102 A 
HETATM   15  N   UNL     1      28.824  44.901  54.660  1.00  0.00    -0.361 N 
HETATM   16  H   UNL     1      29.074  44.162  54.013  1.00  0.00     0.165 HD
HETATM   17  C   UNL     1      29.441  45.171  55.850  1.00  0.00     0.088 A 
HETATM   18  C   UNL     1      28.806  46.248  56.421  1.00  0.00     0.019 A 
HETATM   19  C   UNL     1      27.765  46.638  55.541  1.00  0.00     0.036 A 
ENDBRANCH  11  14
ENDBRANCH   7  10
ENDBRANCH   5   6
BRANCH   1  20
HETATM   20  C   UNL     1      24.018  44.826  49.252  1.00  0.00    -0.004 A 
HETATM   21  C   UNL     1      22.988  43.882  49.409  1.00  0.00     0.016 A 
HETATM   22  C   UNL     1      23.259  42.510  49.466  1.00  0.00     0.037 A 
HETATM   23  C   UNL     1      24.571  42.055  49.364  1.00  0.00     0.068 A 
HETATM   24  C   UNL     1      25.603  42.985  49.222  1.00  0.00     0.037 A 
HETATM   25  C   UNL     1      25.332  44.359  49.174  1.00  0.00     0.016 A 
BRANCH  23  26
HETATM   26  O   UNL     1      24.973  40.748  49.396  1.00  0.00    -0.356 OA
HETATM   27  C   UNL     1      26.073  40.437  50.243  1.00  0.00     0.210 C 
ENDBRANCH  23  26
ENDBRANCH   1  20
BRANCH   3  28
HETATM   28  C   UNL     1      21.780  48.795  47.684  1.00  0.00     0.189 C 
BRANCH  28  29
HETATM   29  C   UNL     1      20.838  49.631  48.517  1.00  0.00    -0.038 A 
HETATM   30  C   UNL     1      20.066  49.034  49.527  1.00  0.00     0.009 A 
HETATM   31  C   UNL     1      19.177  49.796  50.287  1.00  0.00     0.001 A 
HETATM   32  C   UNL     1      19.054  51.162  50.050  1.00  0.00     0.000 A 
HETATM   33  C   UNL     1      19.819  51.769  49.055  1.00  0.00     0.001 A 
HETATM   34  C   UNL     1      20.708  51.009  48.292  1.00  0.00     0.009 A 
ENDBRANCH  28  29
ENDBRANCH   3  28
TORSDOF 7
ENDMDL
