MODEL 1
REMARK VINA RESULT:      -8.1      0.000      0.000
REMARK  3 active torsions:
REMARK  status: ('A' for Active; 'I' for Inactive)
REMARK    1  A    between atoms: C_2  and  N_3 
REMARK       I    between atoms: N_3  and  C_4 
REMARK    2  A    between atoms: C_4  and  C_5 
REMARK    3  A    between atoms: C_5  and  C_6 
ROOT
HETATM    1  C   UNL     1      26.635  43.117  52.880  1.00  0.00     0.286 C 
HETATM    2  N   UNL     1      27.530  43.770  51.832  1.00  0.00    -0.056 N 
HETATM    3  H   UNL     1      28.308  44.205  52.373  1.00  0.00     0.278 HD
HETATM    4  H   UNL     1      27.966  43.069  51.221  1.00  0.00     0.278 HD
HETATM    5  C   UNL     1      26.872  44.860  51.032  1.00  0.00     0.209 C 
HETATM    6  C   UNL     1      26.260  45.903  51.999  1.00  0.00     0.115 C 
HETATM    7  N   UNL     1      25.445  45.296  53.050  1.00  0.00    -0.353 N 
HETATM    8  C   UNL     1      25.800  44.130  53.690  1.00  0.00     0.249 C 
HETATM    9  O   UNL     1      25.371  43.887  54.813  1.00  0.00    -0.271 OA
HETATM   10  C   UNL     1      25.851  44.259  50.064  1.00  0.00     0.035 C 
HETATM   11  C   UNL     1      25.107  45.355  49.306  1.00  0.00     0.002 C 
HETATM   12  C   UNL     1      24.450  46.348  50.262  1.00  0.00     0.002 C 
HETATM   13  C   UNL     1      25.464  46.961  51.226  1.00  0.00     0.027 C 
HETATM   14  H   UNL     1      24.927  45.923  53.664  1.00  0.00     0.163 HD
ENDROOT
BRANCH   1  15
HETATM   15  C   UNL     1      27.451  42.193  53.797  1.00  0.00     0.146 C 
BRANCH  15  16
HETATM   16  C   UNL     1      28.858  42.035  53.281  1.00  0.00     0.224 C 
HETATM   17  N   UNL     1      29.897  42.774  53.747  1.00  0.00    -0.327 N 
HETATM   18  H   UNL     1      30.740  42.614  53.202  1.00  0.00     0.169 HD
HETATM   19  O   UNL     1      29.075  41.163  52.426  1.00  0.00    -0.273 OA
BRANCH  17  20
HETATM   20  C   UNL     1      30.048  43.680  54.815  1.00  0.00     0.034 A 
HETATM   21  C   UNL     1      29.346  44.877  54.973  1.00  0.00     0.031 A 
HETATM   22  C   UNL     1      29.555  45.684  56.101  1.00  0.00     0.026 A 
HETATM   23  C   UNL     1      30.462  45.297  57.082  1.00  0.00     0.034 A 
HETATM   24  C   UNL     1      31.164  44.107  56.946  1.00  0.00     0.026 A 
HETATM   25 CL   UNL     1      30.702  46.287  58.466  1.00  0.00    -0.084 Cl
HETATM   26  C   UNL     1      30.953  43.303  55.821  1.00  0.00     0.031 A 
ENDBRANCH  17  20
ENDBRANCH  15  16
ENDBRANCH   1  15
TORSDOF 3
ENDMDL
MODEL 2
REMARK VINA RESULT:      -8.0      5.579      8.082
REMARK  3 active torsions:
REMARK  status: ('A' for Active; 'I' for Inactive)
REMARK    1  A    between atoms: C_2  and  N_3 
REMARK       I    between atoms: N_3  and  C_4 
REMARK    2  A    between atoms: C_4  and  C_5 
REMARK    3  A    between atoms: C_5  and  C_6 
ROOT
HETATM    1  C   UNL     1      21.916  48.772  48.959  1.00  0.00     0.286 C 
HETATM    2  N   UNL     1      21.929  49.967  49.908  1.00  0.00    -0.056 N 
HETATM    3  H   UNL     1      22.024  49.554  50.860  1.00  0.00     0.278 HD
HETATM    4  H   UNL     1      22.764  50.549  49.766  1.00  0.00     0.278 HD
HETATM    5  C   UNL     1      20.676  50.795  49.896  1.00  0.00     0.209 C 
HETATM    6  C   UNL     1      19.454  49.876  50.143  1.00  0.00     0.115 C 
HETATM    7  N   UNL     1      19.450  48.691  49.285  1.00  0.00    -0.353 N 
HETATM    8  C   UNL     1      20.592  47.982  48.987  1.00  0.00     0.249 C 
HETATM    9  O   UNL     1      20.518  46.803  48.660  1.00  0.00    -0.271 OA
HETATM   10  C   UNL     1      20.581  51.589  48.591  1.00  0.00     0.035 C 
HETATM   11  C   UNL     1      19.271  52.368  48.519  1.00  0.00     0.002 C 
HETATM   12  C   UNL     1      18.065  51.449  48.700  1.00  0.00     0.002 C 
HETATM   13  C   UNL     1      18.145  50.660  50.006  1.00  0.00     0.027 C 
HETATM   14  H   UNL     1      18.628  48.091  49.318  1.00  0.00     0.163 HD
ENDROOT
BRANCH   1  15
HETATM   15  C   UNL     1      23.127  47.860  49.210  1.00  0.00     0.146 C 
BRANCH  15  16
HETATM   16  C   UNL     1      24.414  48.630  49.067  1.00  0.00     0.224 C 
HETATM   17  N   UNL     1      25.580  48.219  49.626  1.00  0.00    -0.327 N 
HETATM   18  H   UNL     1      26.309  48.920  49.525  1.00  0.00     0.169 HD
HETATM   19  O   UNL     1      24.409  49.658  48.373  1.00  0.00    -0.273 OA
BRANCH  17  20
HETATM   20  C   UNL     1      25.985  47.041  50.287  1.00  0.00     0.034 A 
HETATM   21  C   UNL     1      26.610  45.946  49.686  1.00  0.00     0.031 A 
HETATM   22  C   UNL     1      27.003  44.840  50.454  1.00  0.00     0.026 A 
HETATM   23  C   UNL     1      26.779  44.823  51.827  1.00  0.00     0.034 A 
HETATM   24  C   UNL     1      26.165  45.906  52.442  1.00  0.00     0.026 A 
HETATM   25 CL   UNL     1      27.274  43.468  52.759  1.00  0.00    -0.084 Cl
HETATM   26  C   UNL     1      25.776  47.009  51.674  1.00  0.00     0.031 A 
ENDBRANCH  17  20
ENDBRANCH  15  16
ENDBRANCH   1  15
TORSDOF 3
ENDMDL
MODEL 3
REMARK VINA RESULT:      -7.9      2.501      3.888
REMARK  3 active torsions:
REMARK  status: ('A' for Active; 'I' for Inactive)
REMARK    1  A    between atoms: C_2  and  N_3 
REMARK       I    between atoms: N_3  and  C_4 
REMARK    2  A    between atoms: C_4  and  C_5 
REMARK    3  A    between atoms: C_5  and  C_6 
ROOT
HETATM    1  C   UNL     1      26.926  42.732  52.319  1.00  0.00     0.286 C 
HETATM    2  N   UNL     1      25.695  42.640  51.423  1.00  0.00    -0.056 N 
HETATM    3  H   UNL     1      24.948  42.239  52.030  1.00  0.00     0.278 HD
HETATM    4  H   UNL     1      25.364  43.571  51.142  1.00  0.00     0.278 HD
HETATM    5  C   UNL     1      25.847  41.731  50.235  1.00  0.00     0.209 C 
HETATM    6  C   UNL     1      26.316  40.336  50.717  1.00  0.00     0.115 C 
HETATM    7  N   UNL     1      27.460  40.403  51.626  1.00  0.00    -0.353 N 
HETATM    8  C   UNL     1      27.582  41.366  52.602  1.00  0.00     0.249 C 
HETATM    9  O   UNL     1      28.274  41.156  53.592  1.00  0.00    -0.271 OA
HETATM   10  C   UNL     1      26.786  42.363  49.206  1.00  0.00     0.035 C 
HETATM   11  C   UNL     1      27.025  41.417  48.032  1.00  0.00     0.002 C 
HETATM   12  C   UNL     1      27.549  40.063  48.504  1.00  0.00     0.002 C 
HETATM   13  C   UNL     1      26.612  39.419  49.525  1.00  0.00     0.027 C 
HETATM   14  H   UNL     1      27.889  39.522  51.906  1.00  0.00     0.163 HD
ENDROOT
BRANCH   1  15
HETATM   15  C   UNL     1      26.601  43.486  53.618  1.00  0.00     0.146 C 
BRANCH  15  16
HETATM   16  C   UNL     1      26.884  44.959  53.466  1.00  0.00     0.224 C 
HETATM   17  N   UNL     1      27.878  45.588  54.142  1.00  0.00    -0.327 N 
HETATM   18  H   UNL     1      27.842  46.594  54.004  1.00  0.00     0.169 HD
HETATM   19  O   UNL     1      26.203  45.606  52.656  1.00  0.00    -0.273 OA
BRANCH  17  20
HETATM   20  C   UNL     1      28.935  45.144  54.962  1.00  0.00     0.034 A 
HETATM   21  C   UNL     1      29.311  45.709  56.182  1.00  0.00     0.031 A 
HETATM   22  C   UNL     1      30.360  45.155  56.931  1.00  0.00     0.026 A 
HETATM   23  C   UNL     1      31.035  44.030  56.469  1.00  0.00     0.034 A 
HETATM   24  C   UNL     1      30.670  43.451  55.261  1.00  0.00     0.026 A 
HETATM   25 CL   UNL     1      32.311  43.354  57.400  1.00  0.00    -0.084 Cl
HETATM   26  C   UNL     1      29.623  44.003  54.517  1.00  0.00     0.031 A 
ENDBRANCH  17  20
ENDBRANCH  15  16
ENDBRANCH   1  15
TORSDOF 3
ENDMDL
MODEL 4
REMARK VINA RESULT:      -7.9      2.672      4.072
REMARK  3 active torsions:
REMARK  status: ('A' for Active; 'I' for Inactive)
REMARK    1  A    between atoms: C_2  and  N_3 
REMARK       I    between atoms: N_3  and  C_4 
REMARK    2  A    between atoms: C_4  and  C_5 
REMARK    3  A    between atoms: C_5  and  C_6 
ROOT
HETATM    1  C   UNL     1      25.985  45.280  50.037  1.00  0.00     0.286 C 
HETATM    2  N   UNL     1      26.166  46.434  51.018  1.00  0.00    -0.056 N 
HETATM    3  H   UNL     1      25.462  46.262  51.769  1.00  0.00     0.278 HD
HETATM    4  H   UNL     1      27.084  46.397  51.476  1.00  0.00     0.278 HD
HETATM    5  C   UNL     1      25.893  47.796  50.445  1.00  0.00     0.209 C 
HETATM    6  C   UNL     1      24.487  47.805  49.797  1.00  0.00     0.115 C 
HETATM    7  N   UNL     1      24.269  46.673  48.896  1.00  0.00    -0.353 N 
HETATM    8  C   UNL     1      24.712  45.401  49.176  1.00  0.00     0.249 C 
HETATM    9  O   UNL     1      24.163  44.430  48.665  1.00  0.00    -0.271 OA
HETATM   10  C   UNL     1      27.009  48.193  49.477  1.00  0.00     0.035 C 
HETATM   11  C   UNL     1      26.706  49.535  48.816  1.00  0.00     0.002 C 
HETATM   12  C   UNL     1      25.346  49.521  48.121  1.00  0.00     0.002 C 
HETATM   13  C   UNL     1      24.224  49.136  49.084  1.00  0.00     0.027 C 
HETATM   14  H   UNL     1      23.406  46.664  48.354  1.00  0.00     0.163 HD
ENDROOT
BRANCH   1  15
HETATM   15  C   UNL     1      26.053  43.927  50.764  1.00  0.00     0.146 C 
BRANCH  15  16
HETATM   16  C   UNL     1      25.183  43.938  51.994  1.00  0.00     0.224 C 
HETATM   17  N   UNL     1      25.673  43.718  53.240  1.00  0.00    -0.327 N 
HETATM   18  H   UNL     1      24.927  43.646  53.926  1.00  0.00     0.169 HD
HETATM   19  O   UNL     1      23.979  44.201  51.859  1.00  0.00    -0.273 OA
BRANCH  17  20
HETATM   20  C   UNL     1      26.973  43.590  53.770  1.00  0.00     0.034 A 
HETATM   21  C   UNL     1      27.782  42.455  53.675  1.00  0.00     0.031 A 
HETATM   22  C   UNL     1      29.079  42.457  54.210  1.00  0.00     0.026 A 
HETATM   23  C   UNL     1      29.578  43.594  54.837  1.00  0.00     0.034 A 
HETATM   24  C   UNL     1      28.790  44.734  54.934  1.00  0.00     0.026 A 
HETATM   25 CL   UNL     1      31.171  43.589  55.479  1.00  0.00    -0.084 Cl
HETATM   26  C   UNL     1      27.498  44.730  54.398  1.00  0.00     0.031 A 
ENDBRANCH  17  20
ENDBRANCH  15  16
ENDBRANCH   1  15
TORSDOF 3
ENDMDL
MODEL 5
REMARK VINA RESULT:      -7.7      4.612      8.231
REMARK  3 active torsions:
REMARK  status: ('A' for Active; 'I' for Inactive)
REMARK    1  A    between atoms: C_2  and  N_3 
REMARK       I    between atoms: N_3  and  C_4 
REMARK    2  A    between atoms: C_4  and  C_5 
REMARK    3  A    between atoms: C_5  and  C_6 
ROOT
HETATM    1  C   UNL     1      25.974  46.418  51.763  1.00  0.00     0.286 C 
HETATM    2  N   UNL     1      25.785  44.957  51.365  1.00  0.00    -0.056 N 
HETATM    3  H   UNL     1      24.765  44.776  51.480  1.00  0.00     0.278 HD
HETATM    4  H   UNL     1      25.989  44.811  50.369  1.00  0.00     0.278 HD
HETATM    5  C   UNL     1      26.520  43.970  52.226  1.00  0.00     0.209 C 
HETATM    6  C   UNL     1      26.153  44.215  53.711  1.00  0.00     0.115 C 
HETATM    7  N   UNL     1      26.270  45.620  54.101  1.00  0.00    -0.353 N 
HETATM    8  C   UNL     1      25.879  46.656  53.283  1.00  0.00     0.249 C 
HETATM    9  O   UNL     1      25.574  47.741  53.766  1.00  0.00    -0.271 OA
HETATM   10  C   UNL     1      28.023  44.049  51.953  1.00  0.00     0.035 C 
HETATM   11  C   UNL     1      28.797  43.118  52.882  1.00  0.00     0.002 C 
HETATM   12  C   UNL     1      28.482  43.404  54.349  1.00  0.00     0.002 C 
HETATM   13  C   UNL     1      26.983  43.316  54.633  1.00  0.00     0.027 C 
HETATM   14  H   UNL     1      26.142  45.845  55.086  1.00  0.00     0.163 HD
ENDROOT
BRANCH   1  15
HETATM   15  C   UNL     1      25.009  47.327  50.985  1.00  0.00     0.146 C 
BRANCH  15  16
HETATM   16  C   UNL     1      25.553  47.633  49.613  1.00  0.00     0.224 C 
HETATM   17  N   UNL     1      24.856  48.343  48.690  1.00  0.00    -0.327 N 
HETATM   18  H   UNL     1      25.329  48.348  47.790  1.00  0.00     0.169 HD
HETATM   19  O   UNL     1      26.702  47.255  49.340  1.00  0.00    -0.273 OA
BRANCH  17  20
HETATM   20  C   UNL     1      23.650  49.072  48.725  1.00  0.00     0.034 A 
HETATM   21  C   UNL     1      22.375  48.528  48.894  1.00  0.00     0.031 A 
HETATM   22  C   UNL     1      21.247  49.359  48.951  1.00  0.00     0.026 A 
HETATM   23  C   UNL     1      21.385  50.739  48.846  1.00  0.00     0.034 A 
HETATM   24  C   UNL     1      22.646  51.298  48.685  1.00  0.00     0.026 A 
HETATM   25 CL   UNL     1      19.997  51.748  48.929  1.00  0.00    -0.084 Cl
HETATM   26  C   UNL     1      23.770  50.468  48.630  1.00  0.00     0.031 A 
ENDBRANCH  17  20
ENDBRANCH  15  16
ENDBRANCH   1  15
TORSDOF 3
ENDMDL
MODEL 6
REMARK VINA RESULT:      -7.7      3.294      6.620
REMARK  3 active torsions:
REMARK  status: ('A' for Active; 'I' for Inactive)
REMARK    1  A    between atoms: C_2  and  N_3 
REMARK       I    between atoms: N_3  and  C_4 
REMARK    2  A    between atoms: C_4  and  C_5 
REMARK    3  A    between atoms: C_5  and  C_6 
ROOT
HETATM    1  C   UNL     1      26.359  44.800  52.855  1.00  0.00     0.286 C 
HETATM    2  N   UNL     1      26.346  43.339  53.295  1.00  0.00    -0.056 N 
HETATM    3  H   UNL     1      25.721  43.314  54.129  1.00  0.00     0.278 HD
HETATM    4  H   UNL     1      25.904  42.739  52.589  1.00  0.00     0.278 HD
HETATM    5  C   UNL     1      27.683  42.797  53.715  1.00  0.00     0.209 C 
HETATM    6  C   UNL     1      28.291  43.721  54.799  1.00  0.00     0.115 C 
HETATM    7  N   UNL     1      28.260  45.134  54.425  1.00  0.00    -0.353 N 
HETATM    8  C   UNL     1      27.190  45.712  53.780  1.00  0.00     0.249 C 
HETATM    9  O   UNL     1      26.992  46.918  53.872  1.00  0.00    -0.271 OA
HETATM   10  C   UNL     1      28.588  42.621  52.494  1.00  0.00     0.035 C 
HETATM   11  C   UNL     1      29.981  42.156  52.908  1.00  0.00     0.002 C 
HETATM   12  C   UNL     1      30.605  43.103  53.930  1.00  0.00     0.002 C 
HETATM   13  C   UNL     1      29.713  43.277  55.159  1.00  0.00     0.027 C 
HETATM   14  H   UNL     1      28.732  45.793  55.042  1.00  0.00     0.163 HD
ENDROOT
BRANCH   1  15
HETATM   15  C   UNL     1      24.927  45.329  52.673  1.00  0.00     0.146 C 
BRANCH  15  16
HETATM   16  C   UNL     1      24.303  44.761  51.425  1.00  0.00     0.224 C 
HETATM   17  N   UNL     1      24.264  45.441  50.251  1.00  0.00    -0.327 N 
HETATM   18  H   UNL     1      23.703  44.953  49.557  1.00  0.00     0.169 HD
HETATM   19  O   UNL     1      23.846  43.609  51.470  1.00  0.00    -0.273 OA
BRANCH  17  20
HETATM   20  C   UNL     1      24.841  46.645  49.799  1.00  0.00     0.034 A 
HETATM   21  C   UNL     1      24.140  47.790  49.416  1.00  0.00     0.031 A 
HETATM   22  C   UNL     1      24.827  48.947  49.019  1.00  0.00     0.026 A 
HETATM   23  C   UNL     1      26.217  48.969  49.007  1.00  0.00     0.034 A 
HETATM   24  C   UNL     1      26.931  47.841  49.391  1.00  0.00     0.026 A 
HETATM   25 CL   UNL     1      27.048  50.394  48.529  1.00  0.00    -0.084 Cl
HETATM   26  C   UNL     1      26.245  46.689  49.789  1.00  0.00     0.031 A 
ENDBRANCH  17  20
ENDBRANCH  15  16
ENDBRANCH   1  15
TORSDOF 3
ENDMDL
MODEL 7
REMARK VINA RESULT:      -7.6     14.370     16.404
REMARK  3 active torsions:
REMARK  status: ('A' for Active; 'I' for Inactive)
REMARK    1  A    between atoms: C_2  and  N_3 
REMARK       I    between atoms: N_3  and  C_4 
REMARK    2  A    between atoms: C_4  and  C_5 
REMARK    3  A    between atoms: C_5  and  C_6 
ROOT
HETATM    1  C   UNL     1      38.379  46.389  64.703  1.00  0.00     0.286 C 
HETATM    2  N   UNL     1      37.519  47.536  64.180  1.00  0.00    -0.056 N 
HETATM    3  H   UNL     1      37.819  47.669  63.190  1.00  0.00     0.278 HD
HETATM    4  H   UNL     1      36.526  47.274  64.143  1.00  0.00     0.278 HD
HETATM    5  C   UNL     1      37.714  48.845  64.892  1.00  0.00     0.209 C 
HETATM    6  C   UNL     1      39.219  49.206  64.892  1.00  0.00     0.115 C 
HETATM    7  N   UNL     1      40.070  48.102  65.334  1.00  0.00    -0.353 N 
HETATM    8  C   UNL     1      39.842  46.794  64.972  1.00  0.00     0.249 C 
HETATM    9  O   UNL     1      40.763  45.984  64.972  1.00  0.00    -0.271 OA
HETATM   10  C   UNL     1      37.107  48.777  66.295  1.00  0.00     0.035 C 
HETATM   11  C   UNL     1      37.373  50.066  67.068  1.00  0.00     0.002 C 
HETATM   12  C   UNL     1      38.865  50.387  67.122  1.00  0.00     0.002 C 
HETATM   13  C   UNL     1      39.477  50.468  65.724  1.00  0.00     0.027 C 
HETATM   14  H   UNL     1      41.062  48.294  65.458  1.00  0.00     0.163 HD
ENDROOT
BRANCH   1  15
HETATM   15  C   UNL     1      38.288  45.169  63.774  1.00  0.00     0.146 C 
BRANCH  15  16
HETATM   16  C   UNL     1      36.942  44.503  63.897  1.00  0.00     0.224 C 
HETATM   17  N   UNL     1      36.775  43.160  63.785  1.00  0.00    -0.327 N 
HETATM   18  H   UNL     1      35.791  42.907  63.777  1.00  0.00     0.169 HD
HETATM   19  O   UNL     1      35.957  45.212  64.153  1.00  0.00    -0.273 OA
BRANCH  17  20
HETATM   20  C   UNL     1      37.664  42.070  63.698  1.00  0.00     0.034 A 
HETATM   21  C   UNL     1      38.510  41.793  62.622  1.00  0.00     0.031 A 
HETATM   22  C   UNL     1      39.382  40.696  62.664  1.00  0.00     0.026 A 
HETATM   23  C   UNL     1      39.420  39.871  63.784  1.00  0.00     0.034 A 
HETATM   24  C   UNL     1      38.591  40.135  64.866  1.00  0.00     0.026 A 
HETATM   25 CL   UNL     1      40.500  38.537  63.829  1.00  0.00    -0.084 Cl
HETATM   26  C   UNL     1      37.723  41.232  64.823  1.00  0.00     0.031 A 
ENDBRANCH  17  20
ENDBRANCH  15  16
ENDBRANCH   1  15
TORSDOF 3
ENDMDL
MODEL 8
REMARK VINA RESULT:      -7.6      3.117      6.675
REMARK  3 active torsions:
REMARK  status: ('A' for Active; 'I' for Inactive)
REMARK    1  A    between atoms: C_2  and  N_3 
REMARK       I    between atoms: N_3  and  C_4 
REMARK    2  A    between atoms: C_4  and  C_5 
REMARK    3  A    between atoms: C_5  and  C_6 
ROOT
HETATM    1  C   UNL     1      26.869  45.271  55.009  1.00  0.00     0.286 C 
HETATM    2  N   UNL     1      27.878  46.415  54.965  1.00  0.00    -0.056 N 
HETATM    3  H   UNL     1      28.066  46.570  53.952  1.00  0.00     0.278 HD
HETATM    4  H   UNL     1      27.470  47.289  55.317  1.00  0.00     0.278 HD
HETATM    5  C   UNL     1      29.194  46.119  55.629  1.00  0.00     0.209 C 
HETATM    6  C   UNL     1      29.779  44.811  55.041  1.00  0.00     0.115 C 
HETATM    7  N   UNL     1      28.811  43.715  55.019  1.00  0.00    -0.353 N 
HETATM    8  C   UNL     1      27.487  43.896  54.687  1.00  0.00     0.249 C 
HETATM    9  O   UNL     1      26.826  42.958  54.254  1.00  0.00    -0.271 OA
HETATM   10  C   UNL     1      29.021  46.076  57.148  1.00  0.00     0.035 C 
HETATM   11  C   UNL     1      30.327  45.689  57.836  1.00  0.00     0.002 C 
HETATM   12  C   UNL     1      30.869  44.366  57.301  1.00  0.00     0.002 C 
HETATM   13  C   UNL     1      31.056  44.403  55.785  1.00  0.00     0.027 C 
HETATM   14  H   UNL     1      29.150  42.795  54.741  1.00  0.00     0.163 HD
ENDROOT
BRANCH   1  15
HETATM   15  C   UNL     1      25.659  45.574  54.113  1.00  0.00     0.146 C 
BRANCH  15  16
HETATM   16  C   UNL     1      26.085  46.321  52.875  1.00  0.00     0.224 C 
HETATM   17  N   UNL     1      26.337  45.701  51.695  1.00  0.00    -0.327 N 
HETATM   18  H   UNL     1      26.724  46.346  51.011  1.00  0.00     0.169 HD
HETATM   19  O   UNL     1      26.165  47.557  52.935  1.00  0.00    -0.273 OA
BRANCH  17  20
HETATM   20  C   UNL     1      26.160  44.383  51.227  1.00  0.00     0.034 A 
HETATM   21  C   UNL     1      24.933  43.746  51.037  1.00  0.00     0.031 A 
HETATM   22  C   UNL     1      24.878  42.439  50.528  1.00  0.00     0.026 A 
HETATM   23  C   UNL     1      26.050  41.765  50.200  1.00  0.00     0.034 A 
HETATM   24  C   UNL     1      27.279  42.386  50.375  1.00  0.00     0.026 A 
HETATM   25 CL   UNL     1      25.971  40.170  49.567  1.00  0.00    -0.084 Cl
HETATM   26  C   UNL     1      27.331  43.689  50.881  1.00  0.00     0.031 A 
ENDBRANCH  17  20
ENDBRANCH  15  16
ENDBRANCH   1  15
TORSDOF 3
ENDMDL
MODEL 9
REMARK VINA RESULT:      -7.5     14.227     16.462
REMARK  3 active torsions:
REMARK  status: ('A' for Active; 'I' for Inactive)
REMARK    1  A    between atoms: C_2  and  N_3 
REMARK       I    between atoms: N_3  and  C_4 
REMARK    2  A    between atoms: C_4  and  C_5 
REMARK    3  A    between atoms: C_5  and  C_6 
ROOT
HETATM    1  C   UNL     1      33.421  50.262  41.642  1.00  0.00     0.286 C 
HETATM    2  N   UNL     1      34.647  49.682  40.944  1.00  0.00    -0.056 N 
HETATM    3  H   UNL     1      35.010  48.954  41.596  1.00  0.00     0.278 HD
HETATM    4  H   UNL     1      34.389  49.188  40.081  1.00  0.00     0.278 HD
HETATM    5  C   UNL     1      35.758  50.665  40.701  1.00  0.00     0.209 C 
HETATM    6  C   UNL     1      36.128  51.357  42.036  1.00  0.00     0.115 C 
HETATM    7  N   UNL     1      34.962  51.870  42.753  1.00  0.00    -0.353 N 
HETATM    8  C   UNL     1      33.771  51.184  42.828  1.00  0.00     0.249 C 
HETATM    9  O   UNL     1      32.995  51.395  43.754  1.00  0.00    -0.271 OA
HETATM   10  C   UNL     1      35.358  51.649  39.599  1.00  0.00     0.035 C 
HETATM   11  C   UNL     1      36.436  52.711  39.398  1.00  0.00     0.002 C 
HETATM   12  C   UNL     1      36.754  53.436  40.704  1.00  0.00     0.002 C 
HETATM   13  C   UNL     1      37.165  52.462  41.807  1.00  0.00     0.027 C 
HETATM   14  H   UNL     1      35.132  52.426  43.589  1.00  0.00     0.163 HD
ENDROOT
BRANCH   1  15
HETATM   15  C   UNL     1      32.448  49.148  42.057  1.00  0.00     0.146 C 
BRANCH  15  16
HETATM   16  C   UNL     1      32.313  48.122  40.961  1.00  0.00     0.224 C 
HETATM   17  N   UNL     1      31.520  48.311  39.875  1.00  0.00    -0.327 N 
HETATM   18  H   UNL     1      31.462  47.470  39.307  1.00  0.00     0.169 HD
HETATM   19  O   UNL     1      32.987  47.085  41.041  1.00  0.00    -0.273 OA
BRANCH  17  20
HETATM   20  C   UNL     1      30.794  49.411  39.375  1.00  0.00     0.034 A 
HETATM   21  C   UNL     1      29.459  49.701  39.661  1.00  0.00     0.031 A 
HETATM   22  C   UNL     1      28.850  50.850  39.134  1.00  0.00     0.026 A 
HETATM   23  C   UNL     1      29.573  51.718  38.322  1.00  0.00     0.034 A 
HETATM   24  C   UNL     1      30.904  51.448  38.033  1.00  0.00     0.026 A 
HETATM   25 CL   UNL     1      28.821  53.127  37.691  1.00  0.00    -0.084 Cl
HETATM   26  C   UNL     1      31.510  50.304  38.562  1.00  0.00     0.031 A 
ENDBRANCH  17  20
ENDBRANCH  15  16
ENDBRANCH   1  15
TORSDOF 3
ENDMDL
MODEL 10
REMARK VINA RESULT:      -7.4      1.678      2.159
REMARK  3 active torsions:
REMARK  status: ('A' for Active; 'I' for Inactive)
REMARK    1  A    between atoms: C_2  and  N_3 
REMARK       I    between atoms: N_3  and  C_4 
REMARK    2  A    between atoms: C_4  and  C_5 
REMARK    3  A    between atoms: C_5  and  C_6 
ROOT
HETATM    1  C   UNL     1      26.694  43.900  51.279  1.00  0.00     0.286 C 
HETATM    2  N   UNL     1      26.695  43.522  49.801  1.00  0.00    -0.056 N 
HETATM    3  H   UNL     1      27.294  44.239  49.339  1.00  0.00     0.278 HD
HETATM    4  H   UNL     1      27.160  42.619  49.645  1.00  0.00     0.278 HD
HETATM    5  C   UNL     1      25.346  43.564  49.140  1.00  0.00     0.209 C 
HETATM    6  C   UNL     1      24.704  44.953  49.379  1.00  0.00     0.115 C 
HETATM    7  N   UNL     1      24.744  45.364  50.782  1.00  0.00    -0.353 N 
HETATM    8  C   UNL     1      25.833  45.140  51.594  1.00  0.00     0.249 C 
HETATM    9  O   UNL     1      26.026  45.848  52.577  1.00  0.00    -0.271 OA
HETATM   10  C   UNL     1      24.480  42.403  49.634  1.00  0.00     0.035 C 
HETATM   11  C   UNL     1      23.075  42.479  49.042  1.00  0.00     0.002 C 
HETATM   12  C   UNL     1      22.419  43.827  49.335  1.00  0.00     0.002 C 
HETATM   13  C   UNL     1      23.271  44.992  48.835  1.00  0.00     0.027 C 
HETATM   14  H   UNL     1      24.252  46.219  51.035  1.00  0.00     0.163 HD
ENDROOT
BRANCH   1  15
HETATM   15  C   UNL     1      28.130  44.057  51.805  1.00  0.00     0.146 C 
BRANCH  15  16
HETATM   16  C   UNL     1      28.648  42.748  52.342  1.00  0.00     0.224 C 
HETATM   17  N   UNL     1      29.330  42.655  53.512  1.00  0.00    -0.327 N 
HETATM   18  H   UNL     1      29.700  41.719  53.652  1.00  0.00     0.169 HD
HETATM   19  O   UNL     1      28.401  41.714  51.705  1.00  0.00    -0.273 OA
BRANCH  17  20
HETATM   20  C   UNL     1      29.607  43.561  54.556  1.00  0.00     0.034 A 
HETATM   21  C   UNL     1      28.833  44.672  54.895  1.00  0.00     0.031 A 
HETATM   22  C   UNL     1      29.189  45.484  55.982  1.00  0.00     0.026 A 
HETATM   23  C   UNL     1      30.316  45.187  56.741  1.00  0.00     0.034 A 
HETATM   24  C   UNL     1      31.093  44.081  56.423  1.00  0.00     0.026 A 
HETATM   25 CL   UNL     1      30.735  46.181  58.077  1.00  0.00    -0.084 Cl
HETATM   26  C   UNL     1      30.735  43.272  55.339  1.00  0.00     0.031 A 
ENDBRANCH  17  20
ENDBRANCH  15  16
ENDBRANCH   1  15
TORSDOF 3
ENDMDL
