MODEL 1
REMARK VINA RESULT:     -10.0      0.000      0.000
REMARK  6 active torsions:
REMARK  status: ('A' for Active; 'I' for Inactive)
REMARK    1  A    between atoms: C_2  and  O_3 
REMARK    2  A    between atoms: C_2  and  C_4 
REMARK    3  A    between atoms: C_6  and  C_16 
REMARK    4  A    between atoms: C_9  and  C_10 
REMARK       I    between atoms: C_16  and  N_18 
REMARK    5  A    between atoms: N_18  and  C_19 
REMARK    6  A    between atoms: C_19  and  C_21 
ROOT
HETATM    1  C   UNL     1      28.703  44.342  54.604  1.00  0.00    -0.018 A 
HETATM    2  C   UNL     1      27.714  44.923  53.781  1.00  0.00     0.027 A 
HETATM    3  C   UNL     1      27.219  46.215  54.021  1.00  0.00     0.032 A 
HETATM    4  C   UNL     1      27.702  46.939  55.112  1.00  0.00     0.018 A 
HETATM    5  C   UNL     1      28.698  46.390  55.924  1.00  0.00     0.014 A 
HETATM    6  C   UNL     1      29.209  45.104  55.675  1.00  0.00    -0.014 A 
ENDROOT
BRANCH   3   7
HETATM    7  C   UNL     1      26.187  46.753  53.091  1.00  0.00     0.252 C 
HETATM    8  O   UNL     1      25.468  47.682  53.444  1.00  0.00    -0.268 OA
HETATM    9  N   UNL     1      26.064  46.129  51.866  1.00  0.00    -0.349 N 
HETATM   10  H   UNL     1      26.559  45.267  51.699  1.00  0.00     0.163 HD
BRANCH   9  11
HETATM   11  C   UNL     1      24.973  46.462  50.962  1.00  0.00     0.114 C 
HETATM   12  C   UNL     1      24.537  45.234  50.159  1.00  0.00     0.037 C 
BRANCH  11  13
HETATM   13  C   UNL     1      25.367  47.613  50.052  1.00  0.00    -0.036 A 
HETATM   14  C   UNL     1      26.729  47.874  49.815  1.00  0.00     0.012 A 
HETATM   15  C   UNL     1      27.119  48.934  48.996  1.00  0.00     0.043 A 
HETATM   16  C   UNL     1      26.152  49.735  48.405  1.00  0.00     0.116 A 
HETATM   17  F   UNL     1      26.525  50.754  47.620  1.00  0.00    -0.206 F 
HETATM   18  C   UNL     1      24.800  49.497  48.618  1.00  0.00     0.043 A 
HETATM   19  C   UNL     1      24.406  48.439  49.442  1.00  0.00     0.012 A 
ENDBRANCH  11  13
ENDBRANCH   9  11
ENDBRANCH   3   7
BRANCH   1  20
HETATM   20  C   UNL     1      29.225  42.955  54.266  1.00  0.00     0.148 C 
HETATM   21  C   UNL     1      30.072  42.961  53.001  1.00  0.00     0.044 C 
BRANCH  20  22
HETATM   22  O   UNL     1      28.146  42.037  54.079  1.00  0.00    -0.391 OA
HETATM   23  H   UNL     1      27.382  42.383  54.573  1.00  0.00     0.210 HD
ENDBRANCH  20  22
ENDBRANCH   1  20
BRANCH   6  24
HETATM   24  C   UNL     1      30.275  44.631  56.531  1.00  0.00     0.011 A 
HETATM   25  C   UNL     1      31.181  43.564  56.358  1.00  0.00     0.152 A 
HETATM   26  N   UNL     1      32.044  43.460  57.373  1.00  0.00    -0.187 NA
HETATM   27  N   UNL     1      31.696  44.469  58.190  1.00  0.00    -0.289 N 
HETATM   28  H   UNL     1      32.221  44.594  59.049  1.00  0.00     0.188 HD
HETATM   29  C   UNL     1      30.649  45.212  57.722  1.00  0.00     0.123 A 
ENDBRANCH   6  24
TORSDOF 6
ENDMDL
MODEL 2
REMARK VINA RESULT:      -8.9      9.562     13.321
REMARK  6 active torsions:
REMARK  status: ('A' for Active; 'I' for Inactive)
REMARK    1  A    between atoms: C_2  and  O_3 
REMARK    2  A    between atoms: C_2  and  C_4 
REMARK    3  A    between atoms: C_6  and  C_16 
REMARK    4  A    between atoms: C_9  and  C_10 
REMARK       I    between atoms: C_16  and  N_18 
REMARK    5  A    between atoms: N_18  and  C_19 
REMARK    6  A    between atoms: C_19  and  C_21 
ROOT
HETATM    1  C   UNL     1      19.058  50.366  49.856  1.00  0.00    -0.018 A 
HETATM    2  C   UNL     1      17.813  50.997  50.070  1.00  0.00     0.027 A 
HETATM    3  C   UNL     1      17.489  52.219  49.460  1.00  0.00     0.032 A 
HETATM    4  C   UNL     1      18.428  52.838  48.632  1.00  0.00     0.018 A 
HETATM    5  C   UNL     1      19.656  52.218  48.389  1.00  0.00     0.014 A 
HETATM    6  C   UNL     1      19.976  50.985  48.985  1.00  0.00    -0.014 A 
ENDROOT
BRANCH   3   7
HETATM    7  C   UNL     1      16.146  52.804  49.732  1.00  0.00     0.252 C 
HETATM    8  O   UNL     1      15.147  52.095  49.682  1.00  0.00    -0.268 OA
HETATM    9  N   UNL     1      16.097  54.159  49.987  1.00  0.00    -0.349 N 
HETATM   10  H   UNL     1      16.923  54.720  49.845  1.00  0.00     0.163 HD
BRANCH   9  11
HETATM   11  C   UNL     1      14.824  54.856  50.088  1.00  0.00     0.114 C 
HETATM   12  C   UNL     1      14.304  55.247  48.702  1.00  0.00     0.037 C 
BRANCH  11  13
HETATM   13  C   UNL     1      14.949  56.066  50.999  1.00  0.00    -0.036 A 
HETATM   14  C   UNL     1      14.956  57.357  50.439  1.00  0.00     0.012 A 
HETATM   15  C   UNL     1      15.085  58.485  51.251  1.00  0.00     0.043 A 
HETATM   16  C   UNL     1      15.201  58.329  52.626  1.00  0.00     0.116 A 
HETATM   17  F   UNL     1      15.326  59.411  53.405  1.00  0.00    -0.206 F 
HETATM   18  C   UNL     1      15.190  57.067  53.205  1.00  0.00     0.043 A 
HETATM   19  C   UNL     1      15.067  55.936  52.394  1.00  0.00     0.012 A 
ENDBRANCH  11  13
ENDBRANCH   9  11
ENDBRANCH   3   7
BRANCH   1  20
HETATM   20  C   UNL     1      19.330  49.025  50.516  1.00  0.00     0.148 C 
HETATM   21  C   UNL     1      18.696  47.874  49.745  1.00  0.00     0.044 C 
BRANCH  20  22
HETATM   22  O   UNL     1      18.823  49.003  51.853  1.00  0.00    -0.391 OA
HETATM   23  H   UNL     1      18.001  49.523  51.859  1.00  0.00     0.210 HD
ENDBRANCH  20  22
ENDBRANCH   1  20
BRANCH   6  24
HETATM   24  C   UNL     1      21.246  50.384  48.640  1.00  0.00     0.011 A 
HETATM   25  C   UNL     1      21.558  49.381  47.698  1.00  0.00     0.152 A 
HETATM   26  N   UNL     1      22.866  49.112  47.657  1.00  0.00    -0.187 NA
HETATM   27  N   UNL     1      23.392  49.953  48.564  1.00  0.00    -0.289 N 
HETATM   28  H   UNL     1      24.395  49.931  48.714  1.00  0.00     0.188 HD
HETATM   29  C   UNL     1      22.462  50.749  49.171  1.00  0.00     0.123 A 
ENDBRANCH   6  24
TORSDOF 6
ENDMDL
MODEL 3
REMARK VINA RESULT:      -8.8      5.132     10.479
REMARK  6 active torsions:
REMARK  status: ('A' for Active; 'I' for Inactive)
REMARK    1  A    between atoms: C_2  and  O_3 
REMARK    2  A    between atoms: C_2  and  C_4 
REMARK    3  A    between atoms: C_6  and  C_16 
REMARK    4  A    between atoms: C_9  and  C_10 
REMARK       I    between atoms: C_16  and  N_18 
REMARK    5  A    between atoms: N_18  and  C_19 
REMARK    6  A    between atoms: C_19  and  C_21 
ROOT
HETATM    1  C   UNL     1      20.468  49.260  49.248  1.00  0.00    -0.018 A 
HETATM    2  C   UNL     1      21.716  48.607  49.344  1.00  0.00     0.027 A 
HETATM    3  C   UNL     1      22.920  49.269  49.056  1.00  0.00     0.032 A 
HETATM    4  C   UNL     1      22.885  50.603  48.647  1.00  0.00     0.018 A 
HETATM    5  C   UNL     1      21.661  51.273  48.569  1.00  0.00     0.014 A 
HETATM    6  C   UNL     1      20.455  50.618  48.875  1.00  0.00    -0.014 A 
ENDROOT
BRANCH   3   7
HETATM    7  C   UNL     1      24.191  48.505  49.199  1.00  0.00     0.252 C 
HETATM    8  O   UNL     1      25.229  48.946  48.717  1.00  0.00    -0.268 OA
HETATM    9  N   UNL     1      24.118  47.288  49.844  1.00  0.00    -0.349 N 
HETATM   10  H   UNL     1      23.214  46.898  50.065  1.00  0.00     0.163 HD
BRANCH   9  11
HETATM   11  C   UNL     1      25.261  46.388  49.878  1.00  0.00     0.114 C 
HETATM   12  C   UNL     1      24.921  45.048  49.220  1.00  0.00     0.037 C 
BRANCH  11  13
HETATM   13  C   UNL     1      25.751  46.201  51.305  1.00  0.00    -0.036 A 
HETATM   14  C   UNL     1      25.468  47.186  52.268  1.00  0.00     0.012 A 
HETATM   15  C   UNL     1      25.918  47.047  53.582  1.00  0.00     0.043 A 
HETATM   16  C   UNL     1      26.648  45.922  53.941  1.00  0.00     0.116 A 
HETATM   17  F   UNL     1      27.081  45.789  55.201  1.00  0.00    -0.206 F 
HETATM   18  C   UNL     1      26.936  44.932  53.010  1.00  0.00     0.043 A 
HETATM   19  C   UNL     1      26.491  45.070  51.693  1.00  0.00     0.012 A 
ENDBRANCH  11  13
ENDBRANCH   9  11
ENDBRANCH   3   7
BRANCH   1  20
HETATM   20  C   UNL     1      19.205  48.497  49.613  1.00  0.00     0.148 C 
HETATM   21  C   UNL     1      18.751  48.798  51.034  1.00  0.00     0.044 C 
BRANCH  20  22
HETATM   22  O   UNL     1      19.410  47.087  49.496  1.00  0.00    -0.391 OA
HETATM   23  H   UNL     1      19.822  46.785  50.323  1.00  0.00     0.210 HD
ENDBRANCH  20  22
ENDBRANCH   1  20
BRANCH   6  24
HETATM   24  C   UNL     1      19.237  51.398  48.820  1.00  0.00     0.011 A 
HETATM   25  C   UNL     1      18.587  52.150  49.821  1.00  0.00     0.152 A 
HETATM   26  N   UNL     1      17.486  52.755  49.367  1.00  0.00    -0.187 NA
HETATM   27  N   UNL     1      17.439  52.398  48.072  1.00  0.00    -0.289 N 
HETATM   28  H   UNL     1      16.671  52.744  47.506  1.00  0.00     0.188 HD
HETATM   29  C   UNL     1      18.477  51.596  47.690  1.00  0.00     0.123 A 
ENDBRANCH   6  24
TORSDOF 6
ENDMDL
MODEL 4
REMARK VINA RESULT:      -8.6      4.178      6.187
REMARK  6 active torsions:
REMARK  status: ('A' for Active; 'I' for Inactive)
REMARK    1  A    between atoms: C_2  and  O_3 
REMARK    2  A    between atoms: C_2  and  C_4 
REMARK    3  A    between atoms: C_6  and  C_16 
REMARK    4  A    between atoms: C_9  and  C_10 
REMARK       I    between atoms: C_16  and  N_18 
REMARK    5  A    between atoms: N_18  and  C_19 
REMARK    6  A    between atoms: C_19  and  C_21 
ROOT
HETATM    1  C   UNL     1      24.549  44.721  50.837  1.00  0.00    -0.018 A 
HETATM    2  C   UNL     1      23.844  45.576  49.961  1.00  0.00     0.027 A 
HETATM    3  C   UNL     1      24.073  46.960  49.938  1.00  0.00     0.032 A 
HETATM    4  C   UNL     1      25.007  47.513  50.816  1.00  0.00     0.018 A 
HETATM    5  C   UNL     1      25.731  46.681  51.674  1.00  0.00     0.014 A 
HETATM    6  C   UNL     1      25.518  45.291  51.686  1.00  0.00    -0.014 A 
ENDROOT
BRANCH   3   7
HETATM    7  C   UNL     1      23.294  47.783  48.970  1.00  0.00     0.252 C 
HETATM    8  O   UNL     1      23.080  47.360  47.839  1.00  0.00    -0.268 OA
HETATM    9  N   UNL     1      22.883  49.028  49.399  1.00  0.00    -0.349 N 
HETATM   10  H   UNL     1      23.233  49.391  50.273  1.00  0.00     0.163 HD
BRANCH   9  11
HETATM   11  C   UNL     1      22.274  49.975  48.477  1.00  0.00     0.114 C 
HETATM   12  C   UNL     1      23.178  51.192  48.270  1.00  0.00     0.037 C 
BRANCH  11  13
HETATM   13  C   UNL     1      20.893  50.381  48.964  1.00  0.00    -0.036 A 
HETATM   14  C   UNL     1      20.350  51.612  48.554  1.00  0.00     0.012 A 
HETATM   15  C   UNL     1      19.090  52.018  48.998  1.00  0.00     0.043 A 
HETATM   16  C   UNL     1      18.365  51.193  49.848  1.00  0.00     0.116 A 
HETATM   17  F   UNL     1      17.157  51.582  50.276  1.00  0.00    -0.206 F 
HETATM   18  C   UNL     1      18.876  49.969  50.263  1.00  0.00     0.043 A 
HETATM   19  C   UNL     1      20.139  49.564  49.824  1.00  0.00     0.012 A 
ENDBRANCH  11  13
ENDBRANCH   9  11
ENDBRANCH   3   7
BRANCH   1  20
HETATM   20  C   UNL     1      24.283  43.225  50.783  1.00  0.00     0.148 C 
HETATM   21  C   UNL     1      24.947  42.574  49.578  1.00  0.00     0.044 C 
BRANCH  20  22
HETATM   22  O   UNL     1      22.880  42.960  50.721  1.00  0.00    -0.391 OA
HETATM   23  H   UNL     1      22.772  42.003  50.585  1.00  0.00     0.210 HD
ENDBRANCH  20  22
ENDBRANCH   1  20
BRANCH   6  24
HETATM   24  C   UNL     1      26.346  44.494  52.566  1.00  0.00     0.011 A 
HETATM   25  C   UNL     1      26.173  44.154  53.924  1.00  0.00     0.152 A 
HETATM   26  N   UNL     1      27.155  43.372  54.380  1.00  0.00    -0.187 NA
HETATM   27  N   UNL     1      27.950  43.202  53.309  1.00  0.00    -0.289 N 
HETATM   28  H   UNL     1      28.781  42.631  53.415  1.00  0.00     0.188 HD
HETATM   29  C   UNL     1      27.499  43.843  52.190  1.00  0.00     0.123 A 
ENDBRANCH   6  24
TORSDOF 6
ENDMDL
MODEL 5
REMARK VINA RESULT:      -8.5      1.559      2.129
REMARK  6 active torsions:
REMARK  status: ('A' for Active; 'I' for Inactive)
REMARK    1  A    between atoms: C_2  and  O_3 
REMARK    2  A    between atoms: C_2  and  C_4 
REMARK    3  A    between atoms: C_6  and  C_16 
REMARK    4  A    between atoms: C_9  and  C_10 
REMARK       I    between atoms: C_16  and  N_18 
REMARK    5  A    between atoms: N_18  and  C_19 
REMARK    6  A    between atoms: C_19  and  C_21 
ROOT
HETATM    1  C   UNL     1      27.747  43.813  53.928  1.00  0.00    -0.018 A 
HETATM    2  C   UNL     1      26.675  43.948  53.019  1.00  0.00     0.027 A 
HETATM    3  C   UNL     1      25.948  45.143  52.906  1.00  0.00     0.032 A 
HETATM    4  C   UNL     1      26.280  46.224  53.725  1.00  0.00     0.018 A 
HETATM    5  C   UNL     1      27.353  46.118  54.614  1.00  0.00     0.014 A 
HETATM    6  C   UNL     1      28.095  44.928  54.716  1.00  0.00    -0.014 A 
ENDROOT
BRANCH   3   7
HETATM    7  C   UNL     1      24.842  45.199  51.909  1.00  0.00     0.252 C 
HETATM    8  O   UNL     1      23.960  44.348  51.924  1.00  0.00    -0.268 OA
HETATM    9  N   UNL     1      24.899  46.210  50.971  1.00  0.00    -0.349 N 
HETATM   10  H   UNL     1      25.733  46.772  50.900  1.00  0.00     0.163 HD
BRANCH   9  11
HETATM   11  C   UNL     1      23.969  46.245  49.852  1.00  0.00     0.114 C 
HETATM   12  C   UNL     1      24.354  45.212  48.790  1.00  0.00     0.037 C 
BRANCH  11  13
HETATM   13  C   UNL     1      23.893  47.646  49.267  1.00  0.00    -0.036 A 
HETATM   14  C   UNL     1      22.668  48.121  48.766  1.00  0.00     0.012 A 
HETATM   15  C   UNL     1      22.572  49.397  48.209  1.00  0.00     0.043 A 
HETATM   16  C   UNL     1      23.699  50.206  48.155  1.00  0.00     0.116 A 
HETATM   17  F   UNL     1      23.608  51.431  47.619  1.00  0.00    -0.206 F 
HETATM   18  C   UNL     1      24.920  49.764  48.648  1.00  0.00     0.043 A 
HETATM   19  C   UNL     1      25.020  48.485  49.201  1.00  0.00     0.012 A 
ENDBRANCH  11  13
ENDBRANCH   9  11
ENDBRANCH   3   7
BRANCH   1  20
HETATM   20  C   UNL     1      28.518  42.504  53.973  1.00  0.00     0.148 C 
HETATM   21  C   UNL     1      29.536  42.407  52.844  1.00  0.00     0.044 C 
BRANCH  20  22
HETATM   22  O   UNL     1      27.631  41.387  53.876  1.00  0.00    -0.391 OA
HETATM   23  H   UNL     1      26.830  41.609  54.379  1.00  0.00     0.210 HD
ENDBRANCH  20  22
ENDBRANCH   1  20
BRANCH   6  24
HETATM   24  C   UNL     1      29.223  44.918  55.622  1.00  0.00     0.011 A 
HETATM   25  C   UNL     1      30.411  44.157  55.595  1.00  0.00     0.152 A 
HETATM   26  N   UNL     1      31.229  44.457  56.608  1.00  0.00    -0.187 NA
HETATM   27  N   UNL     1      30.569  45.419  57.275  1.00  0.00    -0.289 N 
HETATM   28  H   UNL     1      31.003  45.813  58.104  1.00  0.00     0.188 HD
HETATM   29  C   UNL     1      29.365  45.742  56.715  1.00  0.00     0.123 A 
ENDBRANCH   6  24
TORSDOF 6
ENDMDL
MODEL 6
REMARK VINA RESULT:      -8.3      3.634      8.762
REMARK  6 active torsions:
REMARK  status: ('A' for Active; 'I' for Inactive)
REMARK    1  A    between atoms: C_2  and  O_3 
REMARK    2  A    between atoms: C_2  and  C_4 
REMARK    3  A    between atoms: C_6  and  C_16 
REMARK    4  A    between atoms: C_9  and  C_10 
REMARK       I    between atoms: C_16  and  N_18 
REMARK    5  A    between atoms: N_18  and  C_19 
REMARK    6  A    between atoms: C_19  and  C_21 
ROOT
HETATM    1  C   UNL     1      24.321  45.496  49.217  1.00  0.00    -0.018 A 
HETATM    2  C   UNL     1      25.270  44.668  49.857  1.00  0.00     0.027 A 
HETATM    3  C   UNL     1      26.168  45.174  50.810  1.00  0.00     0.032 A 
HETATM    4  C   UNL     1      26.137  46.534  51.122  1.00  0.00     0.018 A 
HETATM    5  C   UNL     1      25.190  47.365  50.517  1.00  0.00     0.014 A 
HETATM    6  C   UNL     1      24.277  46.858  49.576  1.00  0.00    -0.014 A 
ENDROOT
BRANCH   3   7
HETATM    7  C   UNL     1      27.125  44.224  51.445  1.00  0.00     0.252 C 
HETATM    8  O   UNL     1      27.466  43.209  50.849  1.00  0.00    -0.268 OA
HETATM    9  N   UNL     1      27.549  44.528  52.722  1.00  0.00    -0.349 N 
HETATM   10  H   UNL     1      27.104  45.280  53.226  1.00  0.00     0.163 HD
BRANCH   9  11
HETATM   11  C   UNL     1      28.338  43.580  53.494  1.00  0.00     0.114 C 
HETATM   12  C   UNL     1      27.477  42.403  53.958  1.00  0.00     0.037 C 
BRANCH  11  13
HETATM   13  C   UNL     1      29.011  44.275  54.666  1.00  0.00    -0.036 A 
HETATM   14  C   UNL     1      28.428  45.434  55.210  1.00  0.00     0.012 A 
HETATM   15  C   UNL     1      29.032  46.101  56.277  1.00  0.00     0.043 A 
HETATM   16  C   UNL     1      30.218  45.612  56.808  1.00  0.00     0.116 A 
HETATM   17  F   UNL     1      30.799  46.253  57.830  1.00  0.00    -0.206 F 
HETATM   18  C   UNL     1      30.812  44.467  56.292  1.00  0.00     0.043 A 
HETATM   19  C   UNL     1      30.212  43.799  55.221  1.00  0.00     0.012 A 
ENDBRANCH  11  13
ENDBRANCH   9  11
ENDBRANCH   3   7
BRANCH   1  20
HETATM   20  C   UNL     1      23.351  44.878  48.224  1.00  0.00     0.148 C 
HETATM   21  C   UNL     1      22.261  44.076  48.921  1.00  0.00     0.044 C 
BRANCH  20  22
HETATM   22  O   UNL     1      24.035  44.010  47.316  1.00  0.00    -0.391 OA
HETATM   23  H   UNL     1      23.674  43.116  47.442  1.00  0.00     0.210 HD
ENDBRANCH  20  22
ENDBRANCH   1  20
BRANCH   6  24
HETATM   24  C   UNL     1      23.295  47.772  49.036  1.00  0.00     0.011 A 
HETATM   25  C   UNL     1      21.886  47.709  49.041  1.00  0.00     0.152 A 
HETATM   26  N   UNL     1      21.328  48.772  48.455  1.00  0.00    -0.187 NA
HETATM   27  N   UNL     1      22.381  49.521  48.086  1.00  0.00    -0.289 N 
HETATM   28  H   UNL     1      22.202  50.398  47.609  1.00  0.00     0.188 HD
HETATM   29  C   UNL     1      23.585  48.971  48.425  1.00  0.00     0.123 A 
ENDBRANCH   6  24
TORSDOF 6
ENDMDL
MODEL 7
REMARK VINA RESULT:      -8.2      3.953      9.475
REMARK  6 active torsions:
REMARK  status: ('A' for Active; 'I' for Inactive)
REMARK    1  A    between atoms: C_2  and  O_3 
REMARK    2  A    between atoms: C_2  and  C_4 
REMARK    3  A    between atoms: C_6  and  C_16 
REMARK    4  A    between atoms: C_9  and  C_10 
REMARK       I    between atoms: C_16  and  N_18 
REMARK    5  A    between atoms: N_18  and  C_19 
REMARK    6  A    between atoms: C_19  and  C_21 
ROOT
HETATM    1  C   UNL     1      23.193  47.933  49.128  1.00  0.00    -0.018 A 
HETATM    2  C   UNL     1      24.421  47.387  49.562  1.00  0.00     0.027 A 
HETATM    3  C   UNL     1      24.630  46.001  49.630  1.00  0.00     0.032 A 
HETATM    4  C   UNL     1      23.593  45.136  49.279  1.00  0.00     0.018 A 
HETATM    5  C   UNL     1      22.378  45.656  48.824  1.00  0.00     0.014 A 
HETATM    6  C   UNL     1      22.172  47.045  48.736  1.00  0.00    -0.014 A 
ENDROOT
BRANCH   3   7
HETATM    7  C   UNL     1      25.963  45.515  50.086  1.00  0.00     0.252 C 
HETATM    8  O   UNL     1      26.948  45.670  49.372  1.00  0.00    -0.268 OA
HETATM    9  N   UNL     1      26.007  44.861  51.299  1.00  0.00    -0.349 N 
HETATM   10  H   UNL     1      25.144  44.611  51.758  1.00  0.00     0.163 HD
BRANCH   9  11
HETATM   11  C   UNL     1      27.221  44.195  51.748  1.00  0.00     0.114 C 
HETATM   12  C   UNL     1      27.037  42.675  51.760  1.00  0.00     0.037 C 
BRANCH  11  13
HETATM   13  C   UNL     1      27.643  44.717  53.111  1.00  0.00    -0.036 A 
HETATM   14  C   UNL     1      26.970  45.820  53.669  1.00  0.00     0.012 A 
HETATM   15  C   UNL     1      27.347  46.329  54.912  1.00  0.00     0.043 A 
HETATM   16  C   UNL     1      28.393  45.738  55.607  1.00  0.00     0.116 A 
HETATM   17  F   UNL     1      28.756  46.227  56.799  1.00  0.00    -0.206 F 
HETATM   18  C   UNL     1      29.071  44.645  55.081  1.00  0.00     0.043 A 
HETATM   19  C   UNL     1      28.699  44.135  53.835  1.00  0.00     0.012 A 
ENDBRANCH  11  13
ENDBRANCH   9  11
ENDBRANCH   3   7
BRANCH   1  20
HETATM   20  C   UNL     1      23.045  49.443  49.039  1.00  0.00     0.148 C 
HETATM   21  C   UNL     1      24.302  50.104  48.489  1.00  0.00     0.044 C 
BRANCH  20  22
HETATM   22  O   UNL     1      22.768  50.004  50.324  1.00  0.00    -0.391 OA
HETATM   23  H   UNL     1      22.879  50.967  50.249  1.00  0.00     0.210 HD
ENDBRANCH  20  22
ENDBRANCH   1  20
BRANCH   6  24
HETATM   24  C   UNL     1      20.905  47.501  48.207  1.00  0.00     0.011 A 
HETATM   25  C   UNL     1      20.464  47.628  46.873  1.00  0.00     0.152 A 
HETATM   26  N   UNL     1      19.205  48.067  46.794  1.00  0.00    -0.187 NA
HETATM   27  N   UNL     1      18.837  48.209  48.079  1.00  0.00    -0.289 N 
HETATM   28  H   UNL     1      17.899  48.540  48.275  1.00  0.00     0.188 HD
HETATM   29  C   UNL     1      19.818  47.867  48.966  1.00  0.00     0.123 A 
ENDBRANCH   6  24
TORSDOF 6
ENDMDL
MODEL 8
REMARK VINA RESULT:      -8.1      4.271      8.323
REMARK  6 active torsions:
REMARK  status: ('A' for Active; 'I' for Inactive)
REMARK    1  A    between atoms: C_2  and  O_3 
REMARK    2  A    between atoms: C_2  and  C_4 
REMARK    3  A    between atoms: C_6  and  C_16 
REMARK    4  A    between atoms: C_9  and  C_10 
REMARK       I    between atoms: C_16  and  N_18 
REMARK    5  A    between atoms: N_18  and  C_19 
REMARK    6  A    between atoms: C_19  and  C_21 
ROOT
HETATM    1  C   UNL     1      25.865  43.556  50.329  1.00  0.00    -0.018 A 
HETATM    2  C   UNL     1      26.057  44.112  51.613  1.00  0.00     0.027 A 
HETATM    3  C   UNL     1      26.724  43.410  52.629  1.00  0.00     0.032 A 
HETATM    4  C   UNL     1      27.197  42.123  52.372  1.00  0.00     0.018 A 
HETATM    5  C   UNL     1      27.038  41.564  51.101  1.00  0.00     0.014 A 
HETATM    6  C   UNL     1      26.386  42.272  50.075  1.00  0.00    -0.014 A 
ENDROOT
BRANCH   3   7
HETATM    7  C   UNL     1      26.894  44.082  53.948  1.00  0.00     0.252 C 
HETATM    8  O   UNL     1      26.314  43.645  54.937  1.00  0.00    -0.268 OA
HETATM    9  N   UNL     1      27.681  45.214  53.975  1.00  0.00    -0.349 N 
HETATM   10  H   UNL     1      27.989  45.623  53.106  1.00  0.00     0.163 HD
BRANCH   9  11
HETATM   11  C   UNL     1      27.764  46.040  55.170  1.00  0.00     0.114 C 
HETATM   12  C   UNL     1      27.885  47.521  54.803  1.00  0.00     0.037 C 
BRANCH  11  13
HETATM   13  C   UNL     1      28.917  45.588  56.051  1.00  0.00    -0.036 A 
HETATM   14  C   UNL     1      29.017  46.078  57.366  1.00  0.00     0.012 A 
HETATM   15  C   UNL     1      30.074  45.691  58.192  1.00  0.00     0.043 A 
HETATM   16  C   UNL     1      31.032  44.809  57.710  1.00  0.00     0.116 A 
HETATM   17  F   UNL     1      32.048  44.439  58.501  1.00  0.00    -0.206 F 
HETATM   18  C   UNL     1      30.954  44.307  56.417  1.00  0.00     0.043 A 
HETATM   19  C   UNL     1      29.901  44.696  55.587  1.00  0.00     0.012 A 
ENDBRANCH  11  13
ENDBRANCH   9  11
ENDBRANCH   3   7
BRANCH   1  20
HETATM   20  C   UNL     1      25.168  44.384  49.261  1.00  0.00     0.148 C 
HETATM   21  C   UNL     1      25.346  45.877  49.497  1.00  0.00     0.044 C 
BRANCH  20  22
HETATM   22  O   UNL     1      23.768  44.097  49.228  1.00  0.00    -0.391 OA
HETATM   23  H   UNL     1      23.580  43.671  48.374  1.00  0.00     0.210 HD
ENDBRANCH  20  22
ENDBRANCH   1  20
BRANCH   6  24
HETATM   24  C   UNL     1      26.309  41.644  48.774  1.00  0.00     0.011 A 
HETATM   25  C   UNL     1      25.212  41.067  48.101  1.00  0.00     0.152 A 
HETATM   26  N   UNL     1      25.544  40.608  46.890  1.00  0.00    -0.187 NA
HETATM   27  N   UNL     1      26.850  40.904  46.785  1.00  0.00    -0.289 N 
HETATM   28  H   UNL     1      27.334  40.645  45.932  1.00  0.00     0.188 HD
HETATM   29  C   UNL     1      27.354  41.541  47.885  1.00  0.00     0.123 A 
ENDBRANCH   6  24
TORSDOF 6
ENDMDL
MODEL 9
REMARK VINA RESULT:      -8.0     12.857     16.688
REMARK  6 active torsions:
REMARK  status: ('A' for Active; 'I' for Inactive)
REMARK    1  A    between atoms: C_2  and  O_3 
REMARK    2  A    between atoms: C_2  and  C_4 
REMARK    3  A    between atoms: C_6  and  C_16 
REMARK    4  A    between atoms: C_9  and  C_10 
REMARK       I    between atoms: C_16  and  N_18 
REMARK    5  A    between atoms: N_18  and  C_19 
REMARK    6  A    between atoms: C_19  and  C_21 
ROOT
HETATM    1  C   UNL     1      31.986  51.205  41.562  1.00  0.00    -0.018 A 
HETATM    2  C   UNL     1      33.154  51.815  41.052  1.00  0.00     0.027 A 
HETATM    3  C   UNL     1      33.247  52.225  39.713  1.00  0.00     0.032 A 
HETATM    4  C   UNL     1      32.167  52.011  38.856  1.00  0.00     0.018 A 
HETATM    5  C   UNL     1      30.994  51.432  39.348  1.00  0.00     0.014 A 
HETATM    6  C   UNL     1      30.890  51.036  40.694  1.00  0.00    -0.014 A 
ENDROOT
BRANCH   3   7
HETATM    7  C   UNL     1      34.513  52.873  39.266  1.00  0.00     0.252 C 
HETATM    8  O   UNL     1      35.409  52.194  38.778  1.00  0.00    -0.268 OA
HETATM    9  N   UNL     1      34.624  54.233  39.473  1.00  0.00    -0.349 N 
HETATM   10  H   UNL     1      33.931  54.706  40.032  1.00  0.00     0.163 HD
BRANCH   9  11
HETATM   11  C   UNL     1      35.881  54.925  39.237  1.00  0.00     0.114 C 
HETATM   12  C   UNL     1      36.791  54.839  40.465  1.00  0.00     0.037 C 
BRANCH  11  13
HETATM   13  C   UNL     1      35.627  56.368  38.831  1.00  0.00    -0.036 A 
HETATM   14  C   UNL     1      34.517  57.050  39.359  1.00  0.00     0.012 A 
HETATM   15  C   UNL     1      34.251  58.370  38.992  1.00  0.00     0.043 A 
HETATM   16  C   UNL     1      35.096  59.017  38.100  1.00  0.00     0.116 A 
HETATM   17  F   UNL     1      34.841  60.283  37.746  1.00  0.00    -0.206 F 
HETATM   18  C   UNL     1      36.203  58.368  37.568  1.00  0.00     0.043 A 
HETATM   19  C   UNL     1      36.469  57.045  37.930  1.00  0.00     0.012 A 
ENDBRANCH  11  13
ENDBRANCH   9  11
ENDBRANCH   3   7
BRANCH   1  20
HETATM   20  C   UNL     1      31.935  50.820  43.032  1.00  0.00     0.148 C 
HETATM   21  C   UNL     1      32.910  51.639  43.867  1.00  0.00     0.044 C 
BRANCH  20  22
HETATM   22  O   UNL     1      32.248  49.436  43.206  1.00  0.00    -0.391 OA
HETATM   23  H   UNL     1      31.808  48.948  42.489  1.00  0.00     0.210 HD
ENDBRANCH  20  22
ENDBRANCH   1  20
BRANCH   6  24
HETATM   24  C   UNL     1      29.625  50.492  41.136  1.00  0.00     0.011 A 
HETATM   25  C   UNL     1      28.418  51.141  41.470  1.00  0.00     0.152 A 
HETATM   26  N   UNL     1      27.456  50.279  41.813  1.00  0.00    -0.187 NA
HETATM   27  N   UNL     1      28.046  49.078  41.686  1.00  0.00    -0.289 N 
HETATM   28  H   UNL     1      27.499  48.250  41.898  1.00  0.00     0.188 HD
HETATM   29  C   UNL     1      29.344  49.151  41.267  1.00  0.00     0.123 A 
ENDBRANCH   6  24
TORSDOF 6
ENDMDL
MODEL 10
REMARK VINA RESULT:      -7.9      4.533     10.182
REMARK  6 active torsions:
REMARK  status: ('A' for Active; 'I' for Inactive)
REMARK    1  A    between atoms: C_2  and  O_3 
REMARK    2  A    between atoms: C_2  and  C_4 
REMARK    3  A    between atoms: C_6  and  C_16 
REMARK    4  A    between atoms: C_9  and  C_10 
REMARK       I    between atoms: C_16  and  N_18 
REMARK    5  A    between atoms: N_18  and  C_19 
REMARK    6  A    between atoms: C_19  and  C_21 
ROOT
HETATM    1  C   UNL     1      21.914  49.076  48.994  1.00  0.00    -0.018 A 
HETATM    2  C   UNL     1      22.953  48.187  49.348  1.00  0.00     0.027 A 
HETATM    3  C   UNL     1      22.893  46.820  49.035  1.00  0.00     0.032 A 
HETATM    4  C   UNL     1      21.771  46.319  48.374  1.00  0.00     0.018 A 
HETATM    5  C   UNL     1      20.743  47.187  47.995  1.00  0.00     0.014 A 
HETATM    6  C   UNL     1      20.808  48.560  48.290  1.00  0.00    -0.014 A 
ENDROOT
BRANCH   3   7
HETATM    7  C   UNL     1      24.043  45.960  49.434  1.00  0.00     0.252 C 
HETATM    8  O   UNL     1      24.574  45.225  48.608  1.00  0.00    -0.268 OA
HETATM    9  N   UNL     1      24.427  46.007  50.758  1.00  0.00    -0.349 N 
HETATM   10  H   UNL     1      23.848  46.495  51.424  1.00  0.00     0.163 HD
BRANCH   9  11
HETATM   11  C   UNL     1      25.416  45.079  51.285  1.00  0.00     0.114 C 
HETATM   12  C   UNL     1      24.790  43.708  51.553  1.00  0.00     0.037 C 
BRANCH  11  13
HETATM   13  C   UNL     1      26.070  45.648  52.533  1.00  0.00    -0.036 A 
HETATM   14  C   UNL     1      25.700  46.927  52.987  1.00  0.00     0.012 A 
HETATM   15  C   UNL     1      26.296  47.480  54.121  1.00  0.00     0.043 A 
HETATM   16  C   UNL     1      27.259  46.757  54.811  1.00  0.00     0.116 A 
HETATM   17  F   UNL     1      27.832  47.288  55.899  1.00  0.00    -0.206 F 
HETATM   18  C   UNL     1      27.638  45.489  54.388  1.00  0.00     0.043 A 
HETATM   19  C   UNL     1      27.048  44.935  53.250  1.00  0.00     0.012 A 
ENDBRANCH  11  13
ENDBRANCH   9  11
ENDBRANCH   3   7
BRANCH   1  20
HETATM   20  C   UNL     1      22.058  50.552  49.327  1.00  0.00     0.148 C 
HETATM   21  C   UNL     1      23.205  51.196  48.561  1.00  0.00     0.044 C 
BRANCH  20  22
HETATM   22  O   UNL     1      22.291  50.738  50.725  1.00  0.00    -0.391 OA
HETATM   23  H   UNL     1      22.905  51.486  50.819  1.00  0.00     0.210 HD
ENDBRANCH  20  22
ENDBRANCH   1  20
BRANCH   6  24
HETATM   24  C   UNL     1      19.728  49.398  47.816  1.00  0.00     0.011 A 
HETATM   25  C   UNL     1      19.622  50.180  46.647  1.00  0.00     0.152 A 
HETATM   26  N   UNL     1      18.442  50.798  46.555  1.00  0.00    -0.187 NA
HETATM   27  N   UNL     1      17.788  50.402  47.660  1.00  0.00    -0.289 N 
HETATM   28  H   UNL     1      16.848  50.751  47.813  1.00  0.00     0.188 HD
HETATM   29  C   UNL     1      18.512  49.548  48.443  1.00  0.00     0.123 A 
ENDBRANCH   6  24
TORSDOF 6
ENDMDL
