MODEL 1
REMARK VINA RESULT:     -10.1      0.000      0.000
REMARK  6 active torsions:
REMARK  status: ('A' for Active; 'I' for Inactive)
REMARK    1  A    between atoms: C_2  and  O_3 
REMARK    2  A    between atoms: C_2  and  C_4 
REMARK    3  A    between atoms: C_6  and  N_7 
REMARK       I    between atoms: N_7  and  C_8 
REMARK    4  A    between atoms: C_8  and  C_9 
REMARK    5  A    between atoms: C_12  and  C_13 
REMARK    6  A    between atoms: C_18  and  C_19 
ROOT
HETATM    1  C   UNL     1      25.259  45.397  50.571  1.00  0.00     0.096 A 
HETATM    2  C   UNL     1      25.985  44.618  51.454  1.00  0.00     0.138 A 
HETATM    3  N   UNL     1      25.938  43.336  50.951  1.00  0.00    -0.240 N 
HETATM    4  C   UNL     1      26.631  42.200  51.537  1.00  0.00     0.221 C 
HETATM    5  C   UNL     1      27.762  42.693  52.462  1.00  0.00     0.066 C 
HETATM    6  C   UNL     1      27.239  43.800  53.383  1.00  0.00     0.118 C 
HETATM    7  N   UNL     1      26.692  44.898  52.582  1.00  0.00    -0.365 N 
HETATM    8  N   UNL     1      25.161  43.212  49.868  1.00  0.00    -0.181 NA
HETATM    9  C   UNL     1      24.789  44.469  49.609  1.00  0.00     0.160 A 
HETATM   10  H   UNL     1      27.192  45.784  52.671  1.00  0.00     0.161 HD
ENDROOT
BRANCH   1  11
HETATM   11  C   UNL     1      24.994  46.827  50.582  1.00  0.00     0.261 C 
HETATM   12  N   UNL     1      24.352  47.279  49.444  1.00  0.00    -0.323 N 
HETATM   13  H   UNL     1      24.260  46.595  48.700  1.00  0.00     0.169 HD
HETATM   14  O   UNL     1      25.356  47.516  51.528  1.00  0.00    -0.267 OA
BRANCH  12  15
HETATM   15  C   UNL     1      23.870  48.574  49.177  1.00  0.00     0.035 A 
HETATM   16  C   UNL     1      22.653  49.066  49.657  1.00  0.00     0.039 A 
HETATM   17  C   UNL     1      22.215  50.365  49.339  1.00  0.00    -0.028 A 
HETATM   18  C   UNL     1      23.028  51.171  48.533  1.00  0.00     0.010 A 
HETATM   19  C   UNL     1      24.241  50.689  48.045  1.00  0.00     0.003 A 
HETATM   20  C   UNL     1      24.658  49.395  48.364  1.00  0.00     0.029 A 
BRANCH  17  21
HETATM   21  C   UNL     1      20.902  50.866  49.902  1.00  0.00     0.147 C 
HETATM   22  C   UNL     1      20.082  51.593  48.841  1.00  0.00     0.044 C 
BRANCH  21  23
HETATM   23  O   UNL     1      20.136  49.778  50.417  1.00  0.00    -0.391 OA
HETATM   24  H   UNL     1      20.460  49.607  51.316  1.00  0.00     0.210 HD
ENDBRANCH  21  23
ENDBRANCH  17  21
ENDBRANCH  12  15
ENDBRANCH   1  11
BRANCH   4  25
HETATM   25  C   UNL     1      27.209  41.272  50.488  1.00  0.00     0.409 C 
HETATM   26  F   UNL     1      27.644  41.934  49.393  1.00  0.00    -0.169 F 
HETATM   27  F   UNL     1      28.294  40.631  51.005  1.00  0.00    -0.169 F 
HETATM   28  F   UNL     1      26.359  40.302  50.096  1.00  0.00    -0.169 F 
ENDBRANCH   4  25
BRANCH   6  29
HETATM   29  C   UNL     1      28.300  44.327  54.328  1.00  0.00    -0.035 A 
HETATM   30  C   UNL     1      28.189  45.590  54.933  1.00  0.00     0.009 A 
HETATM   31  C   UNL     1      29.180  46.055  55.800  1.00  0.00     0.001 A 
HETATM   32  C   UNL     1      30.294  45.266  56.074  1.00  0.00     0.000 A 
HETATM   33  C   UNL     1      30.418  44.009  55.486  1.00  0.00     0.001 A 
HETATM   34  C   UNL     1      29.427  43.542  54.620  1.00  0.00     0.009 A 
ENDBRANCH   6  29
TORSDOF 6
ENDMDL
MODEL 2
REMARK VINA RESULT:      -9.6      5.162      8.424
REMARK  6 active torsions:
REMARK  status: ('A' for Active; 'I' for Inactive)
REMARK    1  A    between atoms: C_2  and  O_3 
REMARK    2  A    between atoms: C_2  and  C_4 
REMARK    3  A    between atoms: C_6  and  N_7 
REMARK       I    between atoms: N_7  and  C_8 
REMARK    4  A    between atoms: C_8  and  C_9 
REMARK    5  A    between atoms: C_12  and  C_13 
REMARK    6  A    between atoms: C_18  and  C_19 
ROOT
HETATM    1  C   UNL     1      27.543  43.262  52.041  1.00  0.00     0.096 A 
HETATM    2  C   UNL     1      27.989  44.155  52.998  1.00  0.00     0.138 A 
HETATM    3  N   UNL     1      27.159  45.251  52.906  1.00  0.00    -0.240 N 
HETATM    4  C   UNL     1      27.231  46.410  53.780  1.00  0.00     0.221 C 
HETATM    5  C   UNL     1      27.997  46.050  55.069  1.00  0.00     0.066 C 
HETATM    6  C   UNL     1      29.288  45.303  54.718  1.00  0.00     0.118 C 
HETATM    7  N   UNL     1      28.973  44.105  53.936  1.00  0.00    -0.365 N 
HETATM    8  N   UNL     1      26.276  45.173  51.902  1.00  0.00    -0.181 NA
HETATM    9  C   UNL     1      26.477  43.948  51.409  1.00  0.00     0.160 A 
HETATM   10  H   UNL     1      29.207  43.221  54.392  1.00  0.00     0.161 HD
ENDROOT
BRANCH   1  11
HETATM   11  C   UNL     1      28.023  41.930  51.706  1.00  0.00     0.261 C 
HETATM   12  N   UNL     1      27.688  41.528  50.426  1.00  0.00    -0.323 N 
HETATM   13  H   UNL     1      27.053  42.145  49.932  1.00  0.00     0.169 HD
HETATM   14  O   UNL     1      28.636  41.266  52.534  1.00  0.00    -0.267 OA
BRANCH  12  15
HETATM   15  C   UNL     1      28.073  40.349  49.759  1.00  0.00     0.035 A 
HETATM   16  C   UNL     1      28.457  39.175  50.414  1.00  0.00     0.039 A 
HETATM   17  C   UNL     1      28.852  38.033  49.691  1.00  0.00    -0.028 A 
HETATM   18  C   UNL     1      28.844  38.086  48.292  1.00  0.00     0.010 A 
HETATM   19  C   UNL     1      28.466  39.253  47.629  1.00  0.00     0.003 A 
HETATM   20  C   UNL     1      28.085  40.380  48.361  1.00  0.00     0.029 A 
BRANCH  17  21
HETATM   21  C   UNL     1      29.236  36.775  50.439  1.00  0.00     0.147 C 
HETATM   22  C   UNL     1      30.001  37.100  51.717  1.00  0.00     0.044 C 
BRANCH  21  23
HETATM   23  O   UNL     1      28.071  36.022  50.773  1.00  0.00    -0.391 OA
HETATM   24  H   UNL     1      27.474  36.622  51.247  1.00  0.00     0.210 HD
ENDBRANCH  21  23
ENDBRANCH  17  21
ENDBRANCH  12  15
ENDBRANCH   1  11
BRANCH   4  25
HETATM   25  C   UNL     1      25.861  46.946  54.144  1.00  0.00     0.409 C 
HETATM   26  F   UNL     1      25.208  47.465  53.080  1.00  0.00    -0.169 F 
HETATM   27  F   UNL     1      25.088  45.924  54.608  1.00  0.00    -0.169 F 
HETATM   28  F   UNL     1      25.884  47.867  55.128  1.00  0.00    -0.169 F 
ENDBRANCH   4  25
BRANCH   6  29
HETATM   29  C   UNL     1      30.098  44.924  55.942  1.00  0.00    -0.035 A 
HETATM   30  C   UNL     1      30.038  45.674  57.128  1.00  0.00     0.009 A 
HETATM   31  C   UNL     1      30.794  45.306  58.243  1.00  0.00     0.001 A 
HETATM   32  C   UNL     1      31.620  44.186  58.188  1.00  0.00     0.000 A 
HETATM   33  C   UNL     1      31.689  43.430  57.021  1.00  0.00     0.001 A 
HETATM   34  C   UNL     1      30.931  43.795  55.905  1.00  0.00     0.009 A 
ENDBRANCH   6  29
TORSDOF 6
ENDMDL
MODEL 3
REMARK VINA RESULT:      -9.6      1.796      2.652
REMARK  6 active torsions:
REMARK  status: ('A' for Active; 'I' for Inactive)
REMARK    1  A    between atoms: C_2  and  O_3 
REMARK    2  A    between atoms: C_2  and  C_4 
REMARK    3  A    between atoms: C_6  and  N_7 
REMARK       I    between atoms: N_7  and  C_8 
REMARK    4  A    between atoms: C_8  and  C_9 
REMARK    5  A    between atoms: C_12  and  C_13 
REMARK    6  A    between atoms: C_18  and  C_19 
ROOT
HETATM    1  C   UNL     1      25.065  42.999  50.601  1.00  0.00     0.096 A 
HETATM    2  C   UNL     1      26.069  42.549  51.439  1.00  0.00     0.138 A 
HETATM    3  N   UNL     1      26.450  41.321  50.945  1.00  0.00    -0.240 N 
HETATM    4  C   UNL     1      27.533  40.518  51.489  1.00  0.00     0.221 C 
HETATM    5  C   UNL     1      28.467  41.401  52.339  1.00  0.00     0.066 C 
HETATM    6  C   UNL     1      27.641  42.275  53.288  1.00  0.00     0.118 C 
HETATM    7  N   UNL     1      26.696  43.089  52.519  1.00  0.00    -0.365 N 
HETATM    8  N   UNL     1      25.705  40.903  49.913  1.00  0.00    -0.181 NA
HETATM    9  C   UNL     1      24.899  41.941  49.674  1.00  0.00     0.160 A 
HETATM   10  H   UNL     1      26.855  44.097  52.574  1.00  0.00     0.161 HD
ENDROOT
BRANCH   1  11
HETATM   11  C   UNL     1      24.312  44.244  50.624  1.00  0.00     0.261 C 
HETATM   12  N   UNL     1      24.007  44.728  49.366  1.00  0.00    -0.323 N 
HETATM   13  H   UNL     1      24.445  44.235  48.596  1.00  0.00     0.169 HD
HETATM   14  O   UNL     1      24.031  44.777  51.691  1.00  0.00    -0.267 OA
BRANCH  12  15
HETATM   15  C   UNL     1      23.217  45.846  49.035  1.00  0.00     0.035 A 
HETATM   16  C   UNL     1      23.615  47.169  49.245  1.00  0.00     0.039 A 
HETATM   17  C   UNL     1      22.771  48.246  48.912  1.00  0.00    -0.028 A 
HETATM   18  C   UNL     1      21.518  47.971  48.352  1.00  0.00     0.010 A 
HETATM   19  C   UNL     1      21.110  46.655  48.142  1.00  0.00     0.003 A 
HETATM   20  C   UNL     1      21.956  45.598  48.485  1.00  0.00     0.029 A 
BRANCH  17  21
HETATM   21  C   UNL     1      23.253  49.664  49.133  1.00  0.00     0.147 C 
HETATM   22  C   UNL     1      23.013  50.531  47.903  1.00  0.00     0.044 C 
BRANCH  21  23
HETATM   23  O   UNL     1      22.583  50.246  50.251  1.00  0.00    -0.391 OA
HETATM   24  H   UNL     1      22.900  49.781  51.042  1.00  0.00     0.210 HD
ENDBRANCH  21  23
ENDBRANCH  17  21
ENDBRANCH  12  15
ENDBRANCH   1  11
BRANCH   4  25
HETATM   25  C   UNL     1      28.340  39.827  50.409  1.00  0.00     0.409 C 
HETATM   26  F   UNL     1      29.450  39.227  50.895  1.00  0.00    -0.169 F 
HETATM   27  F   UNL     1      27.586  38.841  49.847  1.00  0.00    -0.169 F 
HETATM   28  F   UNL     1      28.699  40.641  49.396  1.00  0.00    -0.169 F 
ENDBRANCH   4  25
BRANCH   6  29
HETATM   29  C   UNL     1      28.500  43.167  54.162  1.00  0.00    -0.035 A 
HETATM   30  C   UNL     1      29.794  42.788  54.557  1.00  0.00     0.009 A 
HETATM   31  C   UNL     1      30.567  43.626  55.364  1.00  0.00     0.001 A 
HETATM   32  C   UNL     1      30.058  44.852  55.787  1.00  0.00     0.000 A 
HETATM   33  C   UNL     1      28.779  45.244  55.401  1.00  0.00     0.001 A 
HETATM   34  C   UNL     1      28.005  44.408  54.592  1.00  0.00     0.009 A 
ENDBRANCH   6  29
TORSDOF 6
ENDMDL
MODEL 4
REMARK VINA RESULT:      -9.5      4.765      7.750
REMARK  6 active torsions:
REMARK  status: ('A' for Active; 'I' for Inactive)
REMARK    1  A    between atoms: C_2  and  O_3 
REMARK    2  A    between atoms: C_2  and  C_4 
REMARK    3  A    between atoms: C_6  and  N_7 
REMARK       I    between atoms: N_7  and  C_8 
REMARK    4  A    between atoms: C_8  and  C_9 
REMARK    5  A    between atoms: C_12  and  C_13 
REMARK    6  A    between atoms: C_18  and  C_19 
ROOT
HETATM    1  C   UNL     1      26.086  45.332  52.599  1.00  0.00     0.096 A 
HETATM    2  C   UNL     1      27.054  45.732  53.502  1.00  0.00     0.138 A 
HETATM    3  N   UNL     1      26.734  47.027  53.847  1.00  0.00    -0.240 N 
HETATM    4  C   UNL     1      27.457  47.817  54.831  1.00  0.00     0.221 C 
HETATM    5  C   UNL     1      28.282  46.890  55.745  1.00  0.00     0.066 C 
HETATM    6  C   UNL     1      29.052  45.871  54.899  1.00  0.00     0.118 C 
HETATM    7  N   UNL     1      28.118  45.104  54.071  1.00  0.00    -0.365 N 
HETATM    8  N   UNL     1      25.693  47.523  53.165  1.00  0.00    -0.181 NA
HETATM    9  C   UNL     1      25.271  46.480  52.445  1.00  0.00     0.160 A 
HETATM   10  H   UNL     1      28.074  44.106  54.285  1.00  0.00     0.161 HD
ENDROOT
BRANCH   1  11
HETATM   11  C   UNL     1      25.905  44.056  51.924  1.00  0.00     0.261 C 
HETATM   12  N   UNL     1      26.932  43.740  51.055  1.00  0.00    -0.323 N 
HETATM   13  H   UNL     1      27.610  44.478  50.902  1.00  0.00     0.169 HD
HETATM   14  O   UNL     1      24.900  43.385  52.128  1.00  0.00    -0.267 OA
BRANCH  12  15
HETATM   15  C   UNL     1      27.114  42.551  50.323  1.00  0.00     0.035 A 
HETATM   16  C   UNL     1      27.805  41.437  50.808  1.00  0.00     0.039 A 
HETATM   17  C   UNL     1      27.971  40.282  50.019  1.00  0.00    -0.028 A 
HETATM   18  C   UNL     1      27.420  40.261  48.733  1.00  0.00     0.010 A 
HETATM   19  C   UNL     1      26.732  41.368  48.238  1.00  0.00     0.003 A 
HETATM   20  C   UNL     1      26.582  42.508  49.031  1.00  0.00     0.029 A 
BRANCH  17  21
HETATM   21  C   UNL     1      28.705  39.090  50.593  1.00  0.00     0.147 C 
HETATM   22  C   UNL     1      29.647  38.469  49.568  1.00  0.00     0.044 C 
BRANCH  21  23
HETATM   23  O   UNL     1      29.458  39.476  51.742  1.00  0.00    -0.391 OA
HETATM   24  H   UNL     1      30.386  39.263  51.555  1.00  0.00     0.210 HD
ENDBRANCH  21  23
ENDBRANCH  17  21
ENDBRANCH  12  15
ENDBRANCH   1  11
BRANCH   4  25
HETATM   25  C   UNL     1      26.535  48.668  55.680  1.00  0.00     0.409 C 
HETATM   26  F   UNL     1      25.248  48.604  55.272  1.00  0.00    -0.169 F 
HETATM   27  F   UNL     1      26.555  48.210  56.962  1.00  0.00    -0.169 F 
HETATM   28  F   UNL     1      26.902  49.964  55.745  1.00  0.00    -0.169 F 
ENDBRANCH   4  25
BRANCH   6  29
HETATM   29  C   UNL     1      29.895  44.929  55.737  1.00  0.00    -0.035 A 
HETATM   30  C   UNL     1      30.288  43.668  55.260  1.00  0.00     0.009 A 
HETATM   31  C   UNL     1      31.063  42.817  56.050  1.00  0.00     0.001 A 
HETATM   32  C   UNL     1      31.456  43.214  57.326  1.00  0.00     0.000 A 
HETATM   33  C   UNL     1      31.079  44.464  57.812  1.00  0.00     0.001 A 
HETATM   34  C   UNL     1      30.305  45.317  57.022  1.00  0.00     0.009 A 
ENDBRANCH   6  29
TORSDOF 6
ENDMDL
MODEL 5
REMARK VINA RESULT:      -9.3      4.819      7.458
REMARK  6 active torsions:
REMARK  status: ('A' for Active; 'I' for Inactive)
REMARK    1  A    between atoms: C_2  and  O_3 
REMARK    2  A    between atoms: C_2  and  C_4 
REMARK    3  A    between atoms: C_6  and  N_7 
REMARK       I    between atoms: N_7  and  C_8 
REMARK    4  A    between atoms: C_8  and  C_9 
REMARK    5  A    between atoms: C_12  and  C_13 
REMARK    6  A    between atoms: C_18  and  C_19 
ROOT
HETATM    1  C   UNL     1      26.215  45.308  52.689  1.00  0.00     0.096 A 
HETATM    2  C   UNL     1      27.145  45.754  53.610  1.00  0.00     0.138 A 
HETATM    3  N   UNL     1      26.773  47.043  53.925  1.00  0.00    -0.240 N 
HETATM    4  C   UNL     1      27.444  47.871  54.914  1.00  0.00     0.221 C 
HETATM    5  C   UNL     1      28.276  46.987  55.864  1.00  0.00     0.066 C 
HETATM    6  C   UNL     1      29.101  45.982  55.054  1.00  0.00     0.118 C 
HETATM    7  N   UNL     1      28.214  45.171  54.215  1.00  0.00    -0.365 N 
HETATM    8  N   UNL     1      25.735  47.493  53.209  1.00  0.00    -0.181 NA
HETATM    9  C   UNL     1      25.366  46.426  52.496  1.00  0.00     0.160 A 
HETATM   10  H   UNL     1      28.199  44.176  54.444  1.00  0.00     0.161 HD
ENDROOT
BRANCH   1  11
HETATM   11  C   UNL     1      26.094  44.017  52.030  1.00  0.00     0.261 C 
HETATM   12  N   UNL     1      27.249  43.614  51.386  1.00  0.00    -0.323 N 
HETATM   13  H   UNL     1      27.984  44.311  51.344  1.00  0.00     0.169 HD
HETATM   14  O   UNL     1      25.031  43.406  52.055  1.00  0.00    -0.267 OA
BRANCH  12  15
HETATM   15  C   UNL     1      27.499  42.390  50.739  1.00  0.00     0.035 A 
HETATM   16  C   UNL     1      27.160  42.129  49.408  1.00  0.00     0.039 A 
HETATM   17  C   UNL     1      27.418  40.875  48.821  1.00  0.00    -0.028 A 
HETATM   18  C   UNL     1      28.035  39.885  49.595  1.00  0.00     0.010 A 
HETATM   19  C   UNL     1      28.373  40.132  50.924  1.00  0.00     0.003 A 
HETATM   20  C   UNL     1      28.104  41.379  51.493  1.00  0.00     0.029 A 
BRANCH  17  21
HETATM   21  C   UNL     1      27.058  40.645  47.370  1.00  0.00     0.147 C 
HETATM   22  C   UNL     1      25.560  40.804  47.136  1.00  0.00     0.044 C 
BRANCH  21  23
HETATM   23  O   UNL     1      27.760  41.564  46.533  1.00  0.00    -0.391 OA
HETATM   24  H   UNL     1      28.576  41.121  46.251  1.00  0.00     0.210 HD
ENDBRANCH  21  23
ENDBRANCH  17  21
ENDBRANCH  12  15
ENDBRANCH   1  11
BRANCH   4  25
HETATM   25  C   UNL     1      26.472  48.704  55.726  1.00  0.00     0.409 C 
HETATM   26  F   UNL     1      25.208  48.636  55.251  1.00  0.00    -0.169 F 
HETATM   27  F   UNL     1      26.429  48.227  57.001  1.00  0.00    -0.169 F 
HETATM   28  F   UNL     1      26.825  50.001  55.828  1.00  0.00    -0.169 F 
ENDBRANCH   4  25
BRANCH   6  29
HETATM   29  C   UNL     1      29.952  45.082  55.928  1.00  0.00    -0.035 A 
HETATM   30  C   UNL     1      30.459  43.859  55.456  1.00  0.00     0.009 A 
HETATM   31  C   UNL     1      31.241  43.047  56.279  1.00  0.00     0.001 A 
HETATM   32  C   UNL     1      31.526  43.443  57.584  1.00  0.00     0.000 A 
HETATM   33  C   UNL     1      31.035  44.654  58.066  1.00  0.00     0.001 A 
HETATM   34  C   UNL     1      30.254  45.469  57.243  1.00  0.00     0.009 A 
ENDBRANCH   6  29
TORSDOF 6
ENDMDL
MODEL 6
REMARK VINA RESULT:      -8.9      3.327      8.831
REMARK  6 active torsions:
REMARK  status: ('A' for Active; 'I' for Inactive)
REMARK    1  A    between atoms: C_2  and  O_3 
REMARK    2  A    between atoms: C_2  and  C_4 
REMARK    3  A    between atoms: C_6  and  N_7 
REMARK       I    between atoms: N_7  and  C_8 
REMARK    4  A    between atoms: C_8  and  C_9 
REMARK    5  A    between atoms: C_12  and  C_13 
REMARK    6  A    between atoms: C_18  and  C_19 
ROOT
HETATM    1  C   UNL     1      24.231  46.211  49.831  1.00  0.00     0.096 A 
HETATM    2  C   UNL     1      23.211  46.823  49.124  1.00  0.00     0.138 A 
HETATM    3  N   UNL     1      22.818  45.913  48.167  1.00  0.00    -0.240 N 
HETATM    4  C   UNL     1      21.719  46.122  47.239  1.00  0.00     0.221 C 
HETATM    5  C   UNL     1      20.788  47.230  47.768  1.00  0.00     0.066 C 
HETATM    6  C   UNL     1      21.616  48.437  48.222  1.00  0.00     0.118 C 
HETATM    7  N   UNL     1      22.581  48.022  49.244  1.00  0.00    -0.365 N 
HETATM    8  N   UNL     1      23.568  44.803  48.141  1.00  0.00    -0.181 NA
HETATM    9  C   UNL     1      24.392  44.963  49.180  1.00  0.00     0.160 A 
HETATM   10  H   UNL     1      22.436  48.439  50.165  1.00  0.00     0.161 HD
ENDROOT
BRANCH   1  11
HETATM   11  C   UNL     1      25.001  46.690  50.968  1.00  0.00     0.261 C 
HETATM   12  N   UNL     1      25.428  45.680  51.811  1.00  0.00    -0.323 N 
HETATM   13  H   UNL     1      25.052  44.761  51.607  1.00  0.00     0.169 HD
HETATM   14  O   UNL     1      25.194  47.890  51.124  1.00  0.00    -0.267 OA
BRANCH  12  15
HETATM   15  C   UNL     1      26.264  45.788  52.938  1.00  0.00     0.035 A 
HETATM   16  C   UNL     1      27.226  44.836  53.286  1.00  0.00     0.039 A 
HETATM   17  C   UNL     1      28.020  44.989  54.439  1.00  0.00    -0.028 A 
HETATM   18  C   UNL     1      27.838  46.126  55.235  1.00  0.00     0.010 A 
HETATM   19  C   UNL     1      26.878  47.079  54.900  1.00  0.00     0.003 A 
HETATM   20  C   UNL     1      26.094  46.909  53.757  1.00  0.00     0.029 A 
BRANCH  17  21
HETATM   21  C   UNL     1      29.068  43.946  54.764  1.00  0.00     0.147 C 
HETATM   22  C   UNL     1      29.676  43.354  53.498  1.00  0.00     0.044 C 
BRANCH  21  23
HETATM   23  O   UNL     1      30.108  44.519  55.556  1.00  0.00    -0.391 OA
HETATM   24  H   UNL     1      29.836  44.431  56.484  1.00  0.00     0.210 HD
ENDBRANCH  21  23
ENDBRANCH  17  21
ENDBRANCH  12  15
ENDBRANCH   1  11
BRANCH   4  25
HETATM   25  C   UNL     1      20.914  44.860  47.003  1.00  0.00     0.409 C 
HETATM   26  F   UNL     1      20.562  44.247  48.155  1.00  0.00    -0.169 F 
HETATM   27  F   UNL     1      19.752  45.181  46.368  1.00  0.00    -0.169 F 
HETATM   28  F   UNL     1      21.533  43.963  46.209  1.00  0.00    -0.169 F 
ENDBRANCH   4  25
BRANCH   6  29
HETATM   29  C   UNL     1      20.760  49.572  48.748  1.00  0.00    -0.035 A 
HETATM   30  C   UNL     1      20.864  50.875  48.234  1.00  0.00     0.009 A 
HETATM   31  C   UNL     1      20.066  51.905  48.735  1.00  0.00     0.001 A 
HETATM   32  C   UNL     1      19.153  51.648  49.756  1.00  0.00     0.000 A 
HETATM   33  C   UNL     1      19.034  50.360  50.274  1.00  0.00     0.001 A 
HETATM   34  C   UNL     1      19.831  49.328  49.773  1.00  0.00     0.009 A 
ENDBRANCH   6  29
TORSDOF 6
ENDMDL
MODEL 7
REMARK VINA RESULT:      -8.7      2.610      8.506
REMARK  6 active torsions:
REMARK  status: ('A' for Active; 'I' for Inactive)
REMARK    1  A    between atoms: C_2  and  O_3 
REMARK    2  A    between atoms: C_2  and  C_4 
REMARK    3  A    between atoms: C_6  and  N_7 
REMARK       I    between atoms: N_7  and  C_8 
REMARK    4  A    between atoms: C_8  and  C_9 
REMARK    5  A    between atoms: C_12  and  C_13 
REMARK    6  A    between atoms: C_18  and  C_19 
ROOT
HETATM    1  C   UNL     1      25.589  45.274  51.259  1.00  0.00     0.096 A 
HETATM    2  C   UNL     1      24.778  45.805  50.273  1.00  0.00     0.138 A 
HETATM    3  N   UNL     1      24.342  44.733  49.526  1.00  0.00    -0.240 N 
HETATM    4  C   UNL     1      23.407  44.831  48.418  1.00  0.00     0.221 C 
HETATM    5  C   UNL     1      22.629  46.159  48.502  1.00  0.00     0.066 C 
HETATM    6  C   UNL     1      23.598  47.317  48.761  1.00  0.00     0.118 C 
HETATM    7  N   UNL     1      24.356  47.067  49.989  1.00  0.00    -0.365 N 
HETATM    8  N   UNL     1      24.886  43.565  49.895  1.00  0.00    -0.181 NA
HETATM    9  C   UNL     1      25.603  43.886  50.975  1.00  0.00     0.160 A 
HETATM   10  H   UNL     1      24.184  47.735  50.743  1.00  0.00     0.161 HD
ENDROOT
BRANCH   1  11
HETATM   11  C   UNL     1      26.299  45.933  52.344  1.00  0.00     0.261 C 
HETATM   12  N   UNL     1      26.891  45.054  53.232  1.00  0.00    -0.323 N 
HETATM   13  H   UNL     1      26.657  44.077  53.092  1.00  0.00     0.169 HD
HETATM   14  O   UNL     1      26.310  47.156  52.424  1.00  0.00    -0.267 OA
BRANCH  12  15
HETATM   15  C   UNL     1      27.723  45.356  54.327  1.00  0.00     0.035 A 
HETATM   16  C   UNL     1      28.911  44.677  54.612  1.00  0.00     0.039 A 
HETATM   17  C   UNL     1      29.691  45.013  55.735  1.00  0.00    -0.028 A 
HETATM   18  C   UNL     1      29.261  46.054  56.566  1.00  0.00     0.010 A 
HETATM   19  C   UNL     1      28.076  46.735  56.293  1.00  0.00     0.003 A 
HETATM   20  C   UNL     1      27.310  46.385  55.179  1.00  0.00     0.029 A 
BRANCH  17  21
HETATM   21  C   UNL     1      30.983  44.269  55.992  1.00  0.00     0.147 C 
HETATM   22  C   UNL     1      31.249  44.112  57.485  1.00  0.00     0.044 C 
BRANCH  21  23
HETATM   23  O   UNL     1      30.939  42.976  55.389  1.00  0.00    -0.391 OA
HETATM   24  H   UNL     1      30.842  42.333  56.110  1.00  0.00     0.210 HD
ENDBRANCH  21  23
ENDBRANCH  17  21
ENDBRANCH  12  15
ENDBRANCH   1  11
BRANCH   4  25
HETATM   25  C   UNL     1      22.426  43.676  48.385  1.00  0.00     0.409 C 
HETATM   26  F   UNL     1      21.972  43.346  49.615  1.00  0.00    -0.169 F 
HETATM   27  F   UNL     1      21.333  44.037  47.656  1.00  0.00    -0.169 F 
HETATM   28  F   UNL     1      22.914  42.567  47.794  1.00  0.00    -0.169 F 
ENDBRANCH   4  25
BRANCH   6  29
HETATM   29  C   UNL     1      22.900  48.659  48.847  1.00  0.00    -0.035 A 
HETATM   30  C   UNL     1      21.527  48.761  49.129  1.00  0.00     0.009 A 
HETATM   31  C   UNL     1      20.905  50.008  49.203  1.00  0.00     0.001 A 
HETATM   32  C   UNL     1      21.644  51.171  48.997  1.00  0.00     0.000 A 
HETATM   33  C   UNL     1      23.007  51.088  48.720  1.00  0.00     0.001 A 
HETATM   34  C   UNL     1      23.631  49.841  48.648  1.00  0.00     0.009 A 
ENDBRANCH   6  29
TORSDOF 6
ENDMDL
MODEL 8
REMARK VINA RESULT:      -8.7      3.648      8.844
REMARK  6 active torsions:
REMARK  status: ('A' for Active; 'I' for Inactive)
REMARK    1  A    between atoms: C_2  and  O_3 
REMARK    2  A    between atoms: C_2  and  C_4 
REMARK    3  A    between atoms: C_6  and  N_7 
REMARK       I    between atoms: N_7  and  C_8 
REMARK    4  A    between atoms: C_8  and  C_9 
REMARK    5  A    between atoms: C_12  and  C_13 
REMARK    6  A    between atoms: C_18  and  C_19 
ROOT
HETATM    1  C   UNL     1      25.953  45.621  52.734  1.00  0.00     0.096 A 
HETATM    2  C   UNL     1      25.139  45.301  51.663  1.00  0.00     0.138 A 
HETATM    3  N   UNL     1      24.633  46.498  51.204  1.00  0.00    -0.240 N 
HETATM    4  C   UNL     1      23.776  46.633  50.038  1.00  0.00     0.221 C 
HETATM    5  C   UNL     1      23.905  45.384  49.143  1.00  0.00     0.066 C 
HETATM    6  C   UNL     1      23.804  44.116  49.997  1.00  0.00     0.118 C 
HETATM    7  N   UNL     1      24.836  44.132  51.037  1.00  0.00    -0.365 N 
HETATM    8  N   UNL     1      24.980  47.551  51.956  1.00  0.00    -0.181 NA
HETATM    9  C   UNL     1      25.819  47.026  52.853  1.00  0.00     0.160 A 
HETATM   10  H   UNL     1      25.535  43.392  50.959  1.00  0.00     0.161 HD
ENDROOT
BRANCH   1  11
HETATM   11  C   UNL     1      26.763  44.763  53.585  1.00  0.00     0.261 C 
HETATM   12  N   UNL     1      28.050  45.231  53.775  1.00  0.00    -0.323 N 
HETATM   13  H   UNL     1      28.306  46.032  53.209  1.00  0.00     0.169 HD
HETATM   14  O   UNL     1      26.300  43.722  54.035  1.00  0.00    -0.267 OA
BRANCH  12  15
HETATM   15  C   UNL     1      29.052  44.698  54.609  1.00  0.00     0.035 A 
HETATM   16  C   UNL     1      29.503  45.319  55.777  1.00  0.00     0.039 A 
HETATM   17  C   UNL     1      30.524  44.746  56.560  1.00  0.00    -0.028 A 
HETATM   18  C   UNL     1      31.080  43.527  56.153  1.00  0.00     0.010 A 
HETATM   19  C   UNL     1      30.640  42.902  54.988  1.00  0.00     0.003 A 
HETATM   20  C   UNL     1      29.631  43.487  54.219  1.00  0.00     0.029 A 
BRANCH  17  21
HETATM   21  C   UNL     1      30.965  45.440  57.830  1.00  0.00     0.147 C 
HETATM   22  C   UNL     1      29.770  45.939  58.635  1.00  0.00     0.044 C 
BRANCH  21  23
HETATM   23  O   UNL     1      31.732  44.550  58.640  1.00  0.00    -0.391 OA
HETATM   24  H   UNL     1      32.666  44.724  58.442  1.00  0.00     0.210 HD
ENDBRANCH  21  23
ENDBRANCH  17  21
ENDBRANCH  12  15
ENDBRANCH   1  11
BRANCH   4  25
HETATM   25  C   UNL     1      24.097  47.870  49.224  1.00  0.00     0.409 C 
HETATM   26  F   UNL     1      25.421  48.006  48.990  1.00  0.00    -0.169 F 
HETATM   27  F   UNL     1      23.500  47.771  48.003  1.00  0.00    -0.169 F 
HETATM   28  F   UNL     1      23.635  49.012  49.770  1.00  0.00    -0.169 F 
ENDBRANCH   4  25
BRANCH   6  29
HETATM   29  C   UNL     1      23.915  42.846  49.177  1.00  0.00    -0.035 A 
HETATM   30  C   UNL     1      25.035  42.002  49.270  1.00  0.00     0.009 A 
HETATM   31  C   UNL     1      25.115  40.838  48.504  1.00  0.00     0.001 A 
HETATM   32  C   UNL     1      24.080  40.500  47.635  1.00  0.00     0.000 A 
HETATM   33  C   UNL     1      22.961  41.323  47.534  1.00  0.00     0.001 A 
HETATM   34  C   UNL     1      22.878  42.488  48.301  1.00  0.00     0.009 A 
ENDBRANCH   6  29
TORSDOF 6
ENDMDL
MODEL 9
REMARK VINA RESULT:      -8.6      4.081      7.827
REMARK  6 active torsions:
REMARK  status: ('A' for Active; 'I' for Inactive)
REMARK    1  A    between atoms: C_2  and  O_3 
REMARK    2  A    between atoms: C_2  and  C_4 
REMARK    3  A    between atoms: C_6  and  N_7 
REMARK       I    between atoms: N_7  and  C_8 
REMARK    4  A    between atoms: C_8  and  C_9 
REMARK    5  A    between atoms: C_12  and  C_13 
REMARK    6  A    between atoms: C_18  and  C_19 
ROOT
HETATM    1  C   UNL     1      25.747  44.462  52.148  1.00  0.00     0.096 A 
HETATM    2  C   UNL     1      25.611  43.271  51.458  1.00  0.00     0.138 A 
HETATM    3  N   UNL     1      24.468  43.403  50.701  1.00  0.00    -0.240 N 
HETATM    4  C   UNL     1      23.983  42.401  49.766  1.00  0.00     0.221 C 
HETATM    5  C   UNL     1      25.124  41.435  49.391  1.00  0.00     0.066 C 
HETATM    6  C   UNL     1      25.859  40.978  50.655  1.00  0.00     0.118 C 
HETATM    7  N   UNL     1      26.367  42.142  51.384  1.00  0.00    -0.365 N 
HETATM    8  N   UNL     1      23.806  44.547  50.922  1.00  0.00    -0.181 NA
HETATM    9  C   UNL     1      24.607  45.209  51.762  1.00  0.00     0.160 A 
HETATM   10  H   UNL     1      27.385  42.198  51.447  1.00  0.00     0.161 HD
ENDROOT
BRANCH   1  11
HETATM   11  C   UNL     1      26.782  44.896  53.073  1.00  0.00     0.261 C 
HETATM   12  N   UNL     1      27.546  43.858  53.575  1.00  0.00    -0.323 N 
HETATM   13  H   UNL     1      27.217  42.928  53.340  1.00  0.00     0.169 HD
HETATM   14  O   UNL     1      26.896  46.081  53.362  1.00  0.00    -0.267 OA
BRANCH  12  15
HETATM   15  C   UNL     1      28.676  43.939  54.409  1.00  0.00     0.035 A 
HETATM   16  C   UNL     1      28.822  44.879  55.433  1.00  0.00     0.039 A 
HETATM   17  C   UNL     1      29.987  44.923  56.223  1.00  0.00    -0.028 A 
HETATM   18  C   UNL     1      31.005  43.995  55.973  1.00  0.00     0.010 A 
HETATM   19  C   UNL     1      30.872  43.056  54.951  1.00  0.00     0.003 A 
HETATM   20  C   UNL     1      29.713  43.031  54.172  1.00  0.00     0.029 A 
BRANCH  17  21
HETATM   21  C   UNL     1      30.092  45.941  57.338  1.00  0.00     0.147 C 
HETATM   22  C   UNL     1      28.726  46.246  57.944  1.00  0.00     0.044 C 
BRANCH  21  23
HETATM   23  O   UNL     1      30.960  45.464  58.365  1.00  0.00    -0.391 OA
HETATM   24  H   UNL     1      30.592  45.770  59.209  1.00  0.00     0.210 HD
ENDBRANCH  21  23
ENDBRANCH  17  21
ENDBRANCH  12  15
ENDBRANCH   1  11
BRANCH   4  25
HETATM   25  C   UNL     1      23.411  43.016  48.504  1.00  0.00     0.409 C 
HETATM   26  F   UNL     1      23.356  42.137  47.478  1.00  0.00    -0.169 F 
HETATM   27  F   UNL     1      22.128  43.411  48.740  1.00  0.00    -0.169 F 
HETATM   28  F   UNL     1      24.068  44.119  48.093  1.00  0.00    -0.169 F 
ENDBRANCH   4  25
BRANCH   6  29
HETATM   29  C   UNL     1      26.993  40.016  50.360  1.00  0.00    -0.035 A 
HETATM   30  C   UNL     1      28.269  40.184  50.922  1.00  0.00     0.009 A 
HETATM   31  C   UNL     1      29.298  39.286  50.635  1.00  0.00     0.001 A 
HETATM   32  C   UNL     1      29.068  38.208  49.783  1.00  0.00     0.000 A 
HETATM   33  C   UNL     1      27.807  38.025  49.220  1.00  0.00     0.001 A 
HETATM   34  C   UNL     1      26.775  38.922  49.508  1.00  0.00     0.009 A 
ENDBRANCH   6  29
TORSDOF 6
ENDMDL
MODEL 10
REMARK VINA RESULT:      -8.4      2.377      4.852
REMARK  6 active torsions:
REMARK  status: ('A' for Active; 'I' for Inactive)
REMARK    1  A    between atoms: C_2  and  O_3 
REMARK    2  A    between atoms: C_2  and  C_4 
REMARK    3  A    between atoms: C_6  and  N_7 
REMARK       I    between atoms: N_7  and  C_8 
REMARK    4  A    between atoms: C_8  and  C_9 
REMARK    5  A    between atoms: C_12  and  C_13 
REMARK    6  A    between atoms: C_18  and  C_19 
ROOT
HETATM    1  C   UNL     1      26.546  45.000  50.992  1.00  0.00     0.096 A 
HETATM    2  C   UNL     1      27.153  43.769  50.825  1.00  0.00     0.138 A 
HETATM    3  N   UNL     1      27.808  43.510  52.009  1.00  0.00    -0.240 N 
HETATM    4  C   UNL     1      28.529  42.280  52.295  1.00  0.00     0.221 C 
HETATM    5  C   UNL     1      28.071  41.165  51.334  1.00  0.00     0.066 C 
HETATM    6  C   UNL     1      28.043  41.693  49.896  1.00  0.00     0.118 C 
HETATM    7  N   UNL     1      27.164  42.862  49.812  1.00  0.00    -0.365 N 
HETATM    8  N   UNL     1      27.750  44.519  52.888  1.00  0.00    -0.181 NA
HETATM    9  C   UNL     1      26.944  45.402  52.291  1.00  0.00     0.160 A 
HETATM   10  H   UNL     1      26.338  42.736  49.224  1.00  0.00     0.161 HD
ENDROOT
BRANCH   1  11
HETATM   11  C   UNL     1      25.702  45.760  50.082  1.00  0.00     0.261 C 
HETATM   12  N   UNL     1      25.719  47.121  50.319  1.00  0.00    -0.323 N 
HETATM   13  H   UNL     1      26.209  47.407  51.160  1.00  0.00     0.169 HD
HETATM   14  O   UNL     1      25.040  45.184  49.226  1.00  0.00    -0.267 OA
BRANCH  12  15
HETATM   15  C   UNL     1      25.097  48.139  49.571  1.00  0.00     0.035 A 
HETATM   16  C   UNL     1      23.714  48.331  49.519  1.00  0.00     0.039 A 
HETATM   17  C   UNL     1      23.149  49.356  48.736  1.00  0.00    -0.028 A 
HETATM   18  C   UNL     1      24.001  50.196  48.010  1.00  0.00     0.010 A 
HETATM   19  C   UNL     1      25.382  50.011  48.052  1.00  0.00     0.003 A 
HETATM   20  C   UNL     1      25.926  48.985  48.828  1.00  0.00     0.029 A 
BRANCH  17  21
HETATM   21  C   UNL     1      21.647  49.545  48.729  1.00  0.00     0.147 C 
HETATM   22  C   UNL     1      21.271  51.022  48.685  1.00  0.00     0.044 C 
BRANCH  21  23
HETATM   23  O   UNL     1      21.070  48.884  47.604  1.00  0.00    -0.391 OA
HETATM   24  H   UNL     1      20.138  49.154  47.567  1.00  0.00     0.210 HD
ENDBRANCH  21  23
ENDBRANCH  17  21
ENDBRANCH  12  15
ENDBRANCH   1  11
BRANCH   4  25
HETATM   25  C   UNL     1      28.341  41.819  53.726  1.00  0.00     0.409 C 
HETATM   26  F   UNL     1      27.115  42.120  54.211  1.00  0.00    -0.169 F 
HETATM   27  F   UNL     1      28.452  40.462  53.778  1.00  0.00    -0.169 F 
HETATM   28  F   UNL     1      29.271  42.299  54.577  1.00  0.00    -0.169 F 
ENDBRANCH   4  25
BRANCH   6  29
HETATM   29  C   UNL     1      27.606  40.643  48.894  1.00  0.00    -0.035 A 
HETATM   30  C   UNL     1      26.871  39.511  49.283  1.00  0.00     0.009 A 
HETATM   31  C   UNL     1      26.481  38.557  48.342  1.00  0.00     0.001 A 
HETATM   32  C   UNL     1      26.819  38.719  47.001  1.00  0.00     0.000 A 
HETATM   33  C   UNL     1      27.544  39.838  46.597  1.00  0.00     0.001 A 
HETATM   34  C   UNL     1      27.933  40.795  47.537  1.00  0.00     0.009 A 
ENDBRANCH   6  29
TORSDOF 6
ENDMDL
