MODEL 1
REMARK VINA RESULT:      -8.8      0.000      0.000
REMARK  8 active torsions:
REMARK  status: ('A' for Active; 'I' for Inactive)
REMARK    1  A    between atoms: C_7  and  N_8 
REMARK    2  A    between atoms: C_9  and  S_10 
REMARK    3  A    between atoms: S_10  and  C_11 
REMARK    4  A    between atoms: C_11  and  C_12 
REMARK       I    between atoms: C_12  and  N_13 
REMARK    5  A    between atoms: N_13  and  C_14 
REMARK    6  A    between atoms: C_14  and  C_15 
REMARK    7  A    between atoms: C_15  and  C_16 
REMARK    8  A    between atoms: C_26  and  N_27 
ROOT
HETATM    1  N   UNL     1      24.301  44.164  49.458  1.00  0.00    -0.276 N 
HETATM    2  C   UNL     1      25.059  43.111  48.875  1.00  0.00     0.177 A 
HETATM    3  N   UNL     1      24.678  42.354  47.875  1.00  0.00    -0.204 NA
HETATM    4  C   UNL     1      23.453  42.653  47.394  1.00  0.00     0.162 A 
HETATM    5  C   UNL     1      22.574  43.617  47.802  1.00  0.00     0.081 A 
HETATM    6  C   UNL     1      22.971  44.427  48.915  1.00  0.00     0.124 A 
HETATM    7  N   UNL     1      22.843  42.027  46.348  1.00  0.00    -0.260 N 
HETATM    8  H   UNL     1      23.196  41.254  45.793  1.00  0.00     0.191 HD
HETATM    9  N   UNL     1      21.630  42.548  46.057  1.00  0.00    -0.177 NA
HETATM   10  C   UNL     1      21.463  43.536  46.951  1.00  0.00     0.068 A 
HETATM   11  C   UNL     1      20.223  44.348  46.911  1.00  0.00     0.073 C 
ENDROOT
BRANCH   2  12
HETATM   12  S   UNL     1      26.706  42.763  49.460  1.00  0.00    -0.082 SA
BRANCH  12  13
HETATM   13  C   UNL     1      26.341  41.351  50.549  1.00  0.00     0.185 C 
BRANCH  13  14
HETATM   14  C   UNL     1      27.383  41.162  51.634  1.00  0.00     0.227 C 
HETATM   15  N   UNL     1      27.221  41.943  52.760  1.00  0.00    -0.360 N 
HETATM   16  H   UNL     1      26.452  42.603  52.767  1.00  0.00     0.162 HD
HETATM   17  O   UNL     1      28.355  40.429  51.461  1.00  0.00    -0.273 OA
BRANCH  15  18
HETATM   18  C   UNL     1      28.290  42.111  53.730  1.00  0.00     0.127 C 
BRANCH  18  19
HETATM   19  C   UNL     1      29.072  43.405  53.510  1.00  0.00     0.058 C 
BRANCH  19  20
HETATM   20  C   UNL     1      29.614  43.947  54.809  1.00  0.00    -0.057 A 
HETATM   21  C   UNL     1      29.111  45.141  55.345  1.00  0.00     0.007 A 
HETATM   22  C   UNL     1      29.641  45.666  56.525  1.00  0.00     0.001 A 
HETATM   23  C   UNL     1      30.677  45.004  57.179  1.00  0.00     0.000 A 
HETATM   24  C   UNL     1      31.186  43.818  56.655  1.00  0.00     0.001 A 
HETATM   25  C   UNL     1      30.658  43.291  55.475  1.00  0.00     0.007 A 
ENDBRANCH  19  20
ENDBRANCH  18  19
ENDBRANCH  15  18
ENDBRANCH  13  14
ENDBRANCH  12  13
ENDBRANCH   2  12
BRANCH   1  26
HETATM   26  C   UNL     1      24.810  44.966  50.521  1.00  0.00     0.043 A 
HETATM   27  C   UNL     1      25.432  46.194  50.271  1.00  0.00     0.032 A 
HETATM   28  C   UNL     1      26.000  46.923  51.319  1.00  0.00     0.026 A 
HETATM   29  C   UNL     1      25.965  46.428  52.624  1.00  0.00     0.040 A 
HETATM   30  C   UNL     1      25.354  45.196  52.902  1.00  0.00    -0.038 A 
HETATM   31 CL   UNL     1      26.708  47.368  53.866  1.00  0.00    -0.084 Cl
HETATM   32  C   UNL     1      25.311  44.628  54.294  1.00  0.00     0.050 C 
HETATM   33  C   UNL     1      24.777  44.478  51.840  1.00  0.00     0.038 A 
ENDBRANCH   1  26
BRANCH   6  34
HETATM   34  N   UNL     1      22.150  45.324  49.428  1.00  0.00    -0.384 N 
HETATM   35  H   UNL     1      22.014  46.228  48.999  1.00  0.00     0.157 HD
HETATM   36  H   UNL     1      21.605  45.102  50.252  1.00  0.00     0.157 HD
ENDBRANCH   6  34
TORSDOF 8
ENDMDL
MODEL 2
REMARK VINA RESULT:      -8.6      4.057      8.568
REMARK  8 active torsions:
REMARK  status: ('A' for Active; 'I' for Inactive)
REMARK    1  A    between atoms: C_7  and  N_8 
REMARK    2  A    between atoms: C_9  and  S_10 
REMARK    3  A    between atoms: S_10  and  C_11 
REMARK    4  A    between atoms: C_11  and  C_12 
REMARK       I    between atoms: C_12  and  N_13 
REMARK    5  A    between atoms: N_13  and  C_14 
REMARK    6  A    between atoms: C_14  and  C_15 
REMARK    7  A    between atoms: C_15  and  C_16 
REMARK    8  A    between atoms: C_26  and  N_27 
ROOT
HETATM    1  N   UNL     1      25.501  46.059  50.906  1.00  0.00    -0.276 N 
HETATM    2  C   UNL     1      25.226  44.772  50.368  1.00  0.00     0.177 A 
HETATM    3  N   UNL     1      25.519  43.626  50.932  1.00  0.00    -0.204 NA
HETATM    4  C   UNL     1      26.127  43.742  52.131  1.00  0.00     0.162 A 
HETATM    5  C   UNL     1      26.474  44.872  52.821  1.00  0.00     0.081 A 
HETATM    6  C   UNL     1      26.185  46.127  52.195  1.00  0.00     0.124 A 
HETATM    7  N   UNL     1      26.514  42.703  52.924  1.00  0.00    -0.260 N 
HETATM    8  H   UNL     1      26.420  41.710  52.739  1.00  0.00     0.191 HD
HETATM    9  N   UNL     1      27.073  43.106  54.087  1.00  0.00    -0.177 NA
HETATM   10  C   UNL     1      27.044  44.447  54.029  1.00  0.00     0.068 A 
HETATM   11  C   UNL     1      27.573  45.234  55.169  1.00  0.00     0.073 C 
ENDROOT
BRANCH   2  12
HETATM   12  S   UNL     1      24.358  44.615  48.820  1.00  0.00    -0.082 SA
BRANCH  12  13
HETATM   13  C   UNL     1      22.745  44.046  49.442  1.00  0.00     0.185 C 
BRANCH  13  14
HETATM   14  C   UNL     1      21.579  44.597  48.644  1.00  0.00     0.227 C 
HETATM   15  N   UNL     1      21.207  45.890  48.947  1.00  0.00    -0.360 N 
HETATM   16  H   UNL     1      21.706  46.360  49.693  1.00  0.00     0.162 HD
HETATM   17  O   UNL     1      20.958  43.887  47.856  1.00  0.00    -0.273 OA
BRANCH  15  18
HETATM   18  C   UNL     1      19.933  46.437  48.510  1.00  0.00     0.127 C 
BRANCH  18  19
HETATM   19  C   UNL     1      20.108  47.627  47.567  1.00  0.00     0.058 C 
BRANCH  19  20
HETATM   20  C   UNL     1      20.046  48.935  48.316  1.00  0.00    -0.057 A 
HETATM   21  C   UNL     1      19.627  48.969  49.653  1.00  0.00     0.007 A 
HETATM   22  C   UNL     1      19.529  50.184  50.334  1.00  0.00     0.001 A 
HETATM   23  C   UNL     1      19.845  51.374  49.685  1.00  0.00     0.000 A 
HETATM   24  C   UNL     1      20.262  51.353  48.356  1.00  0.00     0.001 A 
HETATM   25  C   UNL     1      20.361  50.140  47.672  1.00  0.00     0.007 A 
ENDBRANCH  19  20
ENDBRANCH  18  19
ENDBRANCH  15  18
ENDBRANCH  13  14
ENDBRANCH  12  13
ENDBRANCH   2  12
BRANCH   1  26
HETATM   26  C   UNL     1      25.111  47.258  50.240  1.00  0.00     0.043 A 
HETATM   27  C   UNL     1      23.762  47.596  50.084  1.00  0.00     0.032 A 
HETATM   28  C   UNL     1      23.399  48.731  49.355  1.00  0.00     0.026 A 
HETATM   29  C   UNL     1      24.377  49.532  48.762  1.00  0.00     0.040 A 
HETATM   30  C   UNL     1      25.737  49.212  48.896  1.00  0.00    -0.038 A 
HETATM   31 CL   UNL     1      23.858  50.905  47.853  1.00  0.00    -0.084 Cl
HETATM   32  C   UNL     1      26.815  50.046  48.260  1.00  0.00     0.050 C 
HETATM   33  C   UNL     1      26.088  48.073  49.642  1.00  0.00     0.038 A 
ENDBRANCH   1  26
BRANCH   6  34
HETATM   34  N   UNL     1      26.560  47.264  52.750  1.00  0.00    -0.384 N 
HETATM   35  H   UNL     1      25.908  47.856  53.244  1.00  0.00     0.157 HD
HETATM   36  H   UNL     1      27.532  47.546  52.724  1.00  0.00     0.157 HD
ENDBRANCH   6  34
TORSDOF 8
ENDMDL
MODEL 3
REMARK VINA RESULT:      -8.4      4.140      8.187
REMARK  8 active torsions:
REMARK  status: ('A' for Active; 'I' for Inactive)
REMARK    1  A    between atoms: C_7  and  N_8 
REMARK    2  A    between atoms: C_9  and  S_10 
REMARK    3  A    between atoms: S_10  and  C_11 
REMARK    4  A    between atoms: C_11  and  C_12 
REMARK       I    between atoms: C_12  and  N_13 
REMARK    5  A    between atoms: N_13  and  C_14 
REMARK    6  A    between atoms: C_14  and  C_15 
REMARK    7  A    between atoms: C_15  and  C_16 
REMARK    8  A    between atoms: C_26  and  N_27 
ROOT
HETATM    1  N   UNL     1      26.864  43.666  51.615  1.00  0.00    -0.276 N 
HETATM    2  C   UNL     1      26.446  44.504  50.546  1.00  0.00     0.177 A 
HETATM    3  N   UNL     1      26.067  44.102  49.358  1.00  0.00    -0.204 NA
HETATM    4  C   UNL     1      26.090  42.762  49.197  1.00  0.00     0.162 A 
HETATM    5  C   UNL     1      26.449  41.789  50.088  1.00  0.00     0.081 A 
HETATM    6  C   UNL     1      26.894  42.224  51.378  1.00  0.00     0.124 A 
HETATM    7  N   UNL     1      25.724  42.097  48.065  1.00  0.00    -0.260 N 
HETATM    8  H   UNL     1      25.399  42.492  47.188  1.00  0.00     0.191 HD
HETATM    9  N   UNL     1      25.816  40.754  48.189  1.00  0.00    -0.177 NA
HETATM   10  C   UNL     1      26.258  40.559  49.442  1.00  0.00     0.068 A 
HETATM   11  C   UNL     1      26.461  39.175  49.933  1.00  0.00     0.073 C 
ENDROOT
BRANCH   2  12
HETATM   12  S   UNL     1      26.344  46.268  50.778  1.00  0.00    -0.082 SA
BRANCH  12  13
HETATM   13  C   UNL     1      24.564  46.504  50.484  1.00  0.00     0.185 C 
BRANCH  13  14
HETATM   14  C   UNL     1      24.240  47.865  49.899  1.00  0.00     0.227 C 
HETATM   15  N   UNL     1      22.904  48.107  49.656  1.00  0.00    -0.360 N 
HETATM   16  H   UNL     1      22.248  47.360  49.848  1.00  0.00     0.162 HD
HETATM   17  O   UNL     1      25.133  48.646  49.577  1.00  0.00    -0.273 OA
BRANCH  15  18
HETATM   18  C   UNL     1      22.472  49.212  48.816  1.00  0.00     0.127 C 
BRANCH  18  19
HETATM   19  C   UNL     1      22.163  50.469  49.628  1.00  0.00     0.058 C 
BRANCH  19  20
HETATM   20  C   UNL     1      20.723  50.890  49.462  1.00  0.00    -0.057 A 
HETATM   21  C   UNL     1      20.375  51.876  48.530  1.00  0.00     0.007 A 
HETATM   22  C   UNL     1      19.049  52.296  48.405  1.00  0.00     0.001 A 
HETATM   23  C   UNL     1      18.062  51.737  49.212  1.00  0.00     0.000 A 
HETATM   24  C   UNL     1      18.396  50.757  50.144  1.00  0.00     0.001 A 
HETATM   25  C   UNL     1      19.721  50.335  50.271  1.00  0.00     0.007 A 
ENDBRANCH  19  20
ENDBRANCH  18  19
ENDBRANCH  15  18
ENDBRANCH  13  14
ENDBRANCH  12  13
ENDBRANCH   2  12
BRANCH   1  26
HETATM   26  C   UNL     1      27.223  44.188  52.892  1.00  0.00     0.043 A 
HETATM   27  C   UNL     1      26.374  45.057  53.586  1.00  0.00     0.032 A 
HETATM   28  C   UNL     1      26.781  45.623  54.797  1.00  0.00     0.026 A 
HETATM   29  C   UNL     1      28.045  45.341  55.319  1.00  0.00     0.040 A 
HETATM   30  C   UNL     1      28.919  44.478  54.640  1.00  0.00    -0.038 A 
HETATM   31 CL   UNL     1      28.495  46.095  56.805  1.00  0.00    -0.084 Cl
HETATM   32  C   UNL     1      30.292  44.162  55.168  1.00  0.00     0.050 C 
HETATM   33  C   UNL     1      28.492  43.906  53.429  1.00  0.00     0.038 A 
ENDBRANCH   1  26
BRANCH   6  34
HETATM   34  N   UNL     1      27.339  41.359  52.270  1.00  0.00    -0.384 N 
HETATM   35  H   UNL     1      27.836  41.655  53.097  1.00  0.00     0.157 HD
HETATM   36  H   UNL     1      27.152  40.370  52.157  1.00  0.00     0.157 HD
ENDBRANCH   6  34
TORSDOF 8
ENDMDL
MODEL 4
REMARK VINA RESULT:      -8.3      3.646      7.946
REMARK  8 active torsions:
REMARK  status: ('A' for Active; 'I' for Inactive)
REMARK    1  A    between atoms: C_7  and  N_8 
REMARK    2  A    between atoms: C_9  and  S_10 
REMARK    3  A    between atoms: S_10  and  C_11 
REMARK    4  A    between atoms: C_11  and  C_12 
REMARK       I    between atoms: C_12  and  N_13 
REMARK    5  A    between atoms: N_13  and  C_14 
REMARK    6  A    between atoms: C_14  and  C_15 
REMARK    7  A    between atoms: C_15  and  C_16 
REMARK    8  A    between atoms: C_26  and  N_27 
ROOT
HETATM    1  N   UNL     1      27.307  41.502  50.744  1.00  0.00    -0.276 N 
HETATM    2  C   UNL     1      26.152  42.324  50.641  1.00  0.00     0.177 A 
HETATM    3  N   UNL     1      25.830  43.299  51.456  1.00  0.00    -0.204 NA
HETATM    4  C   UNL     1      26.714  43.496  52.455  1.00  0.00     0.162 A 
HETATM    5  C   UNL     1      27.876  42.829  52.729  1.00  0.00     0.081 A 
HETATM    6  C   UNL     1      28.218  41.742  51.861  1.00  0.00     0.124 A 
HETATM    7  N   UNL     1      26.615  44.458  53.417  1.00  0.00    -0.260 N 
HETATM    8  H   UNL     1      25.879  45.146  53.537  1.00  0.00     0.191 HD
HETATM    9  N   UNL     1      27.656  44.450  54.279  1.00  0.00    -0.177 NA
HETATM   10  C   UNL     1      28.441  43.447  53.853  1.00  0.00     0.068 A 
HETATM   11  C   UNL     1      29.706  43.160  54.571  1.00  0.00     0.073 C 
ENDROOT
BRANCH   2  12
HETATM   12  S   UNL     1      25.022  42.114  49.280  1.00  0.00    -0.082 SA
BRANCH  12  13
HETATM   13  C   UNL     1      23.477  42.623  50.097  1.00  0.00     0.185 C 
BRANCH  13  14
HETATM   14  C   UNL     1      22.943  43.943  49.575  1.00  0.00     0.227 C 
HETATM   15  N   UNL     1      23.896  44.864  49.193  1.00  0.00    -0.360 N 
HETATM   16  H   UNL     1      24.869  44.612  49.319  1.00  0.00     0.162 HD
HETATM   17  O   UNL     1      21.739  44.192  49.593  1.00  0.00    -0.273 OA
BRANCH  15  18
HETATM   18  C   UNL     1      23.561  46.262  48.981  1.00  0.00     0.127 C 
BRANCH  18  19
HETATM   19  C   UNL     1      24.104  47.161  50.090  1.00  0.00     0.058 C 
BRANCH  19  20
HETATM   20  C   UNL     1      25.157  48.106  49.565  1.00  0.00    -0.057 A 
HETATM   21  C   UNL     1      24.795  49.201  48.769  1.00  0.00     0.007 A 
HETATM   22  C   UNL     1      25.772  50.052  48.249  1.00  0.00     0.001 A 
HETATM   23  C   UNL     1      27.118  49.814  48.515  1.00  0.00     0.000 A 
HETATM   24  C   UNL     1      27.490  48.727  49.304  1.00  0.00     0.001 A 
HETATM   25  C   UNL     1      26.515  47.875  49.826  1.00  0.00     0.007 A 
ENDBRANCH  19  20
ENDBRANCH  18  19
ENDBRANCH  15  18
ENDBRANCH  13  14
ENDBRANCH  12  13
ENDBRANCH   2  12
BRANCH   1  26
HETATM   26  C   UNL     1      27.602  40.486  49.788  1.00  0.00     0.043 A 
HETATM   27  C   UNL     1      28.296  40.779  48.608  1.00  0.00     0.032 A 
HETATM   28  C   UNL     1      28.499  39.786  47.646  1.00  0.00     0.026 A 
HETATM   29  C   UNL     1      28.002  38.497  47.844  1.00  0.00     0.040 A 
HETATM   30  C   UNL     1      27.297  38.178  49.014  1.00  0.00    -0.038 A 
HETATM   31 CL   UNL     1      28.266  37.327  46.603  1.00  0.00    -0.084 Cl
HETATM   32  C   UNL     1      26.736  36.803  49.254  1.00  0.00     0.050 C 
HETATM   33  C   UNL     1      27.108  39.183  49.980  1.00  0.00     0.038 A 
ENDBRANCH   1  26
BRANCH   6  34
HETATM   34  N   UNL     1      29.276  40.990  52.100  1.00  0.00    -0.384 N 
HETATM   35  H   UNL     1      30.109  41.048  51.532  1.00  0.00     0.157 HD
HETATM   36  H   UNL     1      29.284  40.362  52.893  1.00  0.00     0.157 HD
ENDBRANCH   6  34
TORSDOF 8
ENDMDL
MODEL 5
REMARK VINA RESULT:      -8.2      4.330      9.306
REMARK  8 active torsions:
REMARK  status: ('A' for Active; 'I' for Inactive)
REMARK    1  A    between atoms: C_7  and  N_8 
REMARK    2  A    between atoms: C_9  and  S_10 
REMARK    3  A    between atoms: S_10  and  C_11 
REMARK    4  A    between atoms: C_11  and  C_12 
REMARK       I    between atoms: C_12  and  N_13 
REMARK    5  A    between atoms: N_13  and  C_14 
REMARK    6  A    between atoms: C_14  and  C_15 
REMARK    7  A    between atoms: C_15  and  C_16 
REMARK    8  A    between atoms: C_26  and  N_27 
ROOT
HETATM    1  N   UNL     1      27.121  42.680  51.599  1.00  0.00    -0.276 N 
HETATM    2  C   UNL     1      26.257  43.798  51.759  1.00  0.00     0.177 A 
HETATM    3  N   UNL     1      26.389  44.748  52.652  1.00  0.00    -0.204 NA
HETATM    4  C   UNL     1      27.462  44.602  53.457  1.00  0.00     0.162 A 
HETATM    5  C   UNL     1      28.409  43.615  53.467  1.00  0.00     0.081 A 
HETATM    6  C   UNL     1      28.253  42.557  52.515  1.00  0.00     0.124 A 
HETATM    7  N   UNL     1      27.828  45.463  54.448  1.00  0.00    -0.260 N 
HETATM    8  H   UNL     1      27.360  46.316  54.736  1.00  0.00     0.191 HD
HETATM    9  N   UNL     1      28.963  45.089  55.079  1.00  0.00    -0.177 NA
HETATM   10  C   UNL     1      29.329  43.949  54.471  1.00  0.00     0.068 A 
HETATM   11  C   UNL     1      30.567  43.259  54.908  1.00  0.00     0.073 C 
ENDROOT
BRANCH   2  12
HETATM   12  S   UNL     1      24.882  44.032  50.651  1.00  0.00    -0.082 SA
BRANCH  12  13
HETATM   13  C   UNL     1      25.460  45.518  49.772  1.00  0.00     0.185 C 
BRANCH  13  14
HETATM   14  C   UNL     1      24.703  46.769  50.172  1.00  0.00     0.227 C 
HETATM   15  N   UNL     1      23.626  47.097  49.374  1.00  0.00    -0.360 N 
HETATM   16  H   UNL     1      23.442  46.509  48.570  1.00  0.00     0.162 HD
HETATM   17  O   UNL     1      25.100  47.485  51.090  1.00  0.00    -0.273 OA
BRANCH  15  18
HETATM   18  C   UNL     1      23.009  48.411  49.430  1.00  0.00     0.127 C 
BRANCH  18  19
HETATM   19  C   UNL     1      21.862  48.554  48.431  1.00  0.00     0.058 C 
BRANCH  19  20
HETATM   20  C   UNL     1      20.907  49.646  48.845  1.00  0.00    -0.057 A 
HETATM   21  C   UNL     1      19.947  49.412  49.839  1.00  0.00     0.007 A 
HETATM   22  C   UNL     1      19.036  50.408  50.193  1.00  0.00     0.001 A 
HETATM   23  C   UNL     1      19.073  51.645  49.555  1.00  0.00     0.000 A 
HETATM   24  C   UNL     1      20.021  51.890  48.564  1.00  0.00     0.001 A 
HETATM   25  C   UNL     1      20.934  50.895  48.208  1.00  0.00     0.007 A 
ENDBRANCH  19  20
ENDBRANCH  18  19
ENDBRANCH  15  18
ENDBRANCH  13  14
ENDBRANCH  12  13
ENDBRANCH   2  12
BRANCH   1  26
HETATM   26  C   UNL     1      26.925  41.711  50.572  1.00  0.00     0.043 A 
HETATM   27  C   UNL     1      26.203  40.536  50.810  1.00  0.00     0.032 A 
HETATM   28  C   UNL     1      26.094  39.561  49.816  1.00  0.00     0.026 A 
HETATM   29  C   UNL     1      26.717  39.741  48.579  1.00  0.00     0.040 A 
HETATM   30  C   UNL     1      27.453  40.906  48.315  1.00  0.00    -0.038 A 
HETATM   31 CL   UNL     1      26.565  38.485  47.404  1.00  0.00    -0.084 Cl
HETATM   32  C   UNL     1      28.147  41.127  46.999  1.00  0.00     0.050 C 
HETATM   33  C   UNL     1      27.545  41.885  49.321  1.00  0.00     0.038 A 
ENDBRANCH   1  26
BRANCH   6  34
HETATM   34  N   UNL     1      29.072  41.522  52.510  1.00  0.00    -0.384 N 
HETATM   35  H   UNL     1      29.138  40.891  53.295  1.00  0.00     0.157 HD
HETATM   36  H   UNL     1      29.628  41.318  51.688  1.00  0.00     0.157 HD
ENDBRANCH   6  34
TORSDOF 8
ENDMDL
MODEL 6
REMARK VINA RESULT:      -8.0      2.585      5.081
REMARK  8 active torsions:
REMARK  status: ('A' for Active; 'I' for Inactive)
REMARK    1  A    between atoms: C_7  and  N_8 
REMARK    2  A    between atoms: C_9  and  S_10 
REMARK    3  A    between atoms: S_10  and  C_11 
REMARK    4  A    between atoms: C_11  and  C_12 
REMARK       I    between atoms: C_12  and  N_13 
REMARK    5  A    between atoms: N_13  and  C_14 
REMARK    6  A    between atoms: C_14  and  C_15 
REMARK    7  A    between atoms: C_15  and  C_16 
REMARK    8  A    between atoms: C_26  and  N_27 
ROOT
HETATM    1  N   UNL     1      25.101  43.029  49.297  1.00  0.00    -0.276 N 
HETATM    2  C   UNL     1      26.145  43.794  49.884  1.00  0.00     0.177 A 
HETATM    3  N   UNL     1      27.263  43.317  50.376  1.00  0.00    -0.204 NA
HETATM    4  C   UNL     1      27.378  41.976  50.282  1.00  0.00     0.162 A 
HETATM    5  C   UNL     1      26.503  41.067  49.755  1.00  0.00     0.081 A 
HETATM    6  C   UNL     1      25.266  41.578  49.245  1.00  0.00     0.124 A 
HETATM    7  N   UNL     1      28.449  41.245  50.700  1.00  0.00    -0.260 N 
HETATM    8  H   UNL     1      29.297  41.581  51.146  1.00  0.00     0.191 HD
HETATM    9  N   UNL     1      28.313  39.923  50.457  1.00  0.00    -0.177 NA
HETATM   10  C   UNL     1      27.112  39.809  49.866  1.00  0.00     0.068 A 
HETATM   11  C   UNL     1      26.637  38.471  49.439  1.00  0.00     0.073 C 
ENDROOT
BRANCH   2  12
HETATM   12  S   UNL     1      26.029  45.571  49.943  1.00  0.00    -0.082 SA
BRANCH  12  13
HETATM   13  C   UNL     1      24.999  45.751  51.432  1.00  0.00     0.185 C 
BRANCH  13  14
HETATM   14  C   UNL     1      25.359  44.759  52.521  1.00  0.00     0.227 C 
HETATM   15  N   UNL     1      26.610  44.915  53.080  1.00  0.00    -0.360 N 
HETATM   16  H   UNL     1      27.204  45.647  52.707  1.00  0.00     0.162 HD
HETATM   17  O   UNL     1      24.612  43.824  52.800  1.00  0.00    -0.273 OA
BRANCH  15  18
HETATM   18  C   UNL     1      27.218  43.872  53.889  1.00  0.00     0.127 C 
BRANCH  18  19
HETATM   19  C   UNL     1      28.719  43.742  53.632  1.00  0.00     0.058 C 
BRANCH  19  20
HETATM   20  C   UNL     1      29.518  44.071  54.869  1.00  0.00    -0.057 A 
HETATM   21  C   UNL     1      30.529  43.206  55.311  1.00  0.00     0.007 A 
HETATM   22  C   UNL     1      31.241  43.488  56.478  1.00  0.00     0.001 A 
HETATM   23  C   UNL     1      30.948  44.633  57.215  1.00  0.00     0.000 A 
HETATM   24  C   UNL     1      29.944  45.499  56.785  1.00  0.00     0.001 A 
HETATM   25  C   UNL     1      29.231  45.220  55.618  1.00  0.00     0.007 A 
ENDBRANCH  19  20
ENDBRANCH  18  19
ENDBRANCH  15  18
ENDBRANCH  13  14
ENDBRANCH  12  13
ENDBRANCH   2  12
BRANCH   1  26
HETATM   26  C   UNL     1      23.932  43.635  48.750  1.00  0.00     0.043 A 
HETATM   27  C   UNL     1      22.818  43.917  49.548  1.00  0.00     0.032 A 
HETATM   28  C   UNL     1      21.653  44.432  48.976  1.00  0.00     0.026 A 
HETATM   29  C   UNL     1      21.582  44.658  47.600  1.00  0.00     0.040 A 
HETATM   30  C   UNL     1      22.682  44.378  46.775  1.00  0.00    -0.038 A 
HETATM   31 CL   UNL     1      20.103  45.272  46.954  1.00  0.00    -0.084 Cl
HETATM   32  C   UNL     1      22.635  44.598  45.287  1.00  0.00     0.050 C 
HETATM   33  C   UNL     1      23.852  43.870  47.365  1.00  0.00     0.038 A 
ENDBRANCH   1  26
BRANCH   6  34
HETATM   34  N   UNL     1      24.329  40.764  48.796  1.00  0.00    -0.384 N 
HETATM   35  H   UNL     1      24.414  39.761  48.871  1.00  0.00     0.157 HD
HETATM   36  H   UNL     1      23.477  41.140  48.398  1.00  0.00     0.157 HD
ENDBRANCH   6  34
TORSDOF 8
ENDMDL
MODEL 7
REMARK VINA RESULT:      -8.0      7.580     11.821
REMARK  8 active torsions:
REMARK  status: ('A' for Active; 'I' for Inactive)
REMARK    1  A    between atoms: C_7  and  N_8 
REMARK    2  A    between atoms: C_9  and  S_10 
REMARK    3  A    between atoms: S_10  and  C_11 
REMARK    4  A    between atoms: C_11  and  C_12 
REMARK       I    between atoms: C_12  and  N_13 
REMARK    5  A    between atoms: N_13  and  C_14 
REMARK    6  A    between atoms: C_14  and  C_15 
REMARK    7  A    between atoms: C_15  and  C_16 
REMARK    8  A    between atoms: C_26  and  N_27 
ROOT
HETATM    1  N   UNL     1      21.186  48.298  48.683  1.00  0.00    -0.276 N 
HETATM    2  C   UNL     1      20.147  48.994  49.359  1.00  0.00     0.177 A 
HETATM    3  N   UNL     1      18.895  48.614  49.439  1.00  0.00    -0.204 NA
HETATM    4  C   UNL     1      18.632  47.447  48.814  1.00  0.00     0.162 A 
HETATM    5  C   UNL     1      19.478  46.627  48.119  1.00  0.00     0.081 A 
HETATM    6  C   UNL     1      20.840  47.053  48.000  1.00  0.00     0.124 A 
HETATM    7  N   UNL     1      17.417  46.832  48.770  1.00  0.00    -0.260 N 
HETATM    8  H   UNL     1      16.543  47.149  49.178  1.00  0.00     0.191 HD
HETATM    9  N   UNL     1      17.444  45.658  48.100  1.00  0.00    -0.177 NA
HETATM   10  C   UNL     1      18.719  45.526  47.701  1.00  0.00     0.068 A 
HETATM   11  C   UNL     1      19.118  44.319  46.937  1.00  0.00     0.073 C 
ENDROOT
BRANCH   2  12
HETATM   12  S   UNL     1      20.506  50.495  50.248  1.00  0.00    -0.082 SA
BRANCH  12  13
HETATM   13  C   UNL     1      20.223  51.703  48.916  1.00  0.00     0.185 C 
BRANCH  13  14
HETATM   14  C   UNL     1      18.753  52.007  48.700  1.00  0.00     0.227 C 
HETATM   15  N   UNL     1      17.942  51.849  49.805  1.00  0.00    -0.360 N 
HETATM   16  H   UNL     1      18.371  51.513  50.658  1.00  0.00     0.162 HD
HETATM   17  O   UNL     1      18.318  52.278  47.582  1.00  0.00    -0.273 OA
BRANCH  15  18
HETATM   18  C   UNL     1      16.495  51.790  49.685  1.00  0.00     0.127 C 
BRANCH  18  19
HETATM   19  C   UNL     1      15.820  53.065  50.185  1.00  0.00     0.058 C 
BRANCH  19  20
HETATM   20  C   UNL     1      15.091  53.774  49.071  1.00  0.00    -0.057 A 
HETATM   21  C   UNL     1      14.496  55.024  49.293  1.00  0.00     0.007 A 
HETATM   22  C   UNL     1      13.785  55.661  48.275  1.00  0.00     0.001 A 
HETATM   23  C   UNL     1      13.659  55.055  47.027  1.00  0.00     0.000 A 
HETATM   24  C   UNL     1      14.245  53.812  46.795  1.00  0.00     0.001 A 
HETATM   25  C   UNL     1      14.956  53.173  47.811  1.00  0.00     0.007 A 
ENDBRANCH  19  20
ENDBRANCH  18  19
ENDBRANCH  15  18
ENDBRANCH  13  14
ENDBRANCH  12  13
ENDBRANCH   2  12
BRANCH   1  26
HETATM   26  C   UNL     1      22.533  48.765  48.678  1.00  0.00     0.043 A 
HETATM   27  C   UNL     1      22.932  49.824  47.854  1.00  0.00     0.032 A 
HETATM   28  C   UNL     1      24.273  50.210  47.802  1.00  0.00     0.026 A 
HETATM   29  C   UNL     1      25.232  49.535  48.560  1.00  0.00     0.040 A 
HETATM   30  C   UNL     1      24.862  48.465  49.389  1.00  0.00    -0.038 A 
HETATM   31 CL   UNL     1      26.876  50.047  48.428  1.00  0.00    -0.084 Cl
HETATM   32  C   UNL     1      25.871  47.708  50.208  1.00  0.00     0.050 C 
HETATM   33  C   UNL     1      23.507  48.094  49.440  1.00  0.00     0.038 A 
ENDBRANCH   1  26
BRANCH   6  34
HETATM   34  N   UNL     1      21.705  46.367  47.277  1.00  0.00    -0.384 N 
HETATM   35  H   UNL     1      22.004  45.440  47.542  1.00  0.00     0.157 HD
HETATM   36  H   UNL     1      22.058  46.749  46.408  1.00  0.00     0.157 HD
ENDBRANCH   6  34
TORSDOF 8
ENDMDL
MODEL 8
REMARK VINA RESULT:      -8.0      2.503      4.204
REMARK  8 active torsions:
REMARK  status: ('A' for Active; 'I' for Inactive)
REMARK    1  A    between atoms: C_7  and  N_8 
REMARK    2  A    between atoms: C_9  and  S_10 
REMARK    3  A    between atoms: S_10  and  C_11 
REMARK    4  A    between atoms: C_11  and  C_12 
REMARK       I    between atoms: C_12  and  N_13 
REMARK    5  A    between atoms: N_13  and  C_14 
REMARK    6  A    between atoms: C_14  and  C_15 
REMARK    7  A    between atoms: C_15  and  C_16 
REMARK    8  A    between atoms: C_26  and  N_27 
ROOT
HETATM    1  N   UNL     1      24.560  43.949  49.250  1.00  0.00    -0.276 N 
HETATM    2  C   UNL     1      25.002  45.211  49.733  1.00  0.00     0.177 A 
HETATM    3  N   UNL     1      24.330  46.334  49.670  1.00  0.00    -0.204 NA
HETATM    4  C   UNL     1      23.116  46.218  49.091  1.00  0.00     0.162 A 
HETATM    5  C   UNL     1      22.507  45.109  48.571  1.00  0.00     0.081 A 
HETATM    6  C   UNL     1      23.249  43.885  48.609  1.00  0.00     0.124 A 
HETATM    7  N   UNL     1      22.221  47.233  48.925  1.00  0.00    -0.260 N 
HETATM    8  H   UNL     1      22.327  48.207  49.189  1.00  0.00     0.191 HD
HETATM    9  N   UNL     1      21.070  46.830  48.341  1.00  0.00    -0.177 NA
HETATM   10  C   UNL     1      21.241  45.515  48.127  1.00  0.00     0.068 A 
HETATM   11  C   UNL     1      20.146  44.734  47.504  1.00  0.00     0.073 C 
ENDROOT
BRANCH   2  12
HETATM   12  S   UNL     1      26.572  45.353  50.563  1.00  0.00    -0.082 SA
BRANCH  12  13
HETATM   13  C   UNL     1      26.000  45.982  52.173  1.00  0.00     0.185 C 
BRANCH  13  14
HETATM   14  C   UNL     1      26.877  45.532  53.325  1.00  0.00     0.227 C 
HETATM   15  N   UNL     1      27.462  44.291  53.181  1.00  0.00    -0.360 N 
HETATM   16  H   UNL     1      27.241  43.762  52.346  1.00  0.00     0.162 HD
HETATM   17  O   UNL     1      26.965  46.200  54.354  1.00  0.00    -0.273 OA
BRANCH  15  18
HETATM   18  C   UNL     1      28.055  43.593  54.309  1.00  0.00     0.127 C 
BRANCH  18  19
HETATM   19  C   UNL     1      29.581  43.569  54.237  1.00  0.00     0.058 C 
BRANCH  19  20
HETATM   20  C   UNL     1      30.200  44.009  55.541  1.00  0.00    -0.057 A 
HETATM   21  C   UNL     1      31.155  43.207  56.180  1.00  0.00     0.007 A 
HETATM   22  C   UNL     1      31.697  43.593  57.407  1.00  0.00     0.001 A 
HETATM   23  C   UNL     1      31.287  44.781  58.008  1.00  0.00     0.000 A 
HETATM   24  C   UNL     1      30.337  45.586  57.382  1.00  0.00     0.001 A 
HETATM   25  C   UNL     1      29.794  45.203  56.155  1.00  0.00     0.007 A 
ENDBRANCH  19  20
ENDBRANCH  18  19
ENDBRANCH  15  18
ENDBRANCH  13  14
ENDBRANCH  12  13
ENDBRANCH   2  12
BRANCH   1  26
HETATM   26  C   UNL     1      25.342  42.766  49.396  1.00  0.00     0.043 A 
HETATM   27  C   UNL     1      25.320  42.022  50.581  1.00  0.00     0.032 A 
HETATM   28  C   UNL     1      26.157  40.914  50.735  1.00  0.00     0.026 A 
HETATM   29  C   UNL     1      27.036  40.546  49.714  1.00  0.00     0.040 A 
HETATM   30  C   UNL     1      27.085  41.278  48.518  1.00  0.00    -0.038 A 
HETATM   31 CL   UNL     1      28.062  39.183  49.980  1.00  0.00    -0.084 Cl
HETATM   32  C   UNL     1      28.028  40.918  47.404  1.00  0.00     0.050 C 
HETATM   33  C   UNL     1      26.229  42.384  48.372  1.00  0.00     0.038 A 
ENDBRANCH   1  26
BRANCH   6  34
HETATM   34  N   UNL     1      22.773  42.786  48.054  1.00  0.00    -0.384 N 
HETATM   35  H   UNL     1      21.795  42.542  48.109  1.00  0.00     0.157 HD
HETATM   36  H   UNL     1      23.385  42.179  47.523  1.00  0.00     0.157 HD
ENDBRANCH   6  34
TORSDOF 8
ENDMDL
MODEL 9
REMARK VINA RESULT:      -7.7      2.774      4.665
REMARK  8 active torsions:
REMARK  status: ('A' for Active; 'I' for Inactive)
REMARK    1  A    between atoms: C_7  and  N_8 
REMARK    2  A    between atoms: C_9  and  S_10 
REMARK    3  A    between atoms: S_10  and  C_11 
REMARK    4  A    between atoms: C_11  and  C_12 
REMARK       I    between atoms: C_12  and  N_13 
REMARK    5  A    between atoms: N_13  and  C_14 
REMARK    6  A    between atoms: C_14  and  C_15 
REMARK    7  A    between atoms: C_15  and  C_16 
REMARK    8  A    between atoms: C_26  and  N_27 
ROOT
HETATM    1  N   UNL     1      24.499  43.782  49.103  1.00  0.00    -0.276 N 
HETATM    2  C   UNL     1      24.867  45.056  49.616  1.00  0.00     0.177 A 
HETATM    3  N   UNL     1      24.155  46.153  49.529  1.00  0.00    -0.204 NA
HETATM    4  C   UNL     1      22.976  45.995  48.892  1.00  0.00     0.162 A 
HETATM    5  C   UNL     1      22.436  44.869  48.335  1.00  0.00     0.081 A 
HETATM    6  C   UNL     1      23.223  43.674  48.399  1.00  0.00     0.124 A 
HETATM    7  N   UNL     1      22.051  46.976  48.690  1.00  0.00    -0.260 N 
HETATM    8  H   UNL     1      22.106  47.951  48.967  1.00  0.00     0.191 HD
HETATM    9  N   UNL     1      20.945  46.534  48.050  1.00  0.00    -0.177 NA
HETATM   10  C   UNL     1      21.178  45.229  47.834  1.00  0.00     0.068 A 
HETATM   11  C   UNL     1      20.145  44.411  47.154  1.00  0.00     0.073 C 
ENDROOT
BRANCH   2  12
HETATM   12  S   UNL     1      26.389  45.251  50.521  1.00  0.00    -0.082 SA
BRANCH  12  13
HETATM   13  C   UNL     1      26.128  46.927  51.182  1.00  0.00     0.185 C 
BRANCH  13  14
HETATM   14  C   UNL     1      26.166  46.974  52.697  1.00  0.00     0.227 C 
HETATM   15  N   UNL     1      27.037  46.092  53.300  1.00  0.00    -0.360 N 
HETATM   16  H   UNL     1      27.556  45.460  52.702  1.00  0.00     0.162 HD
HETATM   17  O   UNL     1      25.390  47.689  53.329  1.00  0.00    -0.273 OA
BRANCH  15  18
HETATM   18  C   UNL     1      26.957  45.794  54.720  1.00  0.00     0.127 C 
BRANCH  18  19
HETATM   19  C   UNL     1      28.206  45.077  55.232  1.00  0.00     0.058 C 
BRANCH  19  20
HETATM   20  C   UNL     1      28.511  43.850  54.409  1.00  0.00    -0.057 A 
HETATM   21  C   UNL     1      27.565  42.823  54.288  1.00  0.00     0.007 A 
HETATM   22  C   UNL     1      27.862  41.669  53.561  1.00  0.00     0.001 A 
HETATM   23  C   UNL     1      29.107  41.529  52.952  1.00  0.00     0.000 A 
HETATM   24  C   UNL     1      30.056  42.543  53.067  1.00  0.00     0.001 A 
HETATM   25  C   UNL     1      29.761  43.699  53.793  1.00  0.00     0.007 A 
ENDBRANCH  19  20
ENDBRANCH  18  19
ENDBRANCH  15  18
ENDBRANCH  13  14
ENDBRANCH  12  13
ENDBRANCH   2  12
BRANCH   1  26
HETATM   26  C   UNL     1      25.319  42.629  49.278  1.00  0.00     0.043 A 
HETATM   27  C   UNL     1      25.248  41.857  50.443  1.00  0.00     0.032 A 
HETATM   28  C   UNL     1      26.120  40.781  50.630  1.00  0.00     0.026 A 
HETATM   29  C   UNL     1      27.080  40.474  49.664  1.00  0.00     0.040 A 
HETATM   30  C   UNL     1      27.179  41.236  48.490  1.00  0.00    -0.038 A 
HETATM   31 CL   UNL     1      28.143  39.149  49.971  1.00  0.00    -0.084 Cl
HETATM   32  C   UNL     1      28.210  40.941  47.436  1.00  0.00     0.050 C 
HETATM   33  C   UNL     1      26.288  42.309  48.309  1.00  0.00     0.038 A 
ENDBRANCH   1  26
BRANCH   6  34
HETATM   34  N   UNL     1      22.818  42.562  47.815  1.00  0.00    -0.384 N 
HETATM   35  H   UNL     1      23.180  41.658  48.081  1.00  0.00     0.157 HD
HETATM   36  H   UNL     1      22.096  42.595  47.106  1.00  0.00     0.157 HD
ENDBRANCH   6  34
TORSDOF 8
ENDMDL
MODEL 10
REMARK VINA RESULT:      -7.7     12.081     13.086
REMARK  8 active torsions:
REMARK  status: ('A' for Active; 'I' for Inactive)
REMARK    1  A    between atoms: C_7  and  N_8 
REMARK    2  A    between atoms: C_9  and  S_10 
REMARK    3  A    between atoms: S_10  and  C_11 
REMARK    4  A    between atoms: C_11  and  C_12 
REMARK       I    between atoms: C_12  and  N_13 
REMARK    5  A    between atoms: N_13  and  C_14 
REMARK    6  A    between atoms: C_14  and  C_15 
REMARK    7  A    between atoms: C_15  and  C_16 
REMARK    8  A    between atoms: C_26  and  N_27 
ROOT
HETATM    1  N   UNL     1      26.254  49.083  39.480  1.00  0.00    -0.276 N 
HETATM    2  C   UNL     1      26.436  47.782  40.024  1.00  0.00     0.177 A 
HETATM    3  N   UNL     1      25.649  46.752  39.829  1.00  0.00    -0.204 NA
HETATM    4  C   UNL     1      24.594  47.009  39.027  1.00  0.00     0.162 A 
HETATM    5  C   UNL     1      24.243  48.176  38.405  1.00  0.00     0.081 A 
HETATM    6  C   UNL     1      25.081  49.313  38.640  1.00  0.00     0.124 A 
HETATM    7  N   UNL     1      23.646  46.103  38.656  1.00  0.00    -0.260 N 
HETATM    8  H   UNL     1      23.577  45.127  38.926  1.00  0.00     0.191 HD
HETATM    9  N   UNL     1      22.718  46.622  37.822  1.00  0.00    -0.177 NA
HETATM   10  C   UNL     1      23.088  47.903  37.659  1.00  0.00     0.068 A 
HETATM   11  C   UNL     1      22.288  48.782  36.773  1.00  0.00     0.073 C 
ENDROOT
BRANCH   2  12
HETATM   12  S   UNL     1      27.866  47.420  41.022  1.00  0.00    -0.082 SA
BRANCH  12  13
HETATM   13  C   UNL     1      29.073  47.085  39.702  1.00  0.00     0.185 C 
BRANCH  13  14
HETATM   14  C   UNL     1      30.296  47.978  39.783  1.00  0.00     0.227 C 
HETATM   15  N   UNL     1      30.468  48.649  40.976  1.00  0.00    -0.360 N 
HETATM   16  H   UNL     1      29.759  48.528  41.689  1.00  0.00     0.162 HD
HETATM   17  O   UNL     1      31.018  48.156  38.803  1.00  0.00    -0.273 OA
BRANCH  15  18
HETATM   18  C   UNL     1      31.390  49.765  41.095  1.00  0.00     0.127 C 
BRANCH  18  19
HETATM   19  C   UNL     1      31.179  50.554  42.386  1.00  0.00     0.058 C 
BRANCH  19  20
HETATM   20  C   UNL     1      32.483  51.093  42.921  1.00  0.00    -0.057 A 
HETATM   21  C   UNL     1      33.675  50.900  42.210  1.00  0.00     0.007 A 
HETATM   22  C   UNL     1      34.889  51.361  42.724  1.00  0.00     0.001 A 
HETATM   23  C   UNL     1      34.922  52.015  43.953  1.00  0.00     0.000 A 
HETATM   24  C   UNL     1      33.743  52.212  44.669  1.00  0.00     0.001 A 
HETATM   25  C   UNL     1      32.528  51.752  44.157  1.00  0.00     0.007 A 
ENDBRANCH  19  20
ENDBRANCH  18  19
ENDBRANCH  15  18
ENDBRANCH  13  14
ENDBRANCH  12  13
ENDBRANCH   2  12
BRANCH   1  26
HETATM   26  C   UNL     1      27.184  50.138  39.713  1.00  0.00     0.043 A 
HETATM   27  C   UNL     1      27.138  50.901  40.885  1.00  0.00     0.032 A 
HETATM   28  C   UNL     1      28.004  51.985  41.055  1.00  0.00     0.026 A 
HETATM   29  C   UNL     1      28.914  52.327  40.052  1.00  0.00     0.040 A 
HETATM   30  C   UNL     1      28.976  51.583  38.864  1.00  0.00    -0.038 A 
HETATM   31 CL   UNL     1      29.935  53.693  40.317  1.00  0.00    -0.084 Cl
HETATM   32  C   UNL     1      29.934  51.932  37.759  1.00  0.00     0.050 C 
HETATM   33  C   UNL     1      28.107  50.488  38.710  1.00  0.00     0.038 A 
ENDBRANCH   1  26
BRANCH   6  34
HETATM   34  N   UNL     1      24.771  50.498  38.149  1.00  0.00    -0.384 N 
HETATM   35  H   UNL     1      23.876  50.930  38.326  1.00  0.00     0.157 HD
HETATM   36  H   UNL     1      25.452  51.019  37.609  1.00  0.00     0.157 HD
ENDBRANCH   6  34
TORSDOF 8
ENDMDL
