MODEL 1
REMARK VINA RESULT:      -9.4      0.000      0.000
REMARK  9 active torsions:
REMARK  status: ('A' for Active; 'I' for Inactive)
REMARK    1  A    between atoms: C_3  and  C_4 
REMARK    2  A    between atoms: C_4  and  O_5 
REMARK    3  A    between atoms: C_8  and  C_9 
REMARK    4  A    between atoms: C_9  and  O_10 
REMARK    5  A    between atoms: O_10  and  C_11 
REMARK    6  A    between atoms: C_11  and  C_12 
REMARK    7  A    between atoms: C_15  and  C_16 
REMARK    8  A    between atoms: C_16  and  N_17 
REMARK       I    between atoms: N_17  and  C_18 
REMARK       I    between atoms: C_18  and  N_19 
REMARK    9  A    between atoms: N_19  and  C_20 
ROOT
HETATM    1  C   UNL     1      26.480  46.728  50.083  1.00  0.00     0.293 C 
HETATM    2  O   UNL     1      27.238  46.118  49.347  1.00  0.00    -0.259 OA
ENDROOT
BRANCH   1   3
HETATM    3  O   UNL     1      26.368  46.564  51.424  1.00  0.00    -0.311 OA
BRANCH   3   4
HETATM    4  C   UNL     1      26.132  45.214  51.856  1.00  0.00     0.239 C 
BRANCH   4   5
HETATM    5  C   UNL     1      27.284  44.521  52.547  1.00  0.00     0.076 A 
HETATM    6  C   UNL     1      27.802  43.298  52.131  1.00  0.00     0.073 A 
HETATM    7  C   UNL     1      28.824  42.685  52.889  1.00  0.00    -0.031 A 
HETATM    8  C   UNL     1      29.357  41.324  52.515  1.00  0.00     0.050 C 
HETATM    9  C   UNL     1      29.351  43.383  54.012  1.00  0.00    -0.000 A 
HETATM   10  C   UNL     1      28.764  44.621  54.348  1.00  0.00     0.068 A 
HETATM   11  C   UNL     1      30.421  42.914  54.815  1.00  0.00     0.014 A 
HETATM   12  N   UNL     1      27.749  45.155  53.658  1.00  0.00    -0.249 NA
HETATM   13  C   UNL     1      29.238  45.328  55.444  1.00  0.00     0.032 A 
HETATM   14  C   UNL     1      30.288  44.853  56.230  1.00  0.00     0.002 A 
HETATM   15  C   UNL     1      30.883  43.642  55.913  1.00  0.00     0.001 A 
BRANCH   6  16
HETATM   16  C   UNL     1      27.222  42.653  50.940  1.00  0.00     0.295 C 
HETATM   17  O   UNL     1      27.565  42.896  49.797  1.00  0.00    -0.259 OA
BRANCH  16  18
HETATM   18  O   UNL     1      26.282  41.762  51.341  1.00  0.00    -0.322 OA
HETATM   19  C   UNL     1      25.861  40.868  50.310  1.00  0.00     0.213 C 
ENDBRANCH  16  18
ENDBRANCH   6  16
ENDBRANCH   4   5
ENDBRANCH   3   4
ENDBRANCH   1   3
BRANCH   1  20
HETATM   20  C   UNL     1      25.643  47.870  49.618  1.00  0.00     0.039 A 
HETATM   21  C   UNL     1      24.256  47.778  49.787  1.00  0.00     0.018 A 
HETATM   22  C   UNL     1      23.407  48.728  49.208  1.00  0.00     0.010 A 
HETATM   23  C   UNL     1      23.934  49.775  48.440  1.00  0.00    -0.040 A 
HETATM   24  C   UNL     1      25.327  49.904  48.332  1.00  0.00     0.010 A 
HETATM   25  C   UNL     1      26.177  48.957  48.915  1.00  0.00     0.018 A 
BRANCH  23  26
HETATM   26  C   UNL     1      23.017  50.714  47.702  1.00  0.00     0.162 C 
BRANCH  26  27
HETATM   27  N   UNL     1      21.995  51.267  48.556  1.00  0.00    -0.339 N 
HETATM   28  C   UNL     1      20.689  50.943  48.283  1.00  0.00     0.316 C 
HETATM   29  N   UNL     1      19.826  51.640  49.088  1.00  0.00    -0.339 N 
HETATM   30  O   UNL     1      20.354  50.141  47.423  1.00  0.00    -0.247 OA
HETATM   31  H   UNL     1      20.218  51.911  49.977  1.00  0.00     0.164 HD
HETATM   32  H   UNL     1      22.138  52.212  48.877  1.00  0.00     0.164 HD
BRANCH  29  33
HETATM   33  C   UNL     1      18.376  51.474  49.042  1.00  0.00     0.078 C 
HETATM   34  C   UNL     1      17.901  50.250  49.825  1.00  0.00     0.032 C 
HETATM   35  C   UNL     1      17.635  52.737  49.476  1.00  0.00     0.032 C 
ENDBRANCH  29  33
ENDBRANCH  26  27
ENDBRANCH  23  26
ENDBRANCH   1  20
TORSDOF 9
ENDMDL
MODEL 2
REMARK VINA RESULT:      -9.2      2.144      4.342
REMARK  9 active torsions:
REMARK  status: ('A' for Active; 'I' for Inactive)
REMARK    1  A    between atoms: C_3  and  C_4 
REMARK    2  A    between atoms: C_4  and  O_5 
REMARK    3  A    between atoms: C_8  and  C_9 
REMARK    4  A    between atoms: C_9  and  O_10 
REMARK    5  A    between atoms: O_10  and  C_11 
REMARK    6  A    between atoms: C_11  and  C_12 
REMARK    7  A    between atoms: C_15  and  C_16 
REMARK    8  A    between atoms: C_16  and  N_17 
REMARK       I    between atoms: N_17  and  C_18 
REMARK       I    between atoms: C_18  and  N_19 
REMARK    9  A    between atoms: N_19  and  C_20 
ROOT
HETATM    1  C   UNL     1      26.809  41.813  51.454  1.00  0.00     0.293 C 
HETATM    2  O   UNL     1      27.015  40.764  50.869  1.00  0.00    -0.259 OA
ENDROOT
BRANCH   1   3
HETATM    3  O   UNL     1      27.360  42.190  52.634  1.00  0.00    -0.311 OA
BRANCH   3   4
HETATM    4  C   UNL     1      28.296  43.279  52.550  1.00  0.00     0.239 C 
BRANCH   4   5
HETATM    5  C   UNL     1      28.590  44.009  53.840  1.00  0.00     0.076 A 
HETATM    6  C   UNL     1      27.837  45.087  54.298  1.00  0.00     0.073 A 
HETATM    7  C   UNL     1      28.238  45.762  55.472  1.00  0.00    -0.031 A 
HETATM    8  C   UNL     1      27.495  46.983  55.957  1.00  0.00     0.050 C 
HETATM    9  C   UNL     1      29.356  45.262  56.198  1.00  0.00    -0.000 A 
HETATM   10  C   UNL     1      30.048  44.159  55.655  1.00  0.00     0.068 A 
HETATM   11  C   UNL     1      29.819  45.802  57.423  1.00  0.00     0.014 A 
HETATM   12  N   UNL     1      29.695  43.574  54.504  1.00  0.00    -0.249 NA
HETATM   13  C   UNL     1      31.152  43.648  56.323  1.00  0.00     0.032 A 
HETATM   14  C   UNL     1      31.602  44.192  57.527  1.00  0.00     0.002 A 
HETATM   15  C   UNL     1      30.933  45.272  58.080  1.00  0.00     0.001 A 
BRANCH   6  16
HETATM   16  C   UNL     1      26.676  45.527  53.505  1.00  0.00     0.295 C 
HETATM   17  O   UNL     1      25.536  45.143  53.695  1.00  0.00    -0.259 OA
BRANCH  16  18
HETATM   18  O   UNL     1      27.096  46.414  52.570  1.00  0.00    -0.322 OA
HETATM   19  C   UNL     1      26.034  47.125  51.934  1.00  0.00     0.213 C 
ENDBRANCH  16  18
ENDBRANCH   6  16
ENDBRANCH   4   5
ENDBRANCH   3   4
ENDBRANCH   1   3
BRANCH   1  20
HETATM   20  C   UNL     1      26.004  42.923  50.870  1.00  0.00     0.039 A 
HETATM   21  C   UNL     1      24.669  43.050  51.276  1.00  0.00     0.018 A 
HETATM   22  C   UNL     1      23.814  43.950  50.630  1.00  0.00     0.010 A 
HETATM   23  C   UNL     1      24.279  44.724  49.559  1.00  0.00    -0.040 A 
HETATM   24  C   UNL     1      25.633  44.645  49.201  1.00  0.00     0.010 A 
HETATM   25  C   UNL     1      26.490  43.750  49.849  1.00  0.00     0.018 A 
BRANCH  23  26
HETATM   26  C   UNL     1      23.327  45.588  48.774  1.00  0.00     0.162 C 
BRANCH  26  27
HETATM   27  N   UNL     1      22.973  46.795  49.479  1.00  0.00    -0.339 N 
HETATM   28  C   UNL     1      22.537  47.865  48.737  1.00  0.00     0.316 C 
HETATM   29  N   UNL     1      22.365  48.975  49.523  1.00  0.00    -0.339 N 
HETATM   30  O   UNL     1      22.341  47.820  47.532  1.00  0.00    -0.247 OA
HETATM   31  H   UNL     1      22.153  48.771  50.488  1.00  0.00     0.164 HD
HETATM   32  H   UNL     1      23.543  47.036  50.275  1.00  0.00     0.164 HD
BRANCH  29  33
HETATM   33  C   UNL     1      21.876  50.252  49.009  1.00  0.00     0.078 C 
HETATM   34  C   UNL     1      20.979  50.982  50.008  1.00  0.00     0.032 C 
HETATM   35  C   UNL     1      23.010  51.149  48.516  1.00  0.00     0.032 C 
ENDBRANCH  29  33
ENDBRANCH  26  27
ENDBRANCH  23  26
ENDBRANCH   1  20
TORSDOF 9
ENDMDL
MODEL 3
REMARK VINA RESULT:      -9.2      1.412      1.894
REMARK  9 active torsions:
REMARK  status: ('A' for Active; 'I' for Inactive)
REMARK    1  A    between atoms: C_3  and  C_4 
REMARK    2  A    between atoms: C_4  and  O_5 
REMARK    3  A    between atoms: C_8  and  C_9 
REMARK    4  A    between atoms: C_9  and  O_10 
REMARK    5  A    between atoms: O_10  and  C_11 
REMARK    6  A    between atoms: C_11  and  C_12 
REMARK    7  A    between atoms: C_15  and  C_16 
REMARK    8  A    between atoms: C_16  and  N_17 
REMARK       I    between atoms: N_17  and  C_18 
REMARK       I    between atoms: C_18  and  N_19 
REMARK    9  A    between atoms: N_19  and  C_20 
ROOT
HETATM    1  C   UNL     1      26.007  47.521  49.967  1.00  0.00     0.293 C 
HETATM    2  O   UNL     1      26.971  47.152  49.318  1.00  0.00    -0.259 OA
ENDROOT
BRANCH   1   3
HETATM    3  O   UNL     1      25.882  47.456  51.315  1.00  0.00    -0.311 OA
BRANCH   3   4
HETATM    4  C   UNL     1      25.591  46.150  51.839  1.00  0.00     0.239 C 
BRANCH   4   5
HETATM    5  C   UNL     1      26.738  45.421  52.499  1.00  0.00     0.076 A 
HETATM    6  C   UNL     1      27.270  44.231  52.010  1.00  0.00     0.073 A 
HETATM    7  C   UNL     1      28.286  43.575  52.740  1.00  0.00    -0.031 A 
HETATM    8  C   UNL     1      28.833  42.244  52.285  1.00  0.00     0.050 C 
HETATM    9  C   UNL     1      28.795  44.202  53.912  1.00  0.00    -0.000 A 
HETATM   10  C   UNL     1      28.195  45.412  54.321  1.00  0.00     0.068 A 
HETATM   11  C   UNL     1      29.858  43.688  54.697  1.00  0.00     0.014 A 
HETATM   12  N   UNL     1      27.185  45.984  53.654  1.00  0.00    -0.249 NA
HETATM   13  C   UNL     1      28.651  46.049  55.466  1.00  0.00     0.032 A 
HETATM   14  C   UNL     1      29.695  45.530  56.233  1.00  0.00     0.002 A 
HETATM   15  C   UNL     1      30.302  44.346  55.846  1.00  0.00     0.001 A 
BRANCH   6  16
HETATM   16  C   UNL     1      26.709  43.660  50.773  1.00  0.00     0.295 C 
HETATM   17  O   UNL     1      27.135  43.899  49.657  1.00  0.00    -0.259 OA
BRANCH  16  18
HETATM   18  O   UNL     1      25.679  42.841  51.097  1.00  0.00    -0.322 OA
HETATM   19  C   UNL     1      25.639  41.636  50.331  1.00  0.00     0.213 C 
ENDBRANCH  16  18
ENDBRANCH   6  16
ENDBRANCH   4   5
ENDBRANCH   3   4
ENDBRANCH   1   3
BRANCH   1  20
HETATM   20  C   UNL     1      24.852  48.243  49.364  1.00  0.00     0.039 A 
HETATM   21  C   UNL     1      25.104  49.458  48.713  1.00  0.00     0.018 A 
HETATM   22  C   UNL     1      24.045  50.269  48.292  1.00  0.00     0.010 A 
HETATM   23  C   UNL     1      22.719  49.884  48.530  1.00  0.00    -0.040 A 
HETATM   24  C   UNL     1      22.470  48.635  49.118  1.00  0.00     0.010 A 
HETATM   25  C   UNL     1      23.528  47.821  49.535  1.00  0.00     0.018 A 
BRANCH  23  26
HETATM   26  C   UNL     1      21.585  50.819  48.204  1.00  0.00     0.162 C 
BRANCH  26  27
HETATM   27  N   UNL     1      20.433  50.125  47.683  1.00  0.00    -0.339 N 
HETATM   28  C   UNL     1      19.303  50.084  48.463  1.00  0.00     0.316 C 
HETATM   29  N   UNL     1      18.342  49.284  47.902  1.00  0.00    -0.339 N 
HETATM   30  O   UNL     1      19.189  50.682  49.523  1.00  0.00    -0.247 OA
HETATM   31  H   UNL     1      18.397  49.215  46.897  1.00  0.00     0.164 HD
HETATM   32  H   UNL     1      20.613  49.284  47.157  1.00  0.00     0.164 HD
BRANCH  29  33
HETATM   33  C   UNL     1      17.023  49.080  48.495  1.00  0.00     0.078 C 
HETATM   34  C   UNL     1      15.947  49.949  47.844  1.00  0.00     0.032 C 
HETATM   35  C   UNL     1      16.618  47.608  48.512  1.00  0.00     0.032 C 
ENDBRANCH  29  33
ENDBRANCH  26  27
ENDBRANCH  23  26
ENDBRANCH   1  20
TORSDOF 9
ENDMDL
MODEL 4
REMARK VINA RESULT:      -9.0      1.208      1.702
REMARK  9 active torsions:
REMARK  status: ('A' for Active; 'I' for Inactive)
REMARK    1  A    between atoms: C_3  and  C_4 
REMARK    2  A    between atoms: C_4  and  O_5 
REMARK    3  A    between atoms: C_8  and  C_9 
REMARK    4  A    between atoms: C_9  and  O_10 
REMARK    5  A    between atoms: O_10  and  C_11 
REMARK    6  A    between atoms: C_11  and  C_12 
REMARK    7  A    between atoms: C_15  and  C_16 
REMARK    8  A    between atoms: C_16  and  N_17 
REMARK       I    between atoms: N_17  and  C_18 
REMARK       I    between atoms: C_18  and  N_19 
REMARK    9  A    between atoms: N_19  and  C_20 
ROOT
HETATM    1  C   UNL     1      24.702  45.576  50.871  1.00  0.00     0.293 C 
HETATM    2  O   UNL     1      24.321  44.429  50.705  1.00  0.00    -0.259 OA
ENDROOT
BRANCH   1   3
HETATM    3  O   UNL     1      25.544  46.004  51.842  1.00  0.00    -0.311 OA
BRANCH   3   4
HETATM    4  C   UNL     1      25.556  45.203  53.036  1.00  0.00     0.239 C 
BRANCH   4   5
HETATM    5  C   UNL     1      26.912  44.925  53.643  1.00  0.00     0.076 A 
HETATM    6  C   UNL     1      27.842  44.059  53.074  1.00  0.00     0.073 A 
HETATM    7  C   UNL     1      29.050  43.795  53.756  1.00  0.00    -0.031 A 
HETATM    8  C   UNL     1      30.048  42.802  53.211  1.00  0.00     0.050 C 
HETATM    9  C   UNL     1      29.315  44.493  54.968  1.00  0.00    -0.000 A 
HETATM   10  C   UNL     1      28.312  45.357  55.458  1.00  0.00     0.068 A 
HETATM   11  C   UNL     1      30.514  44.373  55.714  1.00  0.00     0.014 A 
HETATM   12  N   UNL     1      27.143  45.542  54.833  1.00  0.00    -0.249 NA
HETATM   13  C   UNL     1      28.524  46.046  56.644  1.00  0.00     0.032 A 
HETATM   14  C   UNL     1      29.707  45.916  57.372  1.00  0.00     0.002 A 
HETATM   15  C   UNL     1      30.706  45.078  56.904  1.00  0.00     0.001 A 
BRANCH   6  16
HETATM   16  C   UNL     1      27.506  43.396  51.801  1.00  0.00     0.295 C 
HETATM   17  O   UNL     1      27.777  43.849  50.704  1.00  0.00    -0.259 OA
BRANCH  16  18
HETATM   18  O   UNL     1      26.874  42.228  52.071  1.00  0.00    -0.322 OA
HETATM   19  C   UNL     1      27.414  41.107  51.370  1.00  0.00     0.213 C 
ENDBRANCH  16  18
ENDBRANCH   6  16
ENDBRANCH   4   5
ENDBRANCH   3   4
ENDBRANCH   1   3
BRANCH   1  20
HETATM   20  C   UNL     1      24.394  46.678  49.916  1.00  0.00     0.039 A 
HETATM   21  C   UNL     1      25.264  47.775  49.877  1.00  0.00     0.018 A 
HETATM   22  C   UNL     1      24.932  48.918  49.142  1.00  0.00     0.010 A 
HETATM   23  C   UNL     1      23.717  48.985  48.447  1.00  0.00    -0.040 A 
HETATM   24  C   UNL     1      22.881  47.858  48.431  1.00  0.00     0.010 A 
HETATM   25  C   UNL     1      23.215  46.713  49.162  1.00  0.00     0.018 A 
BRANCH  23  26
HETATM   26  C   UNL     1      23.295  50.263  47.772  1.00  0.00     0.162 C 
BRANCH  26  27
HETATM   27  N   UNL     1      22.297  50.979  48.527  1.00  0.00    -0.339 N 
HETATM   28  C   UNL     1      20.983  50.830  48.155  1.00  0.00     0.316 C 
HETATM   29  N   UNL     1      20.167  51.666  48.872  1.00  0.00    -0.339 N 
HETATM   30  O   UNL     1      20.608  50.055  47.288  1.00  0.00    -0.247 OA
HETATM   31  H   UNL     1      20.522  51.909  49.784  1.00  0.00     0.164 HD
HETATM   32  H   UNL     1      22.545  51.905  48.839  1.00  0.00     0.164 HD
BRANCH  29  33
HETATM   33  C   UNL     1      18.716  51.701  48.711  1.00  0.00     0.078 C 
HETATM   34  C   UNL     1      18.004  52.280  49.933  1.00  0.00     0.032 C 
HETATM   35  C   UNL     1      18.293  52.412  47.428  1.00  0.00     0.032 C 
ENDBRANCH  29  33
ENDBRANCH  26  27
ENDBRANCH  23  26
ENDBRANCH   1  20
TORSDOF 9
ENDMDL
MODEL 5
REMARK VINA RESULT:      -8.8      3.219      5.574
REMARK  9 active torsions:
REMARK  status: ('A' for Active; 'I' for Inactive)
REMARK    1  A    between atoms: C_3  and  C_4 
REMARK    2  A    between atoms: C_4  and  O_5 
REMARK    3  A    between atoms: C_8  and  C_9 
REMARK    4  A    between atoms: C_9  and  O_10 
REMARK    5  A    between atoms: O_10  and  C_11 
REMARK    6  A    between atoms: C_11  and  C_12 
REMARK    7  A    between atoms: C_15  and  C_16 
REMARK    8  A    between atoms: C_16  and  N_17 
REMARK       I    between atoms: N_17  and  C_18 
REMARK       I    between atoms: C_18  and  N_19 
REMARK    9  A    between atoms: N_19  and  C_20 
ROOT
HETATM    1  C   UNL     1      22.291  49.894  49.406  1.00  0.00     0.293 C 
HETATM    2  O   UNL     1      23.189  50.711  49.507  1.00  0.00    -0.259 OA
ENDROOT
BRANCH   1   3
HETATM    3  O   UNL     1      22.430  48.546  49.454  1.00  0.00    -0.311 OA
BRANCH   3   4
HETATM    4  C   UNL     1      23.756  48.059  49.189  1.00  0.00     0.239 C 
BRANCH   4   5
HETATM    5  C   UNL     1      24.303  47.041  50.162  1.00  0.00     0.076 A 
HETATM    6  C   UNL     1      24.124  45.669  50.014  1.00  0.00     0.073 A 
HETATM    7  C   UNL     1      24.598  44.796  51.019  1.00  0.00    -0.031 A 
HETATM    8  C   UNL     1      24.354  43.310  50.934  1.00  0.00     0.050 C 
HETATM    9  C   UNL     1      25.323  45.347  52.113  1.00  0.00    -0.000 A 
HETATM   10  C   UNL     1      25.459  46.751  52.168  1.00  0.00     0.068 A 
HETATM   11  C   UNL     1      25.911  44.580  53.150  1.00  0.00     0.014 A 
HETATM   12  N   UNL     1      24.942  47.568  51.242  1.00  0.00    -0.249 NA
HETATM   13  C   UNL     1      26.146  47.331  53.225  1.00  0.00     0.032 A 
HETATM   14  C   UNL     1      26.715  46.565  54.243  1.00  0.00     0.002 A 
HETATM   15  C   UNL     1      26.599  45.185  54.205  1.00  0.00     0.001 A 
BRANCH   6  16
HETATM   16  C   UNL     1      23.387  45.174  48.838  1.00  0.00     0.295 C 
HETATM   17  O   UNL     1      23.918  44.823  47.799  1.00  0.00    -0.259 OA
BRANCH  16  18
HETATM   18  O   UNL     1      22.062  45.169  49.122  1.00  0.00    -0.322 OA
HETATM   19  C   UNL     1      21.231  45.433  47.991  1.00  0.00     0.213 C 
ENDBRANCH  16  18
ENDBRANCH   6  16
ENDBRANCH   4   5
ENDBRANCH   3   4
ENDBRANCH   1   3
BRANCH   1  20
HETATM   20  C   UNL     1      20.851  50.274  49.352  1.00  0.00     0.039 A 
HETATM   21  C   UNL     1      20.522  51.530  48.827  1.00  0.00     0.018 A 
HETATM   22  C   UNL     1      19.214  52.017  48.920  1.00  0.00     0.010 A 
HETATM   23  C   UNL     1      18.219  51.260  49.552  1.00  0.00    -0.040 A 
HETATM   24  C   UNL     1      18.535  49.973  50.013  1.00  0.00     0.010 A 
HETATM   25  C   UNL     1      19.842  49.483  49.917  1.00  0.00     0.018 A 
BRANCH  23  26
HETATM   26  C   UNL     1      16.848  51.840  49.776  1.00  0.00     0.162 C 
BRANCH  26  27
HETATM   27  N   UNL     1      16.820  53.270  49.589  1.00  0.00    -0.339 N 
HETATM   28  C   UNL     1      15.730  53.956  50.066  1.00  0.00     0.316 C 
HETATM   29  N   UNL     1      15.779  55.277  49.702  1.00  0.00    -0.339 N 
HETATM   30  O   UNL     1      14.836  53.441  50.721  1.00  0.00    -0.247 OA
HETATM   31  H   UNL     1      16.711  55.632  49.556  1.00  0.00     0.164 HD
HETATM   32  H   UNL     1      17.190  53.618  48.718  1.00  0.00     0.164 HD
BRANCH  29  33
HETATM   33  C   UNL     1      14.768  56.255  50.098  1.00  0.00     0.078 C 
HETATM   34  C   UNL     1      15.382  57.550  50.630  1.00  0.00     0.032 C 
HETATM   35  C   UNL     1      13.762  56.530  48.983  1.00  0.00     0.032 C 
ENDBRANCH  29  33
ENDBRANCH  26  27
ENDBRANCH  23  26
ENDBRANCH   1  20
TORSDOF 9
ENDMDL
MODEL 6
REMARK VINA RESULT:      -8.7      1.957      3.007
REMARK  9 active torsions:
REMARK  status: ('A' for Active; 'I' for Inactive)
REMARK    1  A    between atoms: C_3  and  C_4 
REMARK    2  A    between atoms: C_4  and  O_5 
REMARK    3  A    between atoms: C_8  and  C_9 
REMARK    4  A    between atoms: C_9  and  O_10 
REMARK    5  A    between atoms: O_10  and  C_11 
REMARK    6  A    between atoms: C_11  and  C_12 
REMARK    7  A    between atoms: C_15  and  C_16 
REMARK    8  A    between atoms: C_16  and  N_17 
REMARK       I    between atoms: N_17  and  C_18 
REMARK       I    between atoms: C_18  and  N_19 
REMARK    9  A    between atoms: N_19  and  C_20 
ROOT
HETATM    1  C   UNL     1      26.102  44.137  49.576  1.00  0.00     0.293 C 
HETATM    2  O   UNL     1      25.568  43.278  48.895  1.00  0.00    -0.259 OA
ENDROOT
BRANCH   1   3
HETATM    3  O   UNL     1      27.269  44.008  50.252  1.00  0.00    -0.311 OA
BRANCH   3   4
HETATM    4  C   UNL     1      27.153  43.437  51.567  1.00  0.00     0.239 C 
BRANCH   4   5
HETATM    5  C   UNL     1      27.496  44.346  52.725  1.00  0.00     0.076 A 
HETATM    6  C   UNL     1      28.571  44.121  53.580  1.00  0.00     0.073 A 
HETATM    7  C   UNL     1      28.765  44.977  54.687  1.00  0.00    -0.031 A 
HETATM    8  C   UNL     1      29.871  44.721  55.681  1.00  0.00     0.050 C 
HETATM    9  C   UNL     1      27.900  46.097  54.842  1.00  0.00    -0.000 A 
HETATM   10  C   UNL     1      26.845  46.242  53.916  1.00  0.00     0.068 A 
HETATM   11  C   UNL     1      28.027  47.069  55.866  1.00  0.00     0.014 A 
HETATM   12  N   UNL     1      26.635  45.381  52.913  1.00  0.00    -0.249 NA
HETATM   13  C   UNL     1      25.970  47.312  54.040  1.00  0.00     0.032 A 
HETATM   14  C   UNL     1      26.102  48.260  55.055  1.00  0.00     0.002 A 
HETATM   15  C   UNL     1      27.135  48.139  55.971  1.00  0.00     0.001 A 
BRANCH   6  16
HETATM   16  C   UNL     1      29.439  42.956  53.336  1.00  0.00     0.295 C 
HETATM   17  O   UNL     1      30.444  42.987  52.646  1.00  0.00    -0.259 OA
BRANCH  16  18
HETATM   18  O   UNL     1      28.938  41.890  54.005  1.00  0.00    -0.322 OA
HETATM   19  C   UNL     1      28.676  40.760  53.172  1.00  0.00     0.213 C 
ENDBRANCH  16  18
ENDBRANCH   6  16
ENDBRANCH   4   5
ENDBRANCH   3   4
ENDBRANCH   1   3
BRANCH   1  20
HETATM   20  C   UNL     1      25.600  45.538  49.652  1.00  0.00     0.039 A 
HETATM   21  C   UNL     1      24.220  45.749  49.539  1.00  0.00     0.018 A 
HETATM   22  C   UNL     1      23.708  47.045  49.417  1.00  0.00     0.010 A 
HETATM   23  C   UNL     1      24.572  48.148  49.391  1.00  0.00    -0.040 A 
HETATM   24  C   UNL     1      25.947  47.939  49.575  1.00  0.00     0.010 A 
HETATM   25  C   UNL     1      26.459  46.644  49.702  1.00  0.00     0.018 A 
BRANCH  23  26
HETATM   26  C   UNL     1      24.035  49.529  49.120  1.00  0.00     0.162 C 
BRANCH  26  27
HETATM   27  N   UNL     1      22.682  49.694  49.591  1.00  0.00    -0.339 N 
HETATM   28  C   UNL     1      21.831  50.462  48.835  1.00  0.00     0.316 C 
HETATM   29  N   UNL     1      20.628  50.638  49.468  1.00  0.00    -0.339 N 
HETATM   30  O   UNL     1      22.126  50.929  47.744  1.00  0.00    -0.247 OA
HETATM   31  H   UNL     1      20.382  49.894  50.104  1.00  0.00     0.164 HD
HETATM   32  H   UNL     1      22.560  49.784  50.588  1.00  0.00     0.164 HD
BRANCH  29  33
HETATM   33  C   UNL     1      19.517  51.384  48.884  1.00  0.00     0.078 C 
HETATM   34  C   UNL     1      18.710  50.552  47.887  1.00  0.00     0.032 C 
HETATM   35  C   UNL     1      18.617  52.009  49.948  1.00  0.00     0.032 C 
ENDBRANCH  29  33
ENDBRANCH  26  27
ENDBRANCH  23  26
ENDBRANCH   1  20
TORSDOF 9
ENDMDL
MODEL 7
REMARK VINA RESULT:      -8.7      2.302     10.109
REMARK  9 active torsions:
REMARK  status: ('A' for Active; 'I' for Inactive)
REMARK    1  A    between atoms: C_3  and  C_4 
REMARK    2  A    between atoms: C_4  and  O_5 
REMARK    3  A    between atoms: C_8  and  C_9 
REMARK    4  A    between atoms: C_9  and  O_10 
REMARK    5  A    between atoms: O_10  and  C_11 
REMARK    6  A    between atoms: C_11  and  C_12 
REMARK    7  A    between atoms: C_15  and  C_16 
REMARK    8  A    between atoms: C_16  and  N_17 
REMARK       I    between atoms: N_17  and  C_18 
REMARK       I    between atoms: C_18  and  N_19 
REMARK    9  A    between atoms: N_19  and  C_20 
ROOT
HETATM    1  C   UNL     1      25.859  48.454  49.624  1.00  0.00     0.293 C 
HETATM    2  O   UNL     1      26.804  49.028  49.111  1.00  0.00    -0.259 OA
ENDROOT
BRANCH   1   3
HETATM    3  O   UNL     1      24.576  48.891  49.646  1.00  0.00    -0.311 OA
BRANCH   3   4
HETATM    4  C   UNL     1      23.784  48.513  48.508  1.00  0.00     0.239 C 
BRANCH   4   5
HETATM    5  C   UNL     1      22.287  48.664  48.653  1.00  0.00     0.076 A 
HETATM    6  C   UNL     1      21.380  47.671  48.294  1.00  0.00     0.073 A 
HETATM    7  C   UNL     1      19.995  47.932  48.386  1.00  0.00    -0.031 A 
HETATM    8  C   UNL     1      18.981  46.911  47.932  1.00  0.00     0.050 C 
HETATM    9  C   UNL     1      19.572  49.179  48.928  1.00  0.00    -0.000 A 
HETATM   10  C   UNL     1      20.569  50.116  49.271  1.00  0.00     0.068 A 
HETATM   11  C   UNL     1      18.218  49.540  49.139  1.00  0.00     0.014 A 
HETATM   12  N   UNL     1      21.877  49.877  49.111  1.00  0.00    -0.249 NA
HETATM   13  C   UNL     1      20.200  51.349  49.788  1.00  0.00     0.032 A 
HETATM   14  C   UNL     1      18.863  51.695  49.986  1.00  0.00     0.002 A 
HETATM   15  C   UNL     1      17.868  50.787  49.662  1.00  0.00     0.001 A 
BRANCH   6  16
HETATM   16  C   UNL     1      21.898  46.395  47.769  1.00  0.00     0.295 C 
HETATM   17  O   UNL     1      22.190  46.207  46.602  1.00  0.00    -0.259 OA
BRANCH  16  18
HETATM   18  O   UNL     1      21.996  45.510  48.791  1.00  0.00    -0.322 OA
HETATM   19  C   UNL     1      23.272  44.874  48.880  1.00  0.00     0.213 C 
ENDBRANCH  16  18
ENDBRANCH   6  16
ENDBRANCH   4   5
ENDBRANCH   3   4
ENDBRANCH   1   3
BRANCH   1  20
HETATM   20  C   UNL     1      25.959  47.082  50.199  1.00  0.00     0.039 A 
HETATM   21  C   UNL     1      25.331  46.837  51.427  1.00  0.00     0.018 A 
HETATM   22  C   UNL     1      25.543  45.632  52.104  1.00  0.00     0.010 A 
HETATM   23  C   UNL     1      26.399  44.659  51.568  1.00  0.00    -0.040 A 
HETATM   24  C   UNL     1      26.970  44.879  50.306  1.00  0.00     0.010 A 
HETATM   25  C   UNL     1      26.755  46.082  49.626  1.00  0.00     0.018 A 
BRANCH  23  26
HETATM   26  C   UNL     1      26.737  43.424  52.360  1.00  0.00     0.162 C 
BRANCH  26  27
HETATM   27  N   UNL     1      28.071  43.469  52.904  1.00  0.00    -0.339 N 
HETATM   28  C   UNL     1      28.214  43.837  54.220  1.00  0.00     0.316 C 
HETATM   29  N   UNL     1      29.536  43.963  54.558  1.00  0.00    -0.339 N 
HETATM   30  O   UNL     1      27.273  44.032  54.976  1.00  0.00    -0.247 OA
HETATM   31  H   UNL     1      30.160  43.390  54.010  1.00  0.00     0.164 HD
HETATM   32  H   UNL     1      28.797  43.805  52.290  1.00  0.00     0.164 HD
BRANCH  29  33
HETATM   33  C   UNL     1      29.989  44.311  55.902  1.00  0.00     0.078 C 
HETATM   34  C   UNL     1      31.277  43.587  56.293  1.00  0.00     0.032 C 
HETATM   35  C   UNL     1      30.115  45.821  56.097  1.00  0.00     0.032 C 
ENDBRANCH  29  33
ENDBRANCH  26  27
ENDBRANCH  23  26
ENDBRANCH   1  20
TORSDOF 9
ENDMDL
MODEL 8
REMARK VINA RESULT:      -8.5      3.860      6.853
REMARK  9 active torsions:
REMARK  status: ('A' for Active; 'I' for Inactive)
REMARK    1  A    between atoms: C_3  and  C_4 
REMARK    2  A    between atoms: C_4  and  O_5 
REMARK    3  A    between atoms: C_8  and  C_9 
REMARK    4  A    between atoms: C_9  and  O_10 
REMARK    5  A    between atoms: O_10  and  C_11 
REMARK    6  A    between atoms: C_11  and  C_12 
REMARK    7  A    between atoms: C_15  and  C_16 
REMARK    8  A    between atoms: C_16  and  N_17 
REMARK       I    between atoms: N_17  and  C_18 
REMARK       I    between atoms: C_18  and  N_19 
REMARK    9  A    between atoms: N_19  and  C_20 
ROOT
HETATM    1  C   UNL     1      22.148  50.260  49.571  1.00  0.00     0.293 C 
HETATM    2  O   UNL     1      22.961  51.052  50.015  1.00  0.00    -0.259 OA
ENDROOT
BRANCH   1   3
HETATM    3  O   UNL     1      22.365  48.944  49.332  1.00  0.00    -0.311 OA
BRANCH   3   4
HETATM    4  C   UNL     1      23.748  48.560  49.241  1.00  0.00     0.239 C 
BRANCH   4   5
HETATM    5  C   UNL     1      24.031  47.076  49.209  1.00  0.00     0.076 A 
HETATM    6  C   UNL     1      25.239  46.519  49.620  1.00  0.00     0.073 A 
HETATM    7  C   UNL     1      25.445  45.129  49.475  1.00  0.00    -0.031 A 
HETATM    8  C   UNL     1      26.768  44.499  49.835  1.00  0.00     0.050 C 
HETATM    9  C   UNL     1      24.372  44.328  48.991  1.00  0.00    -0.000 A 
HETATM   10  C   UNL     1      23.184  44.987  48.609  1.00  0.00     0.068 A 
HETATM   11  C   UNL     1      24.422  42.918  48.864  1.00  0.00     0.014 A 
HETATM   12  N   UNL     1      23.031  46.315  48.689  1.00  0.00    -0.249 NA
HETATM   13  C   UNL     1      22.119  44.245  48.119  1.00  0.00     0.032 A 
HETATM   14  C   UNL     1      22.182  42.857  47.993  1.00  0.00     0.002 A 
HETATM   15  C   UNL     1      23.337  42.191  48.368  1.00  0.00     0.001 A 
BRANCH   6  16
HETATM   16  C   UNL     1      26.290  47.412  50.138  1.00  0.00     0.295 C 
HETATM   17  O   UNL     1      26.370  47.770  51.300  1.00  0.00    -0.259 OA
BRANCH  16  18
HETATM   18  O   UNL     1      27.127  47.737  49.122  1.00  0.00    -0.322 OA
HETATM   19  C   UNL     1      27.528  49.107  49.124  1.00  0.00     0.213 C 
ENDBRANCH  16  18
ENDBRANCH   6  16
ENDBRANCH   4   5
ENDBRANCH   3   4
ENDBRANCH   1   3
BRANCH   1  20
HETATM   20  C   UNL     1      20.715  50.606  49.352  1.00  0.00     0.039 A 
HETATM   21  C   UNL     1      20.423  51.715  48.547  1.00  0.00     0.018 A 
HETATM   22  C   UNL     1      19.113  52.198  48.455  1.00  0.00     0.010 A 
HETATM   23  C   UNL     1      18.080  51.588  49.179  1.00  0.00    -0.040 A 
HETATM   24  C   UNL     1      18.363  50.437  49.928  1.00  0.00     0.010 A 
HETATM   25  C   UNL     1      19.672  49.949  50.017  1.00  0.00     0.018 A 
BRANCH  23  26
HETATM   26  C   UNL     1      16.700  52.191  49.191  1.00  0.00     0.162 C 
BRANCH  26  27
HETATM   27  N   UNL     1      16.454  52.975  50.376  1.00  0.00    -0.339 N 
HETATM   28  C   UNL     1      15.463  53.924  50.321  1.00  0.00     0.316 C 
HETATM   29  N   UNL     1      15.432  54.675  51.468  1.00  0.00    -0.339 N 
HETATM   30  O   UNL     1      14.719  54.074  49.363  1.00  0.00    -0.247 OA
HETATM   31  H   UNL     1      15.778  54.196  52.285  1.00  0.00     0.164 HD
HETATM   32  H   UNL     1      17.262  53.238  50.918  1.00  0.00     0.164 HD
BRANCH  29  33
HETATM   33  C   UNL     1      14.458  55.738  51.703  1.00  0.00     0.078 C 
HETATM   34  C   UNL     1      13.805  55.640  53.082  1.00  0.00     0.032 C 
HETATM   35  C   UNL     1      15.047  57.126  51.460  1.00  0.00     0.032 C 
ENDBRANCH  29  33
ENDBRANCH  26  27
ENDBRANCH  23  26
ENDBRANCH   1  20
TORSDOF 9
ENDMDL
MODEL 9
REMARK VINA RESULT:      -8.3      2.448     10.882
REMARK  9 active torsions:
REMARK  status: ('A' for Active; 'I' for Inactive)
REMARK    1  A    between atoms: C_3  and  C_4 
REMARK    2  A    between atoms: C_4  and  O_5 
REMARK    3  A    between atoms: C_8  and  C_9 
REMARK    4  A    between atoms: C_9  and  O_10 
REMARK    5  A    between atoms: O_10  and  C_11 
REMARK    6  A    between atoms: C_11  and  C_12 
REMARK    7  A    between atoms: C_15  and  C_16 
REMARK    8  A    between atoms: C_16  and  N_17 
REMARK       I    between atoms: N_17  and  C_18 
REMARK       I    between atoms: C_18  and  N_19 
REMARK    9  A    between atoms: N_19  and  C_20 
ROOT
HETATM    1  C   UNL     1      24.852  47.533  49.966  1.00  0.00     0.293 C 
HETATM    2  O   UNL     1      25.265  48.651  49.711  1.00  0.00    -0.259 OA
ENDROOT
BRANCH   1   3
HETATM    3  O   UNL     1      23.651  47.023  49.598  1.00  0.00    -0.311 OA
BRANCH   3   4
HETATM    4  C   UNL     1      23.010  47.700  48.504  1.00  0.00     0.239 C 
BRANCH   4   5
HETATM    5  C   UNL     1      21.538  48.000  48.672  1.00  0.00     0.076 A 
HETATM    6  C   UNL     1      21.055  49.223  49.128  1.00  0.00     0.073 A 
HETATM    7  C   UNL     1      19.667  49.385  49.335  1.00  0.00    -0.031 A 
HETATM    8  C   UNL     1      19.111  50.668  49.903  1.00  0.00     0.050 C 
HETATM    9  C   UNL     1      18.796  48.314  48.986  1.00  0.00    -0.000 A 
HETATM   10  C   UNL     1      19.384  47.117  48.523  1.00  0.00     0.068 A 
HETATM   11  C   UNL     1      17.383  48.370  49.078  1.00  0.00     0.014 A 
HETATM   12  N   UNL     1      20.708  46.958  48.399  1.00  0.00    -0.249 NA
HETATM   13  C   UNL     1      18.573  46.043  48.186  1.00  0.00     0.032 A 
HETATM   14  C   UNL     1      17.183  46.108  48.286  1.00  0.00     0.002 A 
HETATM   15  C   UNL     1      16.586  47.276  48.732  1.00  0.00     0.001 A 
BRANCH   6  16
HETATM   16  C   UNL     1      22.018  50.294  49.440  1.00  0.00     0.295 C 
HETATM   17  O   UNL     1      22.534  50.450  50.532  1.00  0.00    -0.259 OA
BRANCH  16  18
HETATM   18  O   UNL     1      22.223  51.035  48.324  1.00  0.00    -0.322 OA
HETATM   19  C   UNL     1      23.594  51.119  47.934  1.00  0.00     0.213 C 
ENDBRANCH  16  18
ENDBRANCH   6  16
ENDBRANCH   4   5
ENDBRANCH   3   4
ENDBRANCH   1   3
BRANCH   1  20
HETATM   20  C   UNL     1      25.690  46.489  50.621  1.00  0.00     0.039 A 
HETATM   21  C   UNL     1      26.669  45.852  49.847  1.00  0.00     0.018 A 
HETATM   22  C   UNL     1      27.357  44.742  50.349  1.00  0.00     0.010 A 
HETATM   23  C   UNL     1      27.065  44.245  51.626  1.00  0.00    -0.040 A 
HETATM   24  C   UNL     1      26.135  44.927  52.424  1.00  0.00     0.010 A 
HETATM   25  C   UNL     1      25.450  46.040  51.926  1.00  0.00     0.018 A 
BRANCH  23  26
HETATM   26  C   UNL     1      27.703  42.970  52.111  1.00  0.00     0.162 C 
BRANCH  26  27
HETATM   27  N   UNL     1      28.942  43.207  52.809  1.00  0.00    -0.339 N 
HETATM   28  C   UNL     1      28.880  43.449  54.159  1.00  0.00     0.316 C 
HETATM   29  N   UNL     1      30.111  43.786  54.660  1.00  0.00    -0.339 N 
HETATM   30  O   UNL     1      27.851  43.378  54.815  1.00  0.00    -0.247 OA
HETATM   31  H   UNL     1      30.887  43.406  54.140  1.00  0.00     0.164 HD
HETATM   32  H   UNL     1      29.643  43.740  52.316  1.00  0.00     0.164 HD
BRANCH  29  33
HETATM   33  C   UNL     1      30.352  44.064  56.073  1.00  0.00     0.078 C 
HETATM   34  C   UNL     1      31.586  43.340  56.611  1.00  0.00     0.032 C 
HETATM   35  C   UNL     1      30.411  45.562  56.365  1.00  0.00     0.032 C 
ENDBRANCH  29  33
ENDBRANCH  26  27
ENDBRANCH  23  26
ENDBRANCH   1  20
TORSDOF 9
ENDMDL
MODEL 10
REMARK VINA RESULT:      -8.2      3.790      5.995
REMARK  9 active torsions:
REMARK  status: ('A' for Active; 'I' for Inactive)
REMARK    1  A    between atoms: C_3  and  C_4 
REMARK    2  A    between atoms: C_4  and  O_5 
REMARK    3  A    between atoms: C_8  and  C_9 
REMARK    4  A    between atoms: C_9  and  O_10 
REMARK    5  A    between atoms: O_10  and  C_11 
REMARK    6  A    between atoms: C_11  and  C_12 
REMARK    7  A    between atoms: C_15  and  C_16 
REMARK    8  A    between atoms: C_16  and  N_17 
REMARK       I    between atoms: N_17  and  C_18 
REMARK       I    between atoms: C_18  and  N_19 
REMARK    9  A    between atoms: N_19  and  C_20 
ROOT
HETATM    1  C   UNL     1      28.417  40.504  51.589  1.00  0.00     0.293 C 
HETATM    2  O   UNL     1      29.188  39.568  51.463  1.00  0.00    -0.259 OA
ENDROOT
BRANCH   1   3
HETATM    3  O   UNL     1      28.352  41.348  52.648  1.00  0.00    -0.311 OA
BRANCH   3   4
HETATM    4  C   UNL     1      29.187  42.514  52.551  1.00  0.00     0.239 C 
BRANCH   4   5
HETATM    5  C   UNL     1      29.218  43.418  53.761  1.00  0.00     0.076 A 
HETATM    6  C   UNL     1      28.310  44.453  53.966  1.00  0.00     0.073 A 
HETATM    7  C   UNL     1      28.467  45.302  55.084  1.00  0.00    -0.031 A 
HETATM    8  C   UNL     1      27.552  46.482  55.298  1.00  0.00     0.050 C 
HETATM    9  C   UNL     1      29.505  45.015  56.016  1.00  0.00    -0.000 A 
HETATM   10  C   UNL     1      30.368  43.937  55.723  1.00  0.00     0.068 A 
HETATM   11  C   UNL     1      29.729  45.742  57.212  1.00  0.00     0.014 A 
HETATM   12  N   UNL     1      30.246  43.186  54.622  1.00  0.00    -0.249 NA
HETATM   13  C   UNL     1      31.401  43.632  56.598  1.00  0.00     0.032 A 
HETATM   14  C   UNL     1      31.615  44.359  57.769  1.00  0.00     0.002 A 
HETATM   15  C   UNL     1      30.775  45.416  58.079  1.00  0.00     0.001 A 
BRANCH   6  16
HETATM   16  C   UNL     1      27.245  44.668  52.970  1.00  0.00     0.295 C 
HETATM   17  O   UNL     1      27.325  45.459  52.047  1.00  0.00    -0.259 OA
BRANCH  16  18
HETATM   18  O   UNL     1      26.208  43.845  53.255  1.00  0.00    -0.322 OA
HETATM   19  C   UNL     1      25.064  44.520  53.779  1.00  0.00     0.213 C 
ENDBRANCH  16  18
ENDBRANCH   6  16
ENDBRANCH   4   5
ENDBRANCH   3   4
ENDBRANCH   1   3
BRANCH   1  20
HETATM   20  C   UNL     1      27.500  40.951  50.502  1.00  0.00     0.039 A 
HETATM   21  C   UNL     1      26.188  41.298  50.849  1.00  0.00     0.018 A 
HETATM   22  C   UNL     1      25.234  41.545  49.857  1.00  0.00     0.010 A 
HETATM   23  C   UNL     1      25.575  41.434  48.503  1.00  0.00    -0.040 A 
HETATM   24  C   UNL     1      26.906  41.156  48.158  1.00  0.00     0.010 A 
HETATM   25  C   UNL     1      27.862  40.913  49.149  1.00  0.00     0.018 A 
BRANCH  23  26
HETATM   26  C   UNL     1      24.517  41.563  47.439  1.00  0.00     0.162 C 
BRANCH  26  27
HETATM   27  N   UNL     1      24.251  42.937  47.091  1.00  0.00    -0.339 N 
HETATM   28  C   UNL     1      23.058  43.481  47.499  1.00  0.00     0.316 C 
HETATM   29  N   UNL     1      22.888  44.741  46.987  1.00  0.00    -0.339 N 
HETATM   30  O   UNL     1      22.258  42.901  48.218  1.00  0.00    -0.247 OA
HETATM   31  H   UNL     1      23.750  45.228  46.791  1.00  0.00     0.164 HD
HETATM   32  H   UNL     1      24.566  43.241  46.183  1.00  0.00     0.164 HD
BRANCH  29  33
HETATM   33  C   UNL     1      21.725  45.575  47.280  1.00  0.00     0.078 C 
HETATM   34  C   UNL     1      22.105  46.902  47.936  1.00  0.00     0.032 C 
HETATM   35  C   UNL     1      20.843  45.790  46.052  1.00  0.00     0.032 C 
ENDBRANCH  29  33
ENDBRANCH  26  27
ENDBRANCH  23  26
ENDBRANCH   1  20
TORSDOF 9
ENDMDL
