MODEL 1
REMARK VINA RESULT:      -7.4      0.000      0.000
REMARK  5 active torsions:
REMARK  status: ('A' for Active; 'I' for Inactive)
REMARK    1  A    between atoms: C_2  and  O_3 
REMARK    2  A    between atoms: C_4  and  C_5 
REMARK    3  A    between atoms: C_5  and  O_6 
REMARK    4  A    between atoms: C_9  and  C_10 
REMARK    5  A    between atoms: C_22  and  O_23 
ROOT
HETATM    1  C   UNL     1      32.125  52.428  39.301  1.00  0.00     0.047 C 
HETATM    2  C   UNL     1      30.786  51.805  39.726  1.00  0.00     0.073 C 
HETATM    3  C   UNL     1      30.641  51.771  41.284  1.00  0.00     0.133 C 
HETATM    4  C   UNL     1      31.415  50.653  42.048  1.00  0.00     0.074 C 
HETATM    5  C   UNL     1      31.610  49.440  41.206  1.00  0.00     0.030 A 
HETATM    6  C   UNL     1      31.258  49.358  39.875  1.00  0.00     0.042 A 
HETATM    7  N   UNL     1      31.540  48.086  39.467  1.00  0.00    -0.279 N 
HETATM    8  H   UNL     1      31.400  47.666  38.552  1.00  0.00     0.189 HD
HETATM    9  N   UNL     1      32.041  47.318  40.458  1.00  0.00    -0.149 NA
HETATM   10  C   UNL     1      32.049  48.147  41.494  1.00  0.00     0.190 A 
HETATM   11  C   UNL     1      30.619  50.413  39.055  1.00  0.00     0.097 C 
ENDROOT
BRANCH   4  12
HETATM   12  C   UNL     1      32.767  51.121  42.581  1.00  0.00    -0.048 A 
HETATM   13  C   UNL     1      32.796  51.688  43.871  1.00  0.00     0.009 A 
HETATM   14  C   UNL     1      33.989  52.151  44.435  1.00  0.00     0.019 A 
HETATM   15  C   UNL     1      35.173  52.060  43.712  1.00  0.00     0.011 A 
HETATM   16 BR   UNL     1      36.788  52.681  44.470  1.00  0.00    -0.051 Br
HETATM   17  C   UNL     1      35.174  51.510  42.434  1.00  0.00     0.019 A 
HETATM   18  C   UNL     1      33.979  51.044  41.875  1.00  0.00     0.009 A 
ENDBRANCH   4  12
BRANCH   3  19
HETATM   19  C   UNL     1      29.175  51.722  41.673  1.00  0.00     0.266 C 
HETATM   20  O   UNL     1      28.437  52.697  41.581  1.00  0.00    -0.265 OA
BRANCH  19  21
HETATM   21  O   UNL     1      28.786  50.497  42.109  1.00  0.00    -0.326 OA
HETATM   22  C   UNL     1      27.714  49.915  41.366  1.00  0.00     0.213 C 
ENDBRANCH  19  21
ENDBRANCH   3  19
BRANCH   2  23
HETATM   23  O   UNL     1      29.782  52.668  39.155  1.00  0.00    -0.389 OA
HETATM   24  H   UNL     1      29.657  52.427  38.219  1.00  0.00     0.210 HD
ENDBRANCH   2  23
BRANCH  10  25
HETATM   25  O   UNL     1      32.463  47.622  42.642  1.00  0.00    -0.343 OA
HETATM   26  H   UNL     1      32.878  48.363  43.114  1.00  0.00     0.219 HD
ENDBRANCH  10  25
TORSDOF 5
ENDMDL
MODEL 2
REMARK VINA RESULT:      -7.2      3.891      5.905
REMARK  5 active torsions:
REMARK  status: ('A' for Active; 'I' for Inactive)
REMARK    1  A    between atoms: C_2  and  O_3 
REMARK    2  A    between atoms: C_4  and  C_5 
REMARK    3  A    between atoms: C_5  and  O_6 
REMARK    4  A    between atoms: C_9  and  C_10 
REMARK    5  A    between atoms: C_22  and  O_23 
ROOT
HETATM    1  C   UNL     1      31.743  51.089  38.385  1.00  0.00     0.047 C 
HETATM    2  C   UNL     1      32.008  51.391  39.868  1.00  0.00     0.073 C 
HETATM    3  C   UNL     1      31.817  50.114  40.753  1.00  0.00     0.133 C 
HETATM    4  C   UNL     1      30.354  49.694  41.091  1.00  0.00     0.074 C 
HETATM    5  C   UNL     1      29.431  50.863  41.111  1.00  0.00     0.030 A 
HETATM    6  C   UNL     1      29.799  52.143  40.755  1.00  0.00     0.042 A 
HETATM    7  N   UNL     1      28.707  52.939  40.951  1.00  0.00    -0.279 N 
HETATM    8  H   UNL     1      28.616  53.940  40.804  1.00  0.00     0.189 HD
HETATM    9  N   UNL     1      27.645  52.260  41.434  1.00  0.00    -0.149 NA
HETATM   10  C   UNL     1      28.114  51.024  41.543  1.00  0.00     0.190 A 
HETATM   11  C   UNL     1      31.140  52.598  40.321  1.00  0.00     0.097 C 
ENDROOT
BRANCH   4  12
HETATM   12  C   UNL     1      29.804  48.632  40.141  1.00  0.00    -0.048 A 
HETATM   13  C   UNL     1      30.332  47.329  40.248  1.00  0.00     0.009 A 
HETATM   14  C   UNL     1      29.893  46.298  39.412  1.00  0.00     0.019 A 
HETATM   15  C   UNL     1      28.922  46.555  38.450  1.00  0.00     0.011 A 
HETATM   16 BR   UNL     1      28.324  45.164  37.321  1.00  0.00    -0.051 Br
HETATM   17  C   UNL     1      28.388  47.832  38.319  1.00  0.00     0.019 A 
HETATM   18  C   UNL     1      28.826  48.861  39.159  1.00  0.00     0.009 A 
ENDBRANCH   4  12
BRANCH   3  19
HETATM   19  C   UNL     1      32.610  50.246  42.040  1.00  0.00     0.266 C 
HETATM   20  O   UNL     1      33.835  50.177  42.068  1.00  0.00    -0.265 OA
BRANCH  19  21
HETATM   21  O   UNL     1      31.824  50.458  43.126  1.00  0.00    -0.326 OA
HETATM   22  C   UNL     1      32.143  51.635  43.869  1.00  0.00     0.213 C 
ENDBRANCH  19  21
ENDBRANCH   3  19
BRANCH   2  23
HETATM   23  O   UNL     1      33.382  51.823  39.914  1.00  0.00    -0.389 OA
HETATM   24  H   UNL     1      33.830  51.367  40.650  1.00  0.00     0.210 HD
ENDBRANCH   2  23
BRANCH  10  25
HETATM   25  O   UNL     1      27.268  50.135  42.051  1.00  0.00    -0.343 OA
HETATM   26  H   UNL     1      26.919  49.660  41.278  1.00  0.00     0.219 HD
ENDBRANCH  10  25
TORSDOF 5
ENDMDL
MODEL 3
REMARK VINA RESULT:      -7.1      2.776      3.867
REMARK  5 active torsions:
REMARK  status: ('A' for Active; 'I' for Inactive)
REMARK    1  A    between atoms: C_2  and  O_3 
REMARK    2  A    between atoms: C_4  and  C_5 
REMARK    3  A    between atoms: C_5  and  O_6 
REMARK    4  A    between atoms: C_9  and  C_10 
REMARK    5  A    between atoms: C_22  and  O_23 
ROOT
HETATM    1  C   UNL     1      27.599  52.066  40.980  1.00  0.00     0.047 C 
HETATM    2  C   UNL     1      27.458  50.896  39.992  1.00  0.00     0.073 C 
HETATM    3  C   UNL     1      28.337  49.675  40.424  1.00  0.00     0.133 C 
HETATM    4  C   UNL     1      29.865  49.756  40.126  1.00  0.00     0.074 C 
HETATM    5  C   UNL     1      30.154  50.606  38.937  1.00  0.00     0.030 A 
HETATM    6  C   UNL     1      29.199  51.333  38.257  1.00  0.00     0.042 A 
HETATM    7  N   UNL     1      29.832  51.936  37.208  1.00  0.00    -0.279 N 
HETATM    8  H   UNL     1      29.439  52.538  36.490  1.00  0.00     0.189 HD
HETATM    9  N   UNL     1      31.147  51.634  37.147  1.00  0.00    -0.149 NA
HETATM   10  C   UNL     1      31.307  50.816  38.179  1.00  0.00     0.190 A 
HETATM   11  C   UNL     1      27.749  51.391  38.547  1.00  0.00     0.097 C 
ENDROOT
BRANCH   4  12
HETATM   12  C   UNL     1      30.681  50.256  41.316  1.00  0.00    -0.048 A 
HETATM   13  C   UNL     1      30.873  51.647  41.433  1.00  0.00     0.009 A 
HETATM   14  C   UNL     1      31.613  52.191  42.487  1.00  0.00     0.019 A 
HETATM   15  C   UNL     1      32.180  51.350  43.438  1.00  0.00     0.011 A 
HETATM   16 BR   UNL     1      33.179  52.081  44.865  1.00  0.00    -0.051 Br
HETATM   17  C   UNL     1      32.012  49.973  43.344  1.00  0.00     0.019 A 
HETATM   18  C   UNL     1      31.267  49.432  42.291  1.00  0.00     0.009 A 
ENDBRANCH   4  12
BRANCH   3  19
HETATM   19  C   UNL     1      27.778  48.393  39.836  1.00  0.00     0.266 C 
HETATM   20  O   UNL     1      28.184  47.923  38.778  1.00  0.00    -0.265 OA
BRANCH  19  21
HETATM   21  O   UNL     1      26.809  47.837  40.606  1.00  0.00    -0.326 OA
HETATM   22  C   UNL     1      26.966  46.437  40.838  1.00  0.00     0.213 C 
ENDBRANCH  19  21
ENDBRANCH   3  19
BRANCH   2  23
HETATM   23  O   UNL     1      26.062  50.542  40.040  1.00  0.00    -0.389 OA
HETATM   24  H   UNL     1      25.611  51.128  40.675  1.00  0.00     0.210 HD
ENDBRANCH   2  23
BRANCH  10  25
HETATM   25  O   UNL     1      32.529  50.320  38.330  1.00  0.00    -0.343 OA
HETATM   26  H   UNL     1      32.867  50.223  37.424  1.00  0.00     0.219 HD
ENDBRANCH  10  25
TORSDOF 5
ENDMDL
MODEL 4
REMARK VINA RESULT:      -7.1      3.811      5.775
REMARK  5 active torsions:
REMARK  status: ('A' for Active; 'I' for Inactive)
REMARK    1  A    between atoms: C_2  and  O_3 
REMARK    2  A    between atoms: C_4  and  C_5 
REMARK    3  A    between atoms: C_5  and  O_6 
REMARK    4  A    between atoms: C_9  and  C_10 
REMARK    5  A    between atoms: C_22  and  O_23 
ROOT
HETATM    1  C   UNL     1      27.674  51.229  40.437  1.00  0.00     0.047 C 
HETATM    2  C   UNL     1      29.051  51.645  39.893  1.00  0.00     0.073 C 
HETATM    3  C   UNL     1      29.744  50.464  39.134  1.00  0.00     0.133 C 
HETATM    4  C   UNL     1      30.412  49.354  40.001  1.00  0.00     0.074 C 
HETATM    5  C   UNL     1      30.873  49.879  41.316  1.00  0.00     0.030 A 
HETATM    6  C   UNL     1      30.631  51.161  41.763  1.00  0.00     0.042 A 
HETATM    7  N   UNL     1      31.249  51.282  42.975  1.00  0.00    -0.279 N 
HETATM    8  H   UNL     1      31.291  52.090  43.590  1.00  0.00     0.189 HD
HETATM    9  N   UNL     1      31.900  50.158  43.344  1.00  0.00    -0.149 NA
HETATM   10  C   UNL     1      31.679  49.343  42.321  1.00  0.00     0.190 A 
HETATM   11  C   UNL     1      29.913  52.237  41.043  1.00  0.00     0.097 C 
ENDROOT
BRANCH   4  12
HETATM   12  C   UNL     1      29.503  48.148  40.229  1.00  0.00    -0.048 A 
HETATM   13  C   UNL     1      29.767  46.984  39.479  1.00  0.00     0.009 A 
HETATM   14  C   UNL     1      28.980  45.837  39.617  1.00  0.00     0.019 A 
HETATM   15  C   UNL     1      27.910  45.838  40.505  1.00  0.00     0.011 A 
HETATM   16 BR   UNL     1      26.845  44.290  40.697  1.00  0.00    -0.051 Br
HETATM   17  C   UNL     1      27.623  46.974  41.254  1.00  0.00     0.019 A 
HETATM   18  C   UNL     1      28.414  48.119  41.116  1.00  0.00     0.009 A 
ENDBRANCH   4  12
BRANCH   3  19
HETATM   19  C   UNL     1      30.759  51.004  38.143  1.00  0.00     0.266 C 
HETATM   20  O   UNL     1      30.429  51.615  37.130  1.00  0.00    -0.265 OA
BRANCH  19  21
HETATM   21  O   UNL     1      32.041  50.749  38.508  1.00  0.00    -0.326 OA
HETATM   22  C   UNL     1      32.822  51.911  38.784  1.00  0.00     0.213 C 
ENDBRANCH  19  21
ENDBRANCH   3  19
BRANCH   2  23
HETATM   23  O   UNL     1      28.773  52.725  38.979  1.00  0.00    -0.389 OA
HETATM   24  H   UNL     1      29.260  53.516  39.272  1.00  0.00     0.210 HD
ENDBRANCH   2  23
BRANCH  10  25
HETATM   25  O   UNL     1      32.261  48.152  42.404  1.00  0.00    -0.343 OA
HETATM   26  H   UNL     1      32.854  48.116  41.636  1.00  0.00     0.219 HD
ENDBRANCH  10  25
TORSDOF 5
ENDMDL
MODEL 5
REMARK VINA RESULT:      -6.8     13.583     15.853
REMARK  5 active torsions:
REMARK  status: ('A' for Active; 'I' for Inactive)
REMARK    1  A    between atoms: C_2  and  O_3 
REMARK    2  A    between atoms: C_4  and  C_5 
REMARK    3  A    between atoms: C_5  and  O_6 
REMARK    4  A    between atoms: C_9  and  C_10 
REMARK    5  A    between atoms: C_22  and  O_23 
ROOT
HETATM    1  C   UNL     1      17.342  52.168  45.970  1.00  0.00     0.047 C 
HETATM    2  C   UNL     1      16.270  52.127  47.071  1.00  0.00     0.073 C 
HETATM    3  C   UNL     1      16.915  52.158  48.497  1.00  0.00     0.133 C 
HETATM    4  C   UNL     1      17.528  50.827  49.031  1.00  0.00     0.074 C 
HETATM    5  C   UNL     1      16.850  49.633  48.453  1.00  0.00     0.030 A 
HETATM    6  C   UNL     1      15.882  49.694  47.472  1.00  0.00     0.042 A 
HETATM    7  N   UNL     1      15.469  48.412  47.242  1.00  0.00    -0.279 N 
HETATM    8  H   UNL     1      14.761  48.080  46.594  1.00  0.00     0.189 HD
HETATM    9  N   UNL     1      16.098  47.512  48.028  1.00  0.00    -0.149 NA
HETATM   10  C   UNL     1      16.901  48.273  48.760  1.00  0.00     0.190 A 
HETATM   11  C   UNL     1      15.327  50.912  46.841  1.00  0.00     0.097 C 
ENDROOT
BRANCH   4  12
HETATM   12  C   UNL     1      19.032  50.723  48.788  1.00  0.00    -0.048 A 
HETATM   13  C   UNL     1      19.888  51.090  49.846  1.00  0.00     0.009 A 
HETATM   14  C   UNL     1      21.278  51.034  49.707  1.00  0.00     0.019 A 
HETATM   15  C   UNL     1      21.835  50.615  48.504  1.00  0.00     0.011 A 
HETATM   16 BR   UNL     1      23.712  50.535  48.313  1.00  0.00    -0.051 Br
HETATM   17  C   UNL     1      21.014  50.252  47.441  1.00  0.00     0.019 A 
HETATM   18  C   UNL     1      19.623  50.305  47.584  1.00  0.00     0.009 A 
ENDBRANCH   4  12
BRANCH   3  19
HETATM   19  C   UNL     1      15.920  52.694  49.510  1.00  0.00     0.266 C 
HETATM   20  O   UNL     1      14.934  52.055  49.865  1.00  0.00    -0.265 OA
BRANCH  19  21
HETATM   21  O   UNL     1      16.251  53.925  49.974  1.00  0.00    -0.326 OA
HETATM   22  C   UNL     1      15.159  54.670  50.514  1.00  0.00     0.213 C 
ENDBRANCH  19  21
ENDBRANCH   3  19
BRANCH   2  23
HETATM   23  O   UNL     1      15.482  53.315  46.860  1.00  0.00    -0.389 OA
HETATM   24  H   UNL     1      14.539  53.086  46.949  1.00  0.00     0.210 HD
ENDBRANCH   2  23
BRANCH  10  25
HETATM   25  O   UNL     1      17.620  47.630  49.673  1.00  0.00    -0.343 OA
HETATM   26  H   UNL     1      17.569  48.192  50.464  1.00  0.00     0.219 HD
ENDBRANCH  10  25
TORSDOF 5
ENDMDL
MODEL 6
REMARK VINA RESULT:      -6.7      2.522      4.075
REMARK  5 active torsions:
REMARK  status: ('A' for Active; 'I' for Inactive)
REMARK    1  A    between atoms: C_2  and  O_3 
REMARK    2  A    between atoms: C_4  and  C_5 
REMARK    3  A    between atoms: C_5  and  O_6 
REMARK    4  A    between atoms: C_9  and  C_10 
REMARK    5  A    between atoms: C_22  and  O_23 
ROOT
HETATM    1  C   UNL     1      31.237  48.706  42.735  1.00  0.00     0.047 C 
HETATM    2  C   UNL     1      30.489  49.003  41.425  1.00  0.00     0.073 C 
HETATM    3  C   UNL     1      31.472  49.469  40.300  1.00  0.00     0.133 C 
HETATM    4  C   UNL     1      31.974  50.945  40.359  1.00  0.00     0.074 C 
HETATM    5  C   UNL     1      30.985  51.841  41.021  1.00  0.00     0.030 A 
HETATM    6  C   UNL     1      29.823  51.400  41.618  1.00  0.00     0.042 A 
HETATM    7  N   UNL     1      29.161  52.509  42.062  1.00  0.00    -0.279 N 
HETATM    8  H   UNL     1      28.266  52.566  42.540  1.00  0.00     0.189 HD
HETATM    9  N   UNL     1      29.812  53.657  41.776  1.00  0.00    -0.149 NA
HETATM   10  C   UNL     1      30.889  53.229  41.131  1.00  0.00     0.190 A 
HETATM   11  C   UNL     1      29.333  50.006  41.696  1.00  0.00     0.097 C 
ENDROOT
BRANCH   4  12
HETATM   12  C   UNL     1      33.328  51.087  41.050  1.00  0.00    -0.048 A 
HETATM   13  C   UNL     1      34.482  50.934  40.256  1.00  0.00     0.009 A 
HETATM   14  C   UNL     1      35.763  51.039  40.808  1.00  0.00     0.019 A 
HETATM   15  C   UNL     1      35.909  51.293  42.167  1.00  0.00     0.011 A 
HETATM   16 BR   UNL     1      37.636  51.439  42.917  1.00  0.00    -0.051 Br
HETATM   17  C   UNL     1      34.787  51.443  42.976  1.00  0.00     0.019 A 
HETATM   18  C   UNL     1      33.507  51.342  42.420  1.00  0.00     0.009 A 
ENDBRANCH   4  12
BRANCH   3  19
HETATM   19  C   UNL     1      30.870  49.199  38.933  1.00  0.00     0.266 C 
HETATM   20  O   UNL     1      30.745  48.064  38.483  1.00  0.00    -0.265 OA
BRANCH  19  21
HETATM   21  O   UNL     1      30.485  50.331  38.292  1.00  0.00    -0.326 OA
HETATM   22  C   UNL     1      29.072  50.498  38.180  1.00  0.00     0.213 C 
ENDBRANCH  19  21
ENDBRANCH   3  19
BRANCH   2  23
HETATM   23  O   UNL     1      29.879  47.749  41.059  1.00  0.00    -0.389 OA
HETATM   24  H   UNL     1      30.545  47.042  41.135  1.00  0.00     0.210 HD
ENDBRANCH   2  23
BRANCH  10  25
HETATM   25  O   UNL     1      31.701  54.179  40.683  1.00  0.00    -0.343 OA
HETATM   26  H   UNL     1      31.144  54.725  40.104  1.00  0.00     0.219 HD
ENDBRANCH  10  25
TORSDOF 5
ENDMDL
MODEL 7
REMARK VINA RESULT:      -6.6      3.030      4.800
REMARK  5 active torsions:
REMARK  status: ('A' for Active; 'I' for Inactive)
REMARK    1  A    between atoms: C_2  and  O_3 
REMARK    2  A    between atoms: C_4  and  C_5 
REMARK    3  A    between atoms: C_5  and  O_6 
REMARK    4  A    between atoms: C_9  and  C_10 
REMARK    5  A    between atoms: C_22  and  O_23 
ROOT
HETATM    1  C   UNL     1      28.737  49.119  42.173  1.00  0.00     0.047 C 
HETATM    2  C   UNL     1      28.278  48.427  40.880  1.00  0.00     0.073 C 
HETATM    3  C   UNL     1      29.498  47.948  40.025  1.00  0.00     0.133 C 
HETATM    4  C   UNL     1      30.252  49.029  39.190  1.00  0.00     0.074 C 
HETATM    5  C   UNL     1      29.356  50.152  38.800  1.00  0.00     0.030 A 
HETATM    6  C   UNL     1      28.051  50.283  39.226  1.00  0.00     0.042 A 
HETATM    7  N   UNL     1      27.546  51.399  38.621  1.00  0.00    -0.279 N 
HETATM    8  H   UNL     1      26.612  51.794  38.695  1.00  0.00     0.189 HD
HETATM    9  N   UNL     1      28.438  52.000  37.806  1.00  0.00    -0.149 NA
HETATM   10  C   UNL     1      29.504  51.219  37.912  1.00  0.00     0.190 A 
HETATM   11  C   UNL     1      27.302  49.356  40.105  1.00  0.00     0.097 C 
ENDROOT
BRANCH   4  12
HETATM   12  C   UNL     1      31.480  49.586  39.906  1.00  0.00    -0.048 A 
HETATM   13  C   UNL     1      32.260  48.684  40.657  1.00  0.00     0.009 A 
HETATM   14  C   UNL     1      33.396  49.110  41.351  1.00  0.00     0.019 A 
HETATM   15  C   UNL     1      33.767  50.449  41.311  1.00  0.00     0.011 A 
HETATM   16 BR   UNL     1      35.303  51.030  42.245  1.00  0.00    -0.051 Br
HETATM   17  C   UNL     1      33.012  51.363  40.582  1.00  0.00     0.019 A 
HETATM   18  C   UNL     1      31.879  50.933  39.885  1.00  0.00     0.009 A 
ENDBRANCH   4  12
BRANCH   3  19
HETATM   19  C   UNL     1      29.083  46.809  39.112  1.00  0.00     0.266 C 
HETATM   20  O   UNL     1      28.450  46.992  38.077  1.00  0.00    -0.265 OA
BRANCH  19  21
HETATM   21  O   UNL     1      29.498  45.596  39.560  1.00  0.00    -0.326 OA
HETATM   22  C   UNL     1      28.640  44.509  39.209  1.00  0.00     0.213 C 
ENDBRANCH  19  21
ENDBRANCH   3  19
BRANCH   2  23
HETATM   23  O   UNL     1      27.510  47.291  41.325  1.00  0.00    -0.389 OA
HETATM   24  H   UNL     1      27.531  47.260  42.298  1.00  0.00     0.210 HD
ENDBRANCH   2  23
BRANCH  10  25
HETATM   25  O   UNL     1      30.541  51.564  37.159  1.00  0.00    -0.343 OA
HETATM   26  H   UNL     1      30.187  52.227  36.544  1.00  0.00     0.219 HD
ENDBRANCH  10  25
TORSDOF 5
ENDMDL
MODEL 8
REMARK VINA RESULT:      -6.5      3.594      5.631
REMARK  5 active torsions:
REMARK  status: ('A' for Active; 'I' for Inactive)
REMARK    1  A    between atoms: C_2  and  O_3 
REMARK    2  A    between atoms: C_4  and  C_5 
REMARK    3  A    between atoms: C_5  and  O_6 
REMARK    4  A    between atoms: C_9  and  C_10 
REMARK    5  A    between atoms: C_22  and  O_23 
ROOT
HETATM    1  C   UNL     1      30.051  51.699  41.849  1.00  0.00     0.047 C 
HETATM    2  C   UNL     1      31.104  51.661  40.730  1.00  0.00     0.073 C 
HETATM    3  C   UNL     1      30.551  50.949  39.450  1.00  0.00     0.133 C 
HETATM    4  C   UNL     1      30.500  49.391  39.467  1.00  0.00     0.074 C 
HETATM    5  C   UNL     1      31.549  48.811  40.351  1.00  0.00     0.030 A 
HETATM    6  C   UNL     1      32.385  49.561  41.152  1.00  0.00     0.042 A 
HETATM    7  N   UNL     1      33.236  48.686  41.766  1.00  0.00    -0.279 N 
HETATM    8  H   UNL     1      33.990  48.885  42.417  1.00  0.00     0.189 HD
HETATM    9  N   UNL     1      33.020  47.404  41.402  1.00  0.00    -0.149 NA
HETATM   10  C   UNL     1      32.021  47.511  40.536  1.00  0.00     0.190 A 
HETATM   11  C   UNL     1      32.421  51.036  41.270  1.00  0.00     0.097 C 
ENDROOT
BRANCH   4  12
HETATM   12  C   UNL     1      29.134  48.843  39.877  1.00  0.00    -0.048 A 
HETATM   13  C   UNL     1      28.089  48.936  38.936  1.00  0.00     0.009 A 
HETATM   14  C   UNL     1      26.804  48.469  39.231  1.00  0.00     0.019 A 
HETATM   15  C   UNL     1      26.544  47.906  40.475  1.00  0.00     0.011 A 
HETATM   16 BR   UNL     1      24.811  47.270  40.876  1.00  0.00    -0.051 Br
HETATM   17  C   UNL     1      27.555  47.807  41.424  1.00  0.00     0.019 A 
HETATM   18  C   UNL     1      28.840  48.272  41.126  1.00  0.00     0.009 A 
ENDBRANCH   4  12
BRANCH   3  19
HETATM   19  C   UNL     1      31.315  51.412  38.223  1.00  0.00     0.266 C 
HETATM   20  O   UNL     1      32.541  51.452  38.187  1.00  0.00    -0.265 OA
BRANCH  19  21
HETATM   21  O   UNL     1      30.500  51.754  37.192  1.00  0.00    -0.326 OA
HETATM   22  C   UNL     1      29.307  52.435  37.580  1.00  0.00     0.213 C 
ENDBRANCH  19  21
ENDBRANCH   3  19
BRANCH   2  23
HETATM   23  O   UNL     1      31.384  53.046  40.443  1.00  0.00    -0.389 OA
HETATM   24  H   UNL     1      32.055  53.090  39.738  1.00  0.00     0.210 HD
ENDBRANCH   2  23
BRANCH  10  25
HETATM   25  O   UNL     1      31.630  46.373  39.973  1.00  0.00    -0.343 OA
HETATM   26  H   UNL     1      32.454  45.884  39.812  1.00  0.00     0.219 HD
ENDBRANCH  10  25
TORSDOF 5
ENDMDL
MODEL 9
REMARK VINA RESULT:      -6.5     12.485     13.692
REMARK  5 active torsions:
REMARK  status: ('A' for Active; 'I' for Inactive)
REMARK    1  A    between atoms: C_2  and  O_3 
REMARK    2  A    between atoms: C_4  and  C_5 
REMARK    3  A    between atoms: C_5  and  O_6 
REMARK    4  A    between atoms: C_9  and  C_10 
REMARK    5  A    between atoms: C_22  and  O_23 
ROOT
HETATM    1  C   UNL     1      27.485  45.323  49.953  1.00  0.00     0.047 C 
HETATM    2  C   UNL     1      26.312  44.350  49.754  1.00  0.00     0.073 C 
HETATM    3  C   UNL     1      25.501  44.155  51.078  1.00  0.00     0.133 C 
HETATM    4  C   UNL     1      26.114  43.210  52.157  1.00  0.00     0.074 C 
HETATM    5  C   UNL     1      26.973  42.157  51.548  1.00  0.00     0.030 A 
HETATM    6  C   UNL     1      27.287  42.098  50.206  1.00  0.00     0.042 A 
HETATM    7  N   UNL     1      28.044  40.975  50.025  1.00  0.00    -0.279 N 
HETATM    8  H   UNL     1      28.442  40.609  49.165  1.00  0.00     0.189 HD
HETATM    9  N   UNL     1      28.230  40.281  51.168  1.00  0.00    -0.149 NA
HETATM   10  C   UNL     1      27.558  40.998  52.059  1.00  0.00     0.190 A 
HETATM   11  C   UNL     1      26.832  43.020  49.141  1.00  0.00     0.097 C 
ENDROOT
BRANCH   4  12
HETATM   12  C   UNL     1      26.910  43.959  53.223  1.00  0.00    -0.048 A 
HETATM   13  C   UNL     1      28.297  43.714  53.290  1.00  0.00     0.009 A 
HETATM   14  C   UNL     1      29.101  44.350  54.241  1.00  0.00     0.019 A 
HETATM   15  C   UNL     1      28.529  45.236  55.146  1.00  0.00     0.011 A 
HETATM   16 BR   UNL     1      29.611  46.099  56.431  1.00  0.00    -0.051 Br
HETATM   17  C   UNL     1      27.162  45.492  55.107  1.00  0.00     0.019 A 
HETATM   18  C   UNL     1      26.361  44.858  54.152  1.00  0.00     0.009 A 
ENDBRANCH   4  12
BRANCH   3  19
HETATM   19  C   UNL     1      24.086  43.707  50.764  1.00  0.00     0.266 C 
HETATM   20  O   UNL     1      23.710  42.550  50.928  1.00  0.00    -0.265 OA
BRANCH  19  21
HETATM   21  O   UNL     1      23.302  44.715  50.306  1.00  0.00    -0.326 OA
HETATM   22  C   UNL     1      22.235  44.297  49.453  1.00  0.00     0.213 C 
ENDBRANCH  19  21
ENDBRANCH   3  19
BRANCH   2  23
HETATM   23  O   UNL     1      25.483  44.976  48.754  1.00  0.00    -0.389 OA
HETATM   24  H   UNL     1      25.438  45.932  48.937  1.00  0.00     0.210 HD
ENDBRANCH   2  23
BRANCH  10  25
HETATM   25  O   UNL     1      27.536  40.503  53.291  1.00  0.00    -0.343 OA
HETATM   26  H   UNL     1      27.670  39.548  53.174  1.00  0.00     0.219 HD
ENDBRANCH  10  25
TORSDOF 5
ENDMDL
MODEL 10
REMARK VINA RESULT:      -6.4     11.806     14.798
REMARK  5 active torsions:
REMARK  status: ('A' for Active; 'I' for Inactive)
REMARK    1  A    between atoms: C_2  and  O_3 
REMARK    2  A    between atoms: C_4  and  C_5 
REMARK    3  A    between atoms: C_5  and  O_6 
REMARK    4  A    between atoms: C_9  and  C_10 
REMARK    5  A    between atoms: C_22  and  O_23 
ROOT
HETATM    1  C   UNL     1      19.581  51.764  49.461  1.00  0.00     0.047 C 
HETATM    2  C   UNL     1      20.502  50.551  49.254  1.00  0.00     0.073 C 
HETATM    3  C   UNL     1      20.757  50.283  47.733  1.00  0.00     0.133 C 
HETATM    4  C   UNL     1      19.623  49.570  46.935  1.00  0.00     0.074 C 
HETATM    5  C   UNL     1      18.803  48.684  47.807  1.00  0.00     0.030 A 
HETATM    6  C   UNL     1      18.950  48.598  49.176  1.00  0.00     0.042 A 
HETATM    7  N   UNL     1      18.066  47.652  49.611  1.00  0.00    -0.279 N 
HETATM    8  H   UNL     1      17.906  47.320  50.558  1.00  0.00     0.189 HD
HETATM    9  N   UNL     1      17.356  47.098  48.605  1.00  0.00    -0.149 NA
HETATM   10  C   UNL     1      17.836  47.716  47.534  1.00  0.00     0.190 A 
HETATM   11  C   UNL     1      19.931  49.322  50.015  1.00  0.00     0.097 C 
ENDROOT
BRANCH   4  12
HETATM   12  C   UNL     1      18.706  50.546  46.201  1.00  0.00    -0.048 A 
HETATM   13  C   UNL     1      18.704  50.502  44.792  1.00  0.00     0.009 A 
HETATM   14  C   UNL     1      17.903  51.365  44.039  1.00  0.00     0.019 A 
HETATM   15  C   UNL     1      17.093  52.293  44.685  1.00  0.00     0.011 A 
HETATM   16 BR   UNL     1      16.006  53.460  43.674  1.00  0.00    -0.051 Br
HETATM   17  C   UNL     1      17.079  52.363  46.075  1.00  0.00     0.019 A 
HETATM   18  C   UNL     1      17.880  51.495  46.825  1.00  0.00     0.009 A 
ENDBRANCH   4  12
BRANCH   3  19
HETATM   19  C   UNL     1      22.056  49.520  47.546  1.00  0.00     0.266 C 
HETATM   20  O   UNL     1      22.112  48.295  47.590  1.00  0.00    -0.265 OA
BRANCH  19  21
HETATM   21  O   UNL     1      23.118  50.334  47.318  1.00  0.00    -0.326 OA
HETATM   22  C   UNL     1      24.320  49.943  47.982  1.00  0.00     0.213 C 
ENDBRANCH  19  21
ENDBRANCH   3  19
BRANCH   2  23
HETATM   23  O   UNL     1      21.736  50.912  49.905  1.00  0.00    -0.389 OA
HETATM   24  H   UNL     1      21.530  51.442  50.696  1.00  0.00     0.210 HD
ENDBRANCH   2  23
BRANCH  10  25
HETATM   25  O   UNL     1      17.331  47.318  46.372  1.00  0.00    -0.343 OA
HETATM   26  H   UNL     1      17.563  48.027  45.749  1.00  0.00     0.219 HD
ENDBRANCH  10  25
TORSDOF 5
ENDMDL
