MODEL 1
REMARK VINA RESULT:     -10.7      0.000      0.000
REMARK  8 active torsions:
REMARK  status: ('A' for Active; 'I' for Inactive)
REMARK    1  A    between atoms: C_5  and  N_6 
REMARK       I    between atoms: N_6  and  C_7 
REMARK    2  A    between atoms: C_7  and  C_8 
REMARK    3  A    between atoms: C_8  and  N_9 
REMARK    4  A    between atoms: N_12  and  C_13 
REMARK    5  A    between atoms: C_13  and  C_14 
REMARK    6  A    between atoms: C_17  and  C_18 
REMARK       I    between atoms: C_18  and  N_19 
REMARK    7  A    between atoms: N_19  and  C_20 
REMARK    8  A    between atoms: C_20  and  C_21 
ROOT
HETATM    1  N   UNL     1      23.414  46.702  49.125  1.00  0.00    -0.290 N 
HETATM    2  C   UNL     1      23.224  48.038  49.457  1.00  0.00     0.332 C 
HETATM    3  O   UNL     1      23.958  48.589  50.279  1.00  0.00    -0.246 OA
HETATM    4  N   UNL     1      22.202  48.710  48.805  1.00  0.00    -0.261 N 
HETATM    5  C   UNL     1      21.327  48.119  47.902  1.00  0.00     0.264 C 
HETATM    6  O   UNL     1      20.541  48.740  47.190  1.00  0.00    -0.267 OA
HETATM    7  C   UNL     1      21.401  46.656  47.769  1.00  0.00     0.059 A 
HETATM    8  C   UNL     1      22.471  45.976  48.348  1.00  0.00     0.055 A 
HETATM    9  C   UNL     1      20.441  45.981  47.000  1.00  0.00     0.019 A 
HETATM   10  C   UNL     1      20.546  44.607  46.808  1.00  0.00     0.001 A 
HETATM   11  C   UNL     1      21.611  43.914  47.374  1.00  0.00     0.002 A 
HETATM   12  C   UNL     1      22.569  44.593  48.136  1.00  0.00     0.031 A 
ENDROOT
BRANCH   4  13
HETATM   13  C   UNL     1      22.202  50.167  48.870  1.00  0.00     0.175 C 
BRANCH  13  14
HETATM   14  C   UNL     1      20.841  50.795  49.075  1.00  0.00    -0.040 A 
HETATM   15  C   UNL     1      20.387  51.830  48.246  1.00  0.00     0.010 A 
HETATM   16  C   UNL     1      19.083  52.329  48.380  1.00  0.00     0.017 A 
HETATM   17  C   UNL     1      18.222  51.806  49.356  1.00  0.00     0.032 A 
HETATM   18  C   UNL     1      18.685  50.789  50.198  1.00  0.00     0.017 A 
HETATM   19  C   UNL     1      19.981  50.293  50.063  1.00  0.00     0.010 A 
BRANCH  17  20
HETATM   20  C   UNL     1      16.800  52.233  49.503  1.00  0.00     0.251 C 
HETATM   21  N   UNL     1      16.521  53.568  49.319  1.00  0.00    -0.353 N 
HETATM   22  H   UNL     1      17.267  54.241  49.231  1.00  0.00     0.163 HD
HETATM   23  O   UNL     1      15.943  51.404  49.790  1.00  0.00    -0.268 OA
BRANCH  21  24
HETATM   24  C   UNL     1      15.173  54.082  49.436  1.00  0.00     0.161 C 
BRANCH  24  25
HETATM   25  C   UNL     1      15.053  55.048  50.588  1.00  0.00    -0.038 A 
HETATM   26  C   UNL     1      15.375  56.403  50.415  1.00  0.00     0.048 A 
HETATM   27  C   UNL     1      15.224  57.251  51.493  1.00  0.00     0.105 A 
HETATM   28  C   UNL     1      14.773  56.802  52.712  1.00  0.00     0.105 A 
HETATM   29  O   UNL     1      15.485  58.585  51.494  1.00  0.00    -0.323 OA
HETATM   30  O   UNL     1      14.695  57.798  53.635  1.00  0.00    -0.323 OA
HETATM   31  C   UNL     1      14.445  55.481  52.922  1.00  0.00     0.040 A 
HETATM   32  C   UNL     1      15.130  58.929  52.850  1.00  0.00     0.352 A 
HETATM   33  C   UNL     1      14.582  54.600  51.846  1.00  0.00     0.012 A 
ENDBRANCH  24  25
ENDBRANCH  21  24
ENDBRANCH  17  20
ENDBRANCH  13  14
ENDBRANCH   4  13
BRANCH   1  34
HETATM   34  C   UNL     1      24.707  46.091  49.460  1.00  0.00     0.237 C 
BRANCH  34  35
HETATM   35  C   UNL     1      24.987  45.819  50.938  1.00  0.00     0.240 C 
HETATM   36  N   UNL     1      26.123  46.432  51.428  1.00  0.00    -0.326 N 
HETATM   37  H   UNL     1      26.644  47.002  50.772  1.00  0.00     0.169 HD
HETATM   38  O   UNL     1      24.277  45.018  51.543  1.00  0.00    -0.271 OA
BRANCH  36  39
HETATM   39  C   UNL     1      26.663  46.307  52.726  1.00  0.00     0.034 A 
HETATM   40  C   UNL     1      27.270  45.147  53.211  1.00  0.00     0.030 A 
HETATM   41  C   UNL     1      27.798  45.101  54.506  1.00  0.00     0.009 A 
HETATM   42  C   UNL     1      27.732  46.219  55.341  1.00  0.00    -0.062 A 
HETATM   43  C   UNL     1      28.280  46.165  56.736  1.00  0.00     0.048 C 
HETATM   44  C   UNL     1      27.107  47.376  54.867  1.00  0.00     0.009 A 
HETATM   45  C   UNL     1      26.582  47.421  53.569  1.00  0.00     0.030 A 
ENDBRANCH  36  39
ENDBRANCH  34  35
ENDBRANCH   1  34
TORSDOF 8
ENDMDL
MODEL 2
REMARK VINA RESULT:     -10.7      3.448     12.817
REMARK  8 active torsions:
REMARK  status: ('A' for Active; 'I' for Inactive)
REMARK    1  A    between atoms: C_5  and  N_6 
REMARK       I    between atoms: N_6  and  C_7 
REMARK    2  A    between atoms: C_7  and  C_8 
REMARK    3  A    between atoms: C_8  and  N_9 
REMARK    4  A    between atoms: N_12  and  C_13 
REMARK    5  A    between atoms: C_13  and  C_14 
REMARK    6  A    between atoms: C_17  and  C_18 
REMARK       I    between atoms: C_18  and  N_19 
REMARK    7  A    between atoms: N_19  and  C_20 
REMARK    8  A    between atoms: C_20  and  C_21 
ROOT
HETATM    1  N   UNL     1      21.271  47.543  48.229  1.00  0.00    -0.290 N 
HETATM    2  C   UNL     1      21.515  46.223  48.589  1.00  0.00     0.332 C 
HETATM    3  O   UNL     1      20.591  45.409  48.647  1.00  0.00    -0.246 OA
HETATM    4  N   UNL     1      22.831  45.873  48.850  1.00  0.00    -0.261 N 
HETATM    5  C   UNL     1      23.895  46.766  48.836  1.00  0.00     0.264 C 
HETATM    6  O   UNL     1      25.078  46.435  48.886  1.00  0.00    -0.267 OA
HETATM    7  C   UNL     1      23.563  48.191  48.698  1.00  0.00     0.059 A 
HETATM    8  C   UNL     1      22.262  48.553  48.353  1.00  0.00     0.055 A 
HETATM    9  C   UNL     1      24.573  49.155  48.839  1.00  0.00     0.019 A 
HETATM   10  C   UNL     1      24.282  50.501  48.637  1.00  0.00     0.001 A 
HETATM   11  C   UNL     1      22.990  50.879  48.287  1.00  0.00     0.002 A 
HETATM   12  C   UNL     1      21.987  49.913  48.142  1.00  0.00     0.031 A 
ENDROOT
BRANCH   4  13
HETATM   13  C   UNL     1      23.158  44.453  48.887  1.00  0.00     0.175 C 
BRANCH  13  14
HETATM   14  C   UNL     1      24.319  44.090  49.786  1.00  0.00    -0.040 A 
HETATM   15  C   UNL     1      24.270  44.326  51.167  1.00  0.00     0.010 A 
HETATM   16  C   UNL     1      25.309  43.887  52.001  1.00  0.00     0.017 A 
HETATM   17  C   UNL     1      26.417  43.220  51.460  1.00  0.00     0.032 A 
HETATM   18  C   UNL     1      26.476  43.006  50.079  1.00  0.00     0.017 A 
HETATM   19  C   UNL     1      25.442  43.442  49.251  1.00  0.00     0.010 A 
BRANCH  17  20
HETATM   20  C   UNL     1      27.518  42.657  52.295  1.00  0.00     0.251 C 
HETATM   21  N   UNL     1      28.609  43.464  52.524  1.00  0.00    -0.353 N 
HETATM   22  H   UNL     1      28.715  44.337  52.031  1.00  0.00     0.163 HD
HETATM   23  O   UNL     1      27.428  41.514  52.730  1.00  0.00    -0.268 OA
BRANCH  21  24
HETATM   24  C   UNL     1      29.729  43.013  53.323  1.00  0.00     0.161 C 
BRANCH  24  25
HETATM   25  C   UNL     1      29.846  43.806  54.600  1.00  0.00    -0.038 A 
HETATM   26  C   UNL     1      30.780  43.438  55.581  1.00  0.00     0.048 A 
HETATM   27  C   UNL     1      30.866  44.211  56.721  1.00  0.00     0.105 A 
HETATM   28  C   UNL     1      30.066  45.313  56.913  1.00  0.00     0.105 A 
HETATM   29  O   UNL     1      31.716  43.998  57.760  1.00  0.00    -0.323 OA
HETATM   30  O   UNL     1      30.313  45.932  58.098  1.00  0.00    -0.323 OA
HETATM   31  C   UNL     1      29.139  45.708  55.974  1.00  0.00     0.040 A 
HETATM   32  C   UNL     1      31.372  45.104  58.621  1.00  0.00     0.352 A 
HETATM   33  C   UNL     1      29.034  44.947  54.806  1.00  0.00     0.012 A 
ENDBRANCH  24  25
ENDBRANCH  21  24
ENDBRANCH  17  20
ENDBRANCH  13  14
ENDBRANCH   4  13
BRANCH   1  34
HETATM   34  C   UNL     1      20.002  47.844  47.553  1.00  0.00     0.237 C 
BRANCH  34  35
HETATM   35  C   UNL     1      18.927  48.554  48.375  1.00  0.00     0.240 C 
HETATM   36  N   UNL     1      18.623  49.829  47.940  1.00  0.00    -0.326 N 
HETATM   37  H   UNL     1      19.127  50.158  47.126  1.00  0.00     0.169 HD
HETATM   38  O   UNL     1      18.498  48.013  49.393  1.00  0.00    -0.271 OA
BRANCH  36  39
HETATM   39  C   UNL     1      17.726  50.740  48.541  1.00  0.00     0.034 A 
HETATM   40  C   UNL     1      16.337  50.657  48.431  1.00  0.00     0.030 A 
HETATM   41  C   UNL     1      15.510  51.589  49.068  1.00  0.00     0.009 A 
HETATM   42  C   UNL     1      16.058  52.622  49.831  1.00  0.00    -0.062 A 
HETATM   43  C   UNL     1      15.174  53.633  50.498  1.00  0.00     0.048 C 
HETATM   44  C   UNL     1      17.450  52.721  49.928  1.00  0.00     0.009 A 
HETATM   45  C   UNL     1      18.276  51.785  49.292  1.00  0.00     0.030 A 
ENDBRANCH  36  39
ENDBRANCH  34  35
ENDBRANCH   1  34
TORSDOF 8
ENDMDL
MODEL 3
REMARK VINA RESULT:     -10.7      4.728     12.964
REMARK  8 active torsions:
REMARK  status: ('A' for Active; 'I' for Inactive)
REMARK    1  A    between atoms: C_5  and  N_6 
REMARK       I    between atoms: N_6  and  C_7 
REMARK    2  A    between atoms: C_7  and  C_8 
REMARK    3  A    between atoms: C_8  and  N_9 
REMARK    4  A    between atoms: N_12  and  C_13 
REMARK    5  A    between atoms: C_13  and  C_14 
REMARK    6  A    between atoms: C_17  and  C_18 
REMARK       I    between atoms: C_18  and  N_19 
REMARK    7  A    between atoms: N_19  and  C_20 
REMARK    8  A    between atoms: C_20  and  C_21 
ROOT
HETATM    1  N   UNL     1      19.319  47.249  48.939  1.00  0.00    -0.290 N 
HETATM    2  C   UNL     1      20.170  46.208  48.588  1.00  0.00     0.332 C 
HETATM    3  O   UNL     1      19.743  45.056  48.490  1.00  0.00    -0.246 OA
HETATM    4  N   UNL     1      21.494  46.534  48.334  1.00  0.00    -0.261 N 
HETATM    5  C   UNL     1      22.025  47.810  48.471  1.00  0.00     0.264 C 
HETATM    6  O   UNL     1      23.142  48.142  48.079  1.00  0.00    -0.267 OA
HETATM    7  C   UNL     1      21.157  48.828  49.083  1.00  0.00     0.059 A 
HETATM    8  C   UNL     1      19.805  48.544  49.265  1.00  0.00     0.055 A 
HETATM    9  C   UNL     1      21.684  50.089  49.398  1.00  0.00     0.019 A 
HETATM   10  C   UNL     1      20.854  51.082  49.908  1.00  0.00     0.001 A 
HETATM   11  C   UNL     1      19.500  50.817  50.091  1.00  0.00     0.002 A 
HETATM   12  C   UNL     1      18.978  49.558  49.770  1.00  0.00     0.031 A 
ENDROOT
BRANCH   4  13
HETATM   13  C   UNL     1      22.311  45.546  47.641  1.00  0.00     0.175 C 
BRANCH  13  14
HETATM   14  C   UNL     1      23.143  44.662  48.544  1.00  0.00    -0.040 A 
HETATM   15  C   UNL     1      22.710  43.378  48.903  1.00  0.00     0.010 A 
HETATM   16  C   UNL     1      23.540  42.531  49.652  1.00  0.00     0.017 A 
HETATM   17  C   UNL     1      24.808  42.965  50.063  1.00  0.00     0.032 A 
HETATM   18  C   UNL     1      25.230  44.255  49.724  1.00  0.00     0.017 A 
HETATM   19  C   UNL     1      24.404  45.096  48.978  1.00  0.00     0.010 A 
BRANCH  17  20
HETATM   20  C   UNL     1      25.773  42.091  50.792  1.00  0.00     0.251 C 
HETATM   21  N   UNL     1      26.667  42.709  51.636  1.00  0.00    -0.353 N 
HETATM   22  H   UNL     1      26.753  43.713  51.648  1.00  0.00     0.163 HD
HETATM   23  O   UNL     1      25.752  40.879  50.611  1.00  0.00    -0.268 OA
BRANCH  21  24
HETATM   24  C   UNL     1      27.641  41.951  52.392  1.00  0.00     0.161 C 
BRANCH  24  25
HETATM   25  C   UNL     1      28.371  42.825  53.380  1.00  0.00    -0.038 A 
HETATM   26  C   UNL     1      27.711  43.898  54.001  1.00  0.00     0.048 A 
HETATM   27  C   UNL     1      28.415  44.653  54.916  1.00  0.00     0.105 A 
HETATM   28  C   UNL     1      29.726  44.381  55.226  1.00  0.00     0.105 A 
HETATM   29  O   UNL     1      27.927  45.718  55.607  1.00  0.00    -0.323 OA
HETATM   30  O   UNL     1      30.229  45.242  56.151  1.00  0.00    -0.323 OA
HETATM   31  C   UNL     1      30.408  43.337  54.642  1.00  0.00     0.040 A 
HETATM   32  C   UNL     1      29.078  46.075  56.401  1.00  0.00     0.352 A 
HETATM   33  C   UNL     1      29.718  42.551  53.714  1.00  0.00     0.012 A 
ENDBRANCH  24  25
ENDBRANCH  21  24
ENDBRANCH  17  20
ENDBRANCH  13  14
ENDBRANCH   4  13
BRANCH   1  34
HETATM   34  C   UNL     1      17.873  47.026  48.803  1.00  0.00     0.237 C 
BRANCH  34  35
HETATM   35  C   UNL     1      17.199  47.575  47.546  1.00  0.00     0.240 C 
HETATM   36  N   UNL     1      16.214  48.512  47.788  1.00  0.00    -0.326 N 
HETATM   37  H   UNL     1      16.046  48.748  48.760  1.00  0.00     0.169 HD
HETATM   38  O   UNL     1      17.485  47.090  46.454  1.00  0.00    -0.271 OA
BRANCH  36  39
HETATM   39  C   UNL     1      15.381  49.135  46.833  1.00  0.00     0.034 A 
HETATM   40  C   UNL     1      15.521  50.461  46.421  1.00  0.00     0.030 A 
HETATM   41  C   UNL     1      14.666  51.007  45.457  1.00  0.00     0.009 A 
HETATM   42  C   UNL     1      13.655  50.233  44.883  1.00  0.00    -0.062 A 
HETATM   43  C   UNL     1      12.726  50.822  43.864  1.00  0.00     0.048 C 
HETATM   44  C   UNL     1      13.498  48.910  45.308  1.00  0.00     0.009 A 
HETATM   45  C   UNL     1      14.357  48.365  46.270  1.00  0.00     0.030 A 
ENDBRANCH  36  39
ENDBRANCH  34  35
ENDBRANCH   1  34
TORSDOF 8
ENDMDL
MODEL 4
REMARK VINA RESULT:     -10.6      3.375      9.670
REMARK  8 active torsions:
REMARK  status: ('A' for Active; 'I' for Inactive)
REMARK    1  A    between atoms: C_5  and  N_6 
REMARK       I    between atoms: N_6  and  C_7 
REMARK    2  A    between atoms: C_7  and  C_8 
REMARK    3  A    between atoms: C_8  and  N_9 
REMARK    4  A    between atoms: N_12  and  C_13 
REMARK    5  A    between atoms: C_13  and  C_14 
REMARK    6  A    between atoms: C_17  and  C_18 
REMARK       I    between atoms: C_18  and  N_19 
REMARK    7  A    between atoms: N_19  and  C_20 
REMARK    8  A    between atoms: C_20  and  C_21 
ROOT
HETATM    1  N   UNL     1      19.225  51.219  47.992  1.00  0.00    -0.290 N 
HETATM    2  C   UNL     1      19.421  50.188  47.081  1.00  0.00     0.332 C 
HETATM    3  O   UNL     1      20.477  50.100  46.452  1.00  0.00    -0.246 OA
HETATM    4  N   UNL     1      18.393  49.267  46.939  1.00  0.00    -0.261 N 
HETATM    5  C   UNL     1      17.172  49.350  47.596  1.00  0.00     0.264 C 
HETATM    6  O   UNL     1      16.334  48.452  47.617  1.00  0.00    -0.267 OA
HETATM    7  C   UNL     1      16.910  50.583  48.353  1.00  0.00     0.059 A 
HETATM    8  C   UNL     1      17.956  51.477  48.576  1.00  0.00     0.055 A 
HETATM    9  C   UNL     1      15.638  50.801  48.904  1.00  0.00     0.019 A 
HETATM   10  C   UNL     1      15.401  51.928  49.684  1.00  0.00     0.001 A 
HETATM   11  C   UNL     1      16.436  52.828  49.921  1.00  0.00     0.002 A 
HETATM   12  C   UNL     1      17.705  52.603  49.374  1.00  0.00     0.031 A 
ENDROOT
BRANCH   4  13
HETATM   13  C   UNL     1      18.701  48.010  46.268  1.00  0.00     0.175 C 
BRANCH  13  14
HETATM   14  C   UNL     1      19.634  47.093  47.029  1.00  0.00    -0.040 A 
HETATM   15  C   UNL     1      19.253  46.518  48.249  1.00  0.00     0.010 A 
HETATM   16  C   UNL     1      20.085  45.588  48.888  1.00  0.00     0.017 A 
HETATM   17  C   UNL     1      21.317  45.234  48.321  1.00  0.00     0.032 A 
HETATM   18  C   UNL     1      21.708  45.827  47.116  1.00  0.00     0.017 A 
HETATM   19  C   UNL     1      20.878  46.751  46.480  1.00  0.00     0.010 A 
BRANCH  17  20
HETATM   20  C   UNL     1      22.216  44.195  48.904  1.00  0.00     0.251 C 
HETATM   21  N   UNL     1      23.088  44.599  49.890  1.00  0.00    -0.353 N 
HETATM   22  H   UNL     1      23.206  45.577  50.102  1.00  0.00     0.163 HD
HETATM   23  O   UNL     1      22.164  43.043  48.488  1.00  0.00    -0.268 OA
BRANCH  21  24
HETATM   24  C   UNL     1      23.998  43.668  50.521  1.00  0.00     0.161 C 
BRANCH  24  25
HETATM   25  C   UNL     1      24.841  44.351  51.569  1.00  0.00    -0.038 A 
HETATM   26  C   UNL     1      24.683  45.722  51.826  1.00  0.00     0.048 A 
HETATM   27  C   UNL     1      25.460  46.294  52.811  1.00  0.00     0.105 A 
HETATM   28  C   UNL     1      26.372  45.561  53.533  1.00  0.00     0.105 A 
HETATM   29  O   UNL     1      25.428  47.600  53.187  1.00  0.00    -0.323 OA
HETATM   30  O   UNL     1      27.030  46.315  54.454  1.00  0.00    -0.323 OA
HETATM   31  C   UNL     1      26.557  44.214  53.314  1.00  0.00     0.040 A 
HETATM   32  C   UNL     1      26.413  47.602  54.241  1.00  0.00     0.352 A 
HETATM   33  C   UNL     1      25.778  43.606  52.324  1.00  0.00     0.012 A 
ENDBRANCH  24  25
ENDBRANCH  21  24
ENDBRANCH  17  20
ENDBRANCH  13  14
ENDBRANCH   4  13
BRANCH   1  34
HETATM   34  C   UNL     1      20.409  51.943  48.471  1.00  0.00     0.237 C 
BRANCH  34  35
HETATM   35  C   UNL     1      21.518  51.113  49.117  1.00  0.00     0.240 C 
HETATM   36  N   UNL     1      22.552  50.776  48.266  1.00  0.00    -0.326 N 
HETATM   37  H   UNL     1      22.479  51.116  47.314  1.00  0.00     0.169 HD
HETATM   38  O   UNL     1      21.374  50.722  50.274  1.00  0.00    -0.271 OA
BRANCH  36  39
HETATM   39  C   UNL     1      23.669  49.965  48.565  1.00  0.00     0.034 A 
HETATM   40  C   UNL     1      24.993  50.346  48.340  1.00  0.00     0.030 A 
HETATM   41  C   UNL     1      26.051  49.494  48.676  1.00  0.00     0.009 A 
HETATM   42  C   UNL     1      25.803  48.244  49.249  1.00  0.00    -0.062 A 
HETATM   43  C   UNL     1      26.935  47.322  49.592  1.00  0.00     0.048 C 
HETATM   44  C   UNL     1      24.478  47.851  49.457  1.00  0.00     0.009 A 
HETATM   45  C   UNL     1      23.421  48.706  49.122  1.00  0.00     0.030 A 
ENDBRANCH  36  39
ENDBRANCH  34  35
ENDBRANCH   1  34
TORSDOF 8
ENDMDL
MODEL 5
REMARK VINA RESULT:     -10.5      3.915     12.516
REMARK  8 active torsions:
REMARK  status: ('A' for Active; 'I' for Inactive)
REMARK    1  A    between atoms: C_5  and  N_6 
REMARK       I    between atoms: N_6  and  C_7 
REMARK    2  A    between atoms: C_7  and  C_8 
REMARK    3  A    between atoms: C_8  and  N_9 
REMARK    4  A    between atoms: N_12  and  C_13 
REMARK    5  A    between atoms: C_13  and  C_14 
REMARK    6  A    between atoms: C_17  and  C_18 
REMARK       I    between atoms: C_18  and  N_19 
REMARK    7  A    between atoms: N_19  and  C_20 
REMARK    8  A    between atoms: C_20  and  C_21 
ROOT
HETATM    1  N   UNL     1      19.117  48.387  47.960  1.00  0.00    -0.290 N 
HETATM    2  C   UNL     1      20.383  47.813  47.945  1.00  0.00     0.332 C 
HETATM    3  O   UNL     1      20.548  46.674  47.503  1.00  0.00    -0.246 OA
HETATM    4  N   UNL     1      21.432  48.585  48.420  1.00  0.00    -0.261 N 
HETATM    5  C   UNL     1      21.285  49.855  48.963  1.00  0.00     0.264 C 
HETATM    6  O   UNL     1      22.219  50.612  49.217  1.00  0.00    -0.267 OA
HETATM    7  C   UNL     1      19.910  50.323  49.191  1.00  0.00     0.059 A 
HETATM    8  C   UNL     1      18.849  49.602  48.646  1.00  0.00     0.055 A 
HETATM    9  C   UNL     1      19.693  51.524  49.883  1.00  0.00     0.019 A 
HETATM   10  C   UNL     1      18.400  52.013  50.040  1.00  0.00     0.001 A 
HETATM   11  C   UNL     1      17.330  51.308  49.497  1.00  0.00     0.002 A 
HETATM   12  C   UNL     1      17.552  50.113  48.802  1.00  0.00     0.031 A 
ENDROOT
BRANCH   4  13
HETATM   13  C   UNL     1      22.787  48.153  48.100  1.00  0.00     0.175 C 
BRANCH  13  14
HETATM   14  C   UNL     1      23.392  47.174  49.082  1.00  0.00    -0.040 A 
HETATM   15  C   UNL     1      23.169  45.795  48.963  1.00  0.00     0.010 A 
HETATM   16  C   UNL     1      23.822  44.893  49.815  1.00  0.00     0.017 A 
HETATM   17  C   UNL     1      24.695  45.361  50.807  1.00  0.00     0.032 A 
HETATM   18  C   UNL     1      24.898  46.739  50.940  1.00  0.00     0.017 A 
HETATM   19  C   UNL     1      24.250  47.635  50.091  1.00  0.00     0.010 A 
BRANCH  17  20
HETATM   20  C   UNL     1      25.482  44.457  51.695  1.00  0.00     0.251 C 
HETATM   21  N   UNL     1      26.854  44.514  51.594  1.00  0.00    -0.353 N 
HETATM   22  H   UNL     1      27.293  45.041  50.855  1.00  0.00     0.163 HD
HETATM   23  O   UNL     1      24.899  43.696  52.459  1.00  0.00    -0.268 OA
BRANCH  21  24
HETATM   24  C   UNL     1      27.708  43.681  52.413  1.00  0.00     0.161 C 
BRANCH  24  25
HETATM   25  C   UNL     1      28.130  44.397  53.672  1.00  0.00    -0.038 A 
HETATM   26  C   UNL     1      29.214  43.924  54.427  1.00  0.00     0.048 A 
HETATM   27  C   UNL     1      29.577  44.629  55.556  1.00  0.00     0.105 A 
HETATM   28  C   UNL     1      28.908  45.763  55.950  1.00  0.00     0.105 A 
HETATM   29  O   UNL     1      30.601  44.313  56.393  1.00  0.00    -0.323 OA
HETATM   30  O   UNL     1      29.427  46.304  57.085  1.00  0.00    -0.323 OA
HETATM   31  C   UNL     1      27.841  46.261  55.236  1.00  0.00     0.040 A 
HETATM   32  C   UNL     1      30.511  45.389  57.350  1.00  0.00     0.352 A 
HETATM   33  C   UNL     1      27.454  45.570  54.083  1.00  0.00     0.012 A 
ENDBRANCH  24  25
ENDBRANCH  21  24
ENDBRANCH  17  20
ENDBRANCH  13  14
ENDBRANCH   4  13
BRANCH   1  34
HETATM   34  C   UNL     1      18.085  47.790  47.103  1.00  0.00     0.237 C 
BRANCH  34  35
HETATM   35  C   UNL     1      17.515  48.665  45.986  1.00  0.00     0.240 C 
HETATM   36  N   UNL     1      18.379  49.638  45.524  1.00  0.00    -0.326 N 
HETATM   37  H   UNL     1      19.295  49.668  45.957  1.00  0.00     0.169 HD
HETATM   38  O   UNL     1      16.338  48.526  45.661  1.00  0.00    -0.271 OA
BRANCH  36  39
HETATM   39  C   UNL     1      18.104  50.627  44.555  1.00  0.00     0.034 A 
HETATM   40  C   UNL     1      17.381  51.793  44.811  1.00  0.00     0.030 A 
HETATM   41  C   UNL     1      17.161  52.737  43.802  1.00  0.00     0.009 A 
HETATM   42  C   UNL     1      17.665  52.534  42.515  1.00  0.00    -0.062 A 
HETATM   43  C   UNL     1      17.413  53.535  41.428  1.00  0.00     0.048 C 
HETATM   44  C   UNL     1      18.373  51.358  42.249  1.00  0.00     0.009 A 
HETATM   45  C   UNL     1      18.594  50.416  43.261  1.00  0.00     0.030 A 
ENDBRANCH  36  39
ENDBRANCH  34  35
ENDBRANCH   1  34
TORSDOF 8
ENDMDL
MODEL 6
REMARK VINA RESULT:     -10.3      4.111     12.059
REMARK  8 active torsions:
REMARK  status: ('A' for Active; 'I' for Inactive)
REMARK    1  A    between atoms: C_5  and  N_6 
REMARK       I    between atoms: N_6  and  C_7 
REMARK    2  A    between atoms: C_7  and  C_8 
REMARK    3  A    between atoms: C_8  and  N_9 
REMARK    4  A    between atoms: N_12  and  C_13 
REMARK    5  A    between atoms: C_13  and  C_14 
REMARK    6  A    between atoms: C_17  and  C_18 
REMARK       I    between atoms: C_18  and  N_19 
REMARK    7  A    between atoms: N_19  and  C_20 
REMARK    8  A    between atoms: C_20  and  C_21 
ROOT
HETATM    1  N   UNL     1      20.413  48.608  47.625  1.00  0.00    -0.290 N 
HETATM    2  C   UNL     1      21.785  48.434  47.756  1.00  0.00     0.332 C 
HETATM    3  O   UNL     1      22.359  47.515  47.169  1.00  0.00    -0.246 OA
HETATM    4  N   UNL     1      22.464  49.349  48.547  1.00  0.00    -0.261 N 
HETATM    5  C   UNL     1      21.853  50.374  49.258  1.00  0.00     0.264 C 
HETATM    6  O   UNL     1      22.458  51.290  49.810  1.00  0.00    -0.267 OA
HETATM    7  C   UNL     1      20.383  50.371  49.294  1.00  0.00     0.059 A 
HETATM    8  C   UNL     1      19.686  49.516  48.442  1.00  0.00     0.055 A 
HETATM    9  C   UNL     1      19.709  51.279  50.124  1.00  0.00     0.019 A 
HETATM   10  C   UNL     1      18.318  51.334  50.109  1.00  0.00     0.001 A 
HETATM   11  C   UNL     1      17.608  50.491  49.260  1.00  0.00     0.002 A 
HETATM   12  C   UNL     1      18.286  49.591  48.430  1.00  0.00     0.031 A 
ENDROOT
BRANCH   4  13
HETATM   13  C   UNL     1      23.916  49.401  48.425  1.00  0.00     0.175 C 
BRANCH  13  14
HETATM   14  C   UNL     1      24.657  48.314  49.174  1.00  0.00    -0.040 A 
HETATM   15  C   UNL     1      23.967  47.309  49.865  1.00  0.00     0.010 A 
HETATM   16  C   UNL     1      24.665  46.249  50.463  1.00  0.00     0.017 A 
HETATM   17  C   UNL     1      26.064  46.192  50.389  1.00  0.00     0.032 A 
HETATM   18  C   UNL     1      26.753  47.209  49.719  1.00  0.00     0.017 A 
HETATM   19  C   UNL     1      26.057  48.261  49.123  1.00  0.00     0.010 A 
BRANCH  17  20
HETATM   20  C   UNL     1      26.865  45.057  50.933  1.00  0.00     0.251 C 
HETATM   21  N   UNL     1      26.563  44.627  52.205  1.00  0.00    -0.353 N 
HETATM   22  H   UNL     1      25.928  45.150  52.787  1.00  0.00     0.163 HD
HETATM   23  O   UNL     1      27.756  44.561  50.253  1.00  0.00    -0.268 OA
BRANCH  21  24
HETATM   24  C   UNL     1      27.279  43.530  52.822  1.00  0.00     0.161 C 
BRANCH  24  25
HETATM   25  C   UNL     1      28.171  44.016  53.937  1.00  0.00    -0.038 A 
HETATM   26  C   UNL     1      29.211  43.205  54.418  1.00  0.00     0.048 A 
HETATM   27  C   UNL     1      30.015  43.705  55.421  1.00  0.00     0.105 A 
HETATM   28  C   UNL     1      29.819  44.958  55.952  1.00  0.00     0.105 A 
HETATM   29  O   UNL     1      31.064  43.057  55.994  1.00  0.00    -0.323 OA
HETATM   30  O   UNL     1      30.720  45.256  56.926  1.00  0.00    -0.323 OA
HETATM   31  C   UNL     1      28.811  45.785  55.507  1.00  0.00     0.040 A 
HETATM   32  C   UNL     1      31.517  44.053  56.934  1.00  0.00     0.352 A 
HETATM   33  C   UNL     1      27.984  45.307  54.486  1.00  0.00     0.012 A 
ENDBRANCH  24  25
ENDBRANCH  21  24
ENDBRANCH  17  20
ENDBRANCH  13  14
ENDBRANCH   4  13
BRANCH   1  34
HETATM   34  C   UNL     1      19.744  47.946  46.498  1.00  0.00     0.237 C 
BRANCH  34  35
HETATM   35  C   UNL     1      19.529  46.436  46.604  1.00  0.00     0.240 C 
HETATM   36  N   UNL     1      20.245  45.690  45.689  1.00  0.00    -0.326 N 
HETATM   37  H   UNL     1      20.841  46.208  45.055  1.00  0.00     0.169 HD
HETATM   38  O   UNL     1      18.686  46.007  47.389  1.00  0.00    -0.271 OA
BRANCH  36  39
HETATM   39  C   UNL     1      20.193  44.291  45.508  1.00  0.00     0.034 A 
HETATM   40  C   UNL     1      21.011  43.385  46.186  1.00  0.00     0.030 A 
HETATM   41  C   UNL     1      20.892  42.008  45.965  1.00  0.00     0.009 A 
HETATM   42  C   UNL     1      19.948  41.511  45.065  1.00  0.00    -0.062 A 
HETATM   43  C   UNL     1      19.833  40.037  44.813  1.00  0.00     0.048 C 
HETATM   44  C   UNL     1      19.141  42.416  44.369  1.00  0.00     0.009 A 
HETATM   45  C   UNL     1      19.259  43.793  44.593  1.00  0.00     0.030 A 
ENDBRANCH  36  39
ENDBRANCH  34  35
ENDBRANCH   1  34
TORSDOF 8
ENDMDL
MODEL 7
REMARK VINA RESULT:     -10.2      4.924     13.035
REMARK  8 active torsions:
REMARK  status: ('A' for Active; 'I' for Inactive)
REMARK    1  A    between atoms: C_5  and  N_6 
REMARK       I    between atoms: N_6  and  C_7 
REMARK    2  A    between atoms: C_7  and  C_8 
REMARK    3  A    between atoms: C_8  and  N_9 
REMARK    4  A    between atoms: N_12  and  C_13 
REMARK    5  A    between atoms: C_13  and  C_14 
REMARK    6  A    between atoms: C_17  and  C_18 
REMARK       I    between atoms: C_18  and  N_19 
REMARK    7  A    between atoms: N_19  and  C_20 
REMARK    8  A    between atoms: C_20  and  C_21 
ROOT
HETATM    1  N   UNL     1      19.253  46.678  48.499  1.00  0.00    -0.290 N 
HETATM    2  C   UNL     1      20.228  45.741  48.178  1.00  0.00     0.332 C 
HETATM    3  O   UNL     1      19.925  44.562  47.984  1.00  0.00    -0.246 OA
HETATM    4  N   UNL     1      21.531  46.201  48.063  1.00  0.00    -0.261 N 
HETATM    5  C   UNL     1      21.923  47.510  48.312  1.00  0.00     0.264 C 
HETATM    6  O   UNL     1      23.033  47.965  48.041  1.00  0.00    -0.267 OA
HETATM    7  C   UNL     1      20.912  48.407  48.890  1.00  0.00     0.059 A 
HETATM    8  C   UNL     1      19.582  47.990  48.933  1.00  0.00     0.055 A 
HETATM    9  C   UNL     1      21.285  49.691  49.315  1.00  0.00     0.019 A 
HETATM   10  C   UNL     1      20.321  50.572  49.794  1.00  0.00     0.001 A 
HETATM   11  C   UNL     1      18.989  50.174  49.838  1.00  0.00     0.002 A 
HETATM   12  C   UNL     1      18.620  48.894  49.408  1.00  0.00     0.031 A 
ENDROOT
BRANCH   4  13
HETATM   13  C   UNL     1      22.498  45.334  47.401  1.00  0.00     0.175 C 
BRANCH  13  14
HETATM   14  C   UNL     1      23.326  44.475  48.332  1.00  0.00    -0.040 A 
HETATM   15  C   UNL     1      23.063  43.106  48.482  1.00  0.00     0.010 A 
HETATM   16  C   UNL     1      23.905  42.302  49.265  1.00  0.00     0.017 A 
HETATM   17  C   UNL     1      25.011  42.863  49.920  1.00  0.00     0.032 A 
HETATM   18  C   UNL     1      25.258  44.233  49.788  1.00  0.00     0.017 A 
HETATM   19  C   UNL     1      24.421  45.031  49.008  1.00  0.00     0.010 A 
BRANCH  17  20
HETATM   20  C   UNL     1      25.991  42.055  50.703  1.00  0.00     0.251 C 
HETATM   21  N   UNL     1      26.490  42.617  51.856  1.00  0.00    -0.353 N 
HETATM   22  H   UNL     1      26.305  43.583  52.079  1.00  0.00     0.163 HD
HETATM   23  O   UNL     1      26.327  40.948  50.299  1.00  0.00    -0.268 OA
BRANCH  21  24
HETATM   24  C   UNL     1      27.443  41.915  52.688  1.00  0.00     0.161 C 
BRANCH  24  25
HETATM   25  C   UNL     1      28.141  42.856  53.638  1.00  0.00    -0.038 A 
HETATM   26  C   UNL     1      29.326  42.466  54.281  1.00  0.00     0.048 A 
HETATM   27  C   UNL     1      29.939  43.373  55.121  1.00  0.00     0.105 A 
HETATM   28  C   UNL     1      29.421  44.628  55.338  1.00  0.00     0.105 A 
HETATM   29  O   UNL     1      31.089  43.159  55.814  1.00  0.00    -0.323 OA
HETATM   30  O   UNL     1      30.179  45.361  56.196  1.00  0.00    -0.323 OA
HETATM   31  C   UNL     1      28.261  45.049  54.724  1.00  0.00     0.040 A 
HETATM   32  C   UNL     1      31.245  44.430  56.479  1.00  0.00     0.352 A 
HETATM   33  C   UNL     1      27.621  44.153  53.863  1.00  0.00     0.012 A 
ENDBRANCH  24  25
ENDBRANCH  21  24
ENDBRANCH  17  20
ENDBRANCH  13  14
ENDBRANCH   4  13
BRANCH   1  34
HETATM   34  C   UNL     1      17.854  46.331  48.220  1.00  0.00     0.237 C 
BRANCH  34  35
HETATM   35  C   UNL     1      17.470  46.105  46.758  1.00  0.00     0.240 C 
HETATM   36  N   UNL     1      17.281  44.781  46.414  1.00  0.00    -0.326 N 
HETATM   37  H   UNL     1      17.402  44.102  47.156  1.00  0.00     0.169 HD
HETATM   38  O   UNL     1      17.464  47.063  45.987  1.00  0.00    -0.271 OA
BRANCH  36  39
HETATM   39  C   UNL     1      16.991  44.270  45.130  1.00  0.00     0.034 A 
HETATM   40  C   UNL     1      17.857  43.455  44.399  1.00  0.00     0.030 A 
HETATM   41  C   UNL     1      17.494  42.973  43.137  1.00  0.00     0.009 A 
HETATM   42  C   UNL     1      16.254  43.294  42.582  1.00  0.00    -0.062 A 
HETATM   43  C   UNL     1      15.871  42.794  41.221  1.00  0.00     0.048 C 
HETATM   44  C   UNL     1      15.391  44.127  43.302  1.00  0.00     0.009 A 
HETATM   45  C   UNL     1      15.755  44.606  44.566  1.00  0.00     0.030 A 
ENDBRANCH  36  39
ENDBRANCH  34  35
ENDBRANCH   1  34
TORSDOF 8
ENDMDL
MODEL 8
REMARK VINA RESULT:     -10.1      4.221      7.419
REMARK  8 active torsions:
REMARK  status: ('A' for Active; 'I' for Inactive)
REMARK    1  A    between atoms: C_5  and  N_6 
REMARK       I    between atoms: N_6  and  C_7 
REMARK    2  A    between atoms: C_7  and  C_8 
REMARK    3  A    between atoms: C_8  and  N_9 
REMARK    4  A    between atoms: N_12  and  C_13 
REMARK    5  A    between atoms: C_13  and  C_14 
REMARK    6  A    between atoms: C_17  and  C_18 
REMARK       I    between atoms: C_18  and  N_19 
REMARK    7  A    between atoms: N_19  and  C_20 
REMARK    8  A    between atoms: C_20  and  C_21 
ROOT
HETATM    1  N   UNL     1      26.676  40.685  48.534  1.00  0.00    -0.290 N 
HETATM    2  C   UNL     1      25.423  40.887  49.101  1.00  0.00     0.332 C 
HETATM    3  O   UNL     1      25.245  40.702  50.306  1.00  0.00    -0.246 OA
HETATM    4  N   UNL     1      24.412  41.323  48.258  1.00  0.00    -0.261 N 
HETATM    5  C   UNL     1      24.559  41.505  46.889  1.00  0.00     0.264 C 
HETATM    6  O   UNL     1      23.730  42.059  46.171  1.00  0.00    -0.267 OA
HETATM    7  C   UNL     1      25.820  41.044  46.291  1.00  0.00     0.059 A 
HETATM    8  C   UNL     1      26.875  40.683  47.127  1.00  0.00     0.055 A 
HETATM    9  C   UNL     1      25.968  41.049  44.895  1.00  0.00     0.019 A 
HETATM   10  C   UNL     1      27.183  40.684  44.324  1.00  0.00     0.001 A 
HETATM   11  C   UNL     1      28.247  40.327  45.144  1.00  0.00     0.002 A 
HETATM   12  C   UNL     1      28.097  40.329  46.536  1.00  0.00     0.031 A 
ENDROOT
BRANCH   4  13
HETATM   13  C   UNL     1      23.207  41.866  48.874  1.00  0.00     0.175 C 
BRANCH  13  14
HETATM   14  C   UNL     1      23.255  43.350  49.167  1.00  0.00    -0.040 A 
HETATM   15  C   UNL     1      24.209  43.888  50.040  1.00  0.00     0.010 A 
HETATM   16  C   UNL     1      24.310  45.275  50.219  1.00  0.00     0.017 A 
HETATM   17  C   UNL     1      23.444  46.141  49.535  1.00  0.00     0.032 A 
HETATM   18  C   UNL     1      22.476  45.602  48.681  1.00  0.00     0.017 A 
HETATM   19  C   UNL     1      22.379  44.222  48.504  1.00  0.00     0.010 A 
BRANCH  17  20
HETATM   20  C   UNL     1      23.545  47.627  49.615  1.00  0.00     0.251 C 
HETATM   21  N   UNL     1      22.415  48.352  49.313  1.00  0.00    -0.353 N 
HETATM   22  H   UNL     1      21.604  47.899  48.920  1.00  0.00     0.163 HD
HETATM   23  O   UNL     1      24.610  48.148  49.926  1.00  0.00    -0.268 OA
BRANCH  21  24
HETATM   24  C   UNL     1      22.407  49.798  49.364  1.00  0.00     0.161 C 
BRANCH  24  25
HETATM   25  C   UNL     1      21.184  50.365  48.688  1.00  0.00    -0.038 A 
HETATM   26  C   UNL     1      20.622  49.716  47.577  1.00  0.00     0.048 A 
HETATM   27  C   UNL     1      19.489  50.261  47.010  1.00  0.00     0.105 A 
HETATM   28  C   UNL     1      18.910  51.407  47.501  1.00  0.00     0.105 A 
HETATM   29  O   UNL     1      18.819  49.758  45.939  1.00  0.00    -0.323 OA
HETATM   30  O   UNL     1      17.804  51.771  46.800  1.00  0.00    -0.323 OA
HETATM   31  C   UNL     1      19.429  52.072  48.590  1.00  0.00     0.040 A 
HETATM   32  C   UNL     1      17.742  50.711  45.823  1.00  0.00     0.352 A 
HETATM   33  C   UNL     1      20.575  51.539  49.190  1.00  0.00     0.012 A 
ENDBRANCH  24  25
ENDBRANCH  21  24
ENDBRANCH  17  20
ENDBRANCH  13  14
ENDBRANCH   4  13
BRANCH   1  34
HETATM   34  C   UNL     1      27.835  40.639  49.435  1.00  0.00     0.237 C 
BRANCH  34  35
HETATM   35  C   UNL     1      28.059  41.847  50.344  1.00  0.00     0.240 C 
HETATM   36  N   UNL     1      28.576  41.539  51.587  1.00  0.00    -0.326 N 
HETATM   37  H   UNL     1      28.763  40.560  51.766  1.00  0.00     0.169 HD
HETATM   38  O   UNL     1      27.680  42.955  49.970  1.00  0.00    -0.271 OA
BRANCH  36  39
HETATM   39  C   UNL     1      28.821  42.435  52.650  1.00  0.00     0.034 A 
HETATM   40  C   UNL     1      27.860  43.299  53.181  1.00  0.00     0.030 A 
HETATM   41  C   UNL     1      28.172  44.150  54.247  1.00  0.00     0.009 A 
HETATM   42  C   UNL     1      29.451  44.149  54.807  1.00  0.00    -0.062 A 
HETATM   43  C   UNL     1      29.792  45.074  55.938  1.00  0.00     0.048 C 
HETATM   44  C   UNL     1      30.422  43.301  54.266  1.00  0.00     0.009 A 
HETATM   45  C   UNL     1      30.107  42.448  53.201  1.00  0.00     0.030 A 
ENDBRANCH  36  39
ENDBRANCH  34  35
ENDBRANCH   1  34
TORSDOF 8
ENDMDL
MODEL 9
REMARK VINA RESULT:     -10.1      3.083      7.194
REMARK  8 active torsions:
REMARK  status: ('A' for Active; 'I' for Inactive)
REMARK    1  A    between atoms: C_5  and  N_6 
REMARK       I    between atoms: N_6  and  C_7 
REMARK    2  A    between atoms: C_7  and  C_8 
REMARK    3  A    between atoms: C_8  and  N_9 
REMARK    4  A    between atoms: N_12  and  C_13 
REMARK    5  A    between atoms: C_13  and  C_14 
REMARK    6  A    between atoms: C_17  and  C_18 
REMARK       I    between atoms: C_18  and  N_19 
REMARK    7  A    between atoms: N_19  and  C_20 
REMARK    8  A    between atoms: C_20  and  C_21 
ROOT
HETATM    1  N   UNL     1      27.033  44.354  50.947  1.00  0.00    -0.290 N 
HETATM    2  C   UNL     1      26.924  45.526  50.207  1.00  0.00     0.332 C 
HETATM    3  O   UNL     1      27.251  45.550  49.019  1.00  0.00    -0.246 OA
HETATM    4  N   UNL     1      26.412  46.638  50.860  1.00  0.00    -0.261 N 
HETATM    5  C   UNL     1      26.069  46.666  52.205  1.00  0.00     0.264 C 
HETATM    6  O   UNL     1      25.452  47.582  52.744  1.00  0.00    -0.267 OA
HETATM    7  C   UNL     1      26.434  45.489  53.007  1.00  0.00     0.059 A 
HETATM    8  C   UNL     1      26.869  44.335  52.358  1.00  0.00     0.055 A 
HETATM    9  C   UNL     1      26.263  45.519  54.400  1.00  0.00     0.019 A 
HETATM   10  C   UNL     1      26.535  44.385  55.158  1.00  0.00     0.001 A 
HETATM   11  C   UNL     1      26.965  43.223  54.525  1.00  0.00     0.002 A 
HETATM   12  C   UNL     1      27.128  43.196  53.135  1.00  0.00     0.031 A 
ENDROOT
BRANCH   4  13
HETATM   13  C   UNL     1      25.968  47.758  50.039  1.00  0.00     0.175 C 
BRANCH  13  14
HETATM   14  C   UNL     1      24.515  47.703  49.619  1.00  0.00    -0.040 A 
HETATM   15  C   UNL     1      23.763  48.873  49.448  1.00  0.00     0.010 A 
HETATM   16  C   UNL     1      22.451  48.811  48.956  1.00  0.00     0.017 A 
HETATM   17  C   UNL     1      21.871  47.574  48.643  1.00  0.00     0.032 A 
HETATM   18  C   UNL     1      22.613  46.404  48.837  1.00  0.00     0.017 A 
HETATM   19  C   UNL     1      23.919  46.468  49.325  1.00  0.00     0.010 A 
BRANCH  17  20
HETATM   20  C   UNL     1      20.511  47.439  48.043  1.00  0.00     0.251 C 
HETATM   21  N   UNL     1      19.434  47.663  48.869  1.00  0.00    -0.353 N 
HETATM   22  H   UNL     1      19.563  47.774  49.863  1.00  0.00     0.163 HD
HETATM   23  O   UNL     1      20.396  47.124  46.864  1.00  0.00    -0.268 OA
BRANCH  21  24
HETATM   24  C   UNL     1      18.074  47.560  48.383  1.00  0.00     0.161 C 
BRANCH  24  25
HETATM   25  C   UNL     1      17.340  48.869  48.527  1.00  0.00    -0.038 A 
HETATM   26  C   UNL     1      17.896  49.917  49.277  1.00  0.00     0.048 A 
HETATM   27  C   UNL     1      17.197  51.103  49.357  1.00  0.00     0.105 A 
HETATM   28  C   UNL     1      15.986  51.276  48.730  1.00  0.00     0.105 A 
HETATM   29  O   UNL     1      17.594  52.213  50.034  1.00  0.00    -0.323 OA
HETATM   30  O   UNL     1      15.468  52.516  48.935  1.00  0.00    -0.323 OA
HETATM   31  C   UNL     1      15.406  50.273  47.984  1.00  0.00     0.040 A 
HETATM   32  C   UNL     1      16.501  53.111  49.747  1.00  0.00     0.352 A 
HETATM   33  C   UNL     1      16.096  49.061  47.880  1.00  0.00     0.012 A 
ENDBRANCH  24  25
ENDBRANCH  21  24
ENDBRANCH  17  20
ENDBRANCH  13  14
ENDBRANCH   4  13
BRANCH   1  34
HETATM   34  C   UNL     1      27.162  43.091  50.210  1.00  0.00     0.237 C 
BRANCH  34  35
HETATM   35  C   UNL     1      25.868  42.404  49.773  1.00  0.00     0.240 C 
HETATM   36  N   UNL     1      25.470  42.701  48.485  1.00  0.00    -0.326 N 
HETATM   37  H   UNL     1      26.071  43.326  47.961  1.00  0.00     0.169 HD
HETATM   38  O   UNL     1      25.233  41.748  50.596  1.00  0.00    -0.271 OA
BRANCH  36  39
HETATM   39  C   UNL     1      24.289  42.271  47.840  1.00  0.00     0.034 A 
HETATM   40  C   UNL     1      23.209  43.106  47.550  1.00  0.00     0.030 A 
HETATM   41  C   UNL     1      22.076  42.612  46.894  1.00  0.00     0.009 A 
HETATM   42  C   UNL     1      22.004  41.271  46.512  1.00  0.00    -0.062 A 
HETATM   43  C   UNL     1      20.783  40.735  45.826  1.00  0.00     0.048 C 
HETATM   44  C   UNL     1      23.075  40.426  46.818  1.00  0.00     0.009 A 
HETATM   45  C   UNL     1      24.209  40.924  47.472  1.00  0.00     0.030 A 
ENDBRANCH  36  39
ENDBRANCH  34  35
ENDBRANCH   1  34
TORSDOF 8
ENDMDL
MODEL 10
REMARK VINA RESULT:     -10.0     11.857     16.207
REMARK  8 active torsions:
REMARK  status: ('A' for Active; 'I' for Inactive)
REMARK    1  A    between atoms: C_5  and  N_6 
REMARK       I    between atoms: N_6  and  C_7 
REMARK    2  A    between atoms: C_7  and  C_8 
REMARK    3  A    between atoms: C_8  and  N_9 
REMARK    4  A    between atoms: N_12  and  C_13 
REMARK    5  A    between atoms: C_13  and  C_14 
REMARK    6  A    between atoms: C_17  and  C_18 
REMARK       I    between atoms: C_18  and  N_19 
REMARK    7  A    between atoms: N_19  and  C_20 
REMARK    8  A    between atoms: C_20  and  C_21 
ROOT
HETATM    1  N   UNL     1      25.183  47.968  39.235  1.00  0.00    -0.290 N 
HETATM    2  C   UNL     1      26.423  47.354  39.116  1.00  0.00     0.332 C 
HETATM    3  O   UNL     1      27.215  47.706  38.239  1.00  0.00    -0.246 OA
HETATM    4  N   UNL     1      26.726  46.360  40.034  1.00  0.00    -0.261 N 
HETATM    5  C   UNL     1      25.850  45.905  41.011  1.00  0.00     0.264 C 
HETATM    6  O   UNL     1      26.169  45.160  41.935  1.00  0.00    -0.267 OA
HETATM    7  C   UNL     1      24.467  46.401  40.945  1.00  0.00     0.059 A 
HETATM    8  C   UNL     1      24.167  47.457  40.087  1.00  0.00     0.055 A 
HETATM    9  C   UNL     1      23.495  45.858  41.798  1.00  0.00     0.019 A 
HETATM   10  C   UNL     1      22.202  46.373  41.795  1.00  0.00     0.001 A 
HETATM   11  C   UNL     1      21.887  47.431  40.948  1.00  0.00     0.002 A 
HETATM   12  C   UNL     1      22.862  47.972  40.102  1.00  0.00     0.031 A 
ENDROOT
BRANCH   4  13
HETATM   13  C   UNL     1      28.120  45.950  40.151  1.00  0.00     0.175 C 
BRANCH  13  14
HETATM   14  C   UNL     1      29.063  47.029  40.638  1.00  0.00    -0.040 A 
HETATM   15  C   UNL     1      28.693  47.907  41.666  1.00  0.00     0.010 A 
HETATM   16  C   UNL     1      29.615  48.831  42.178  1.00  0.00     0.017 A 
HETATM   17  C   UNL     1      30.915  48.897  41.658  1.00  0.00     0.032 A 
HETATM   18  C   UNL     1      31.276  48.036  40.615  1.00  0.00     0.017 A 
HETATM   19  C   UNL     1      30.358  47.117  40.107  1.00  0.00     0.010 A 
BRANCH  17  20
HETATM   20  C   UNL     1      31.969  49.799  42.206  1.00  0.00     0.251 C 
HETATM   21  N   UNL     1      33.254  49.616  41.748  1.00  0.00    -0.353 N 
HETATM   22  H   UNL     1      33.487  48.818  41.177  1.00  0.00     0.163 HD
HETATM   23  O   UNL     1      31.671  50.646  43.041  1.00  0.00    -0.268 OA
BRANCH  21  24
HETATM   24  C   UNL     1      34.348  50.440  42.215  1.00  0.00     0.161 C 
BRANCH  24  25
HETATM   25  C   UNL     1      34.705  51.502  41.206  1.00  0.00    -0.038 A 
HETATM   26  C   UNL     1      35.944  52.158  41.273  1.00  0.00     0.048 A 
HETATM   27  C   UNL     1      36.233  53.104  40.312  1.00  0.00     0.105 A 
HETATM   28  C   UNL     1      35.346  53.413  39.308  1.00  0.00     0.105 A 
HETATM   29  O   UNL     1      37.384  53.824  40.229  1.00  0.00    -0.323 OA
HETATM   30  O   UNL     1      35.827  54.368  38.467  1.00  0.00    -0.323 OA
HETATM   31  C   UNL     1      34.122  52.792  39.205  1.00  0.00     0.040 A 
HETATM   32  C   UNL     1      37.126  54.610  39.047  1.00  0.00     0.352 A 
HETATM   33  C   UNL     1      33.804  51.823  40.163  1.00  0.00     0.012 A 
ENDBRANCH  24  25
ENDBRANCH  21  24
ENDBRANCH  17  20
ENDBRANCH  13  14
ENDBRANCH   4  13
BRANCH   1  34
HETATM   34  C   UNL     1      24.998  49.269  38.579  1.00  0.00     0.237 C 
BRANCH  34  35
HETATM   35  C   UNL     1      26.212  50.197  38.517  1.00  0.00     0.240 C 
HETATM   36  N   UNL     1      26.820  50.425  39.735  1.00  0.00    -0.326 N 
HETATM   37  H   UNL     1      26.416  49.954  40.535  1.00  0.00     0.169 HD
HETATM   38  O   UNL     1      26.490  50.745  37.452  1.00  0.00    -0.271 OA
BRANCH  36  39
HETATM   39  C   UNL     1      27.910  51.286  39.991  1.00  0.00     0.034 A 
HETATM   40  C   UNL     1      29.071  51.329  39.217  1.00  0.00     0.030 A 
HETATM   41  C   UNL     1      30.105  52.221  39.524  1.00  0.00     0.009 A 
HETATM   42  C   UNL     1      29.996  53.090  40.611  1.00  0.00    -0.062 A 
HETATM   43  C   UNL     1      31.111  54.032  40.952  1.00  0.00     0.048 C 
HETATM   44  C   UNL     1      28.844  53.036  41.401  1.00  0.00     0.009 A 
HETATM   45  C   UNL     1      27.809  52.145  41.091  1.00  0.00     0.030 A 
ENDBRANCH  36  39
ENDBRANCH  34  35
ENDBRANCH   1  34
TORSDOF 8
ENDMDL
