MODEL 1
REMARK VINA RESULT:      -9.7      0.000      0.000
REMARK  7 active torsions:
REMARK  status: ('A' for Active; 'I' for Inactive)
REMARK    1  A    between atoms: C_8  and  C_9 
REMARK    2  A    between atoms: C_9  and  C_10 
REMARK    3  A    between atoms: C_10  and  N_11 
REMARK       I    between atoms: N_11  and  C_12 
REMARK    4  A    between atoms: C_12  and  C_13 
REMARK    5  A    between atoms: C_13  and  C_14 
REMARK    6  A    between atoms: C_14  and  C_15 
REMARK    7  A    between atoms: C_15  and  N_16 
ROOT
HETATM    1  C   UNL     1      25.705  47.031  49.985  1.00  0.00     0.104 C 
ENDROOT
BRANCH   1   2
HETATM    2  C   UNL     1      25.000  48.230  49.387  1.00  0.00     0.217 C 
HETATM    3  N   UNL     1      23.662  48.044  49.132  1.00  0.00    -0.361 N 
HETATM    4  H   UNL     1      23.320  47.095  49.036  1.00  0.00     0.162 HD
HETATM    5  O   UNL     1      25.582  49.295  49.204  1.00  0.00    -0.274 OA
BRANCH   3   6
HETATM    6  C   UNL     1      22.876  49.098  48.513  1.00  0.00     0.127 C 
BRANCH   6   7
HETATM    7  C   UNL     1      21.600  48.577  47.846  1.00  0.00     0.060 C 
BRANCH   7   8
HETATM    8  C   UNL     1      20.361  48.902  48.624  1.00  0.00    -0.029 A 
HETATM    9  C   UNL     1      19.714  50.176  48.729  1.00  0.00    -0.002 A 
HETATM   10  C   UNL     1      19.967  51.455  48.191  1.00  0.00     0.014 A 
HETATM   11  C   UNL     1      18.612  50.016  49.569  1.00  0.00     0.042 A 
HETATM   12  C   UNL     1      19.123  52.522  48.521  1.00  0.00     0.001 A 
HETATM   13  C   UNL     1      18.032  52.329  49.365  1.00  0.00     0.002 A 
HETATM   14  C   UNL     1      17.753  51.070  49.905  1.00  0.00     0.030 A 
HETATM   15  N   UNL     1      18.578  48.695  49.947  1.00  0.00    -0.365 N 
HETATM   16  H   UNL     1      17.877  48.290  50.553  1.00  0.00     0.165 HD
HETATM   17  C   UNL     1      19.625  48.016  49.387  1.00  0.00     0.096 A 
ENDBRANCH   7   8
ENDBRANCH   6   7
ENDBRANCH   3   6
ENDBRANCH   1   2
BRANCH   1  18
HETATM   18  C   UNL     1      25.985  47.174  51.478  1.00  0.00     0.029 C 
BRANCH  18  19
HETATM   19  C   UNL     1      25.609  45.885  52.215  1.00  0.00     0.135 C 
BRANCH  19  20
HETATM   20  N   UNL     1      26.772  45.231  52.830  1.00  0.00    -0.290 N 
HETATM   21  C   UNL     1      27.436  44.174  52.208  1.00  0.00     0.181 A 
HETATM   22  S   UNL     1      27.047  43.455  50.743  1.00  0.00    -0.040 SA
HETATM   23  N   UNL     1      28.532  43.666  52.853  1.00  0.00    -0.332 N 
HETATM   24  C   UNL     1      29.011  44.139  54.071  1.00  0.00     0.050 A 
HETATM   25  H   UNL     1      29.015  42.907  52.383  1.00  0.00     0.168 HD
HETATM   26  C   UNL     1      28.342  45.167  54.720  1.00  0.00     0.060 A 
HETATM   27  C   UNL     1      30.161  43.581  54.630  1.00  0.00     0.032 A 
HETATM   28  C   UNL     1      27.136  45.732  54.090  1.00  0.00     0.262 A 
HETATM   29  C   UNL     1      28.814  45.655  55.944  1.00  0.00     0.038 A 
HETATM   30  O   UNL     1      26.513  46.608  54.689  1.00  0.00    -0.267 OA
HETATM   31  C   UNL     1      29.964  45.101  56.499  1.00  0.00     0.012 A 
HETATM   32  C   UNL     1      30.641  44.067  55.849  1.00  0.00     0.021 A 
HETATM   33 BR   UNL     1      30.620  45.756  58.147  1.00  0.00    -0.051 Br
ENDBRANCH  19  20
ENDBRANCH  18  19
ENDBRANCH   1  18
TORSDOF 7
ENDMDL
MODEL 2
REMARK VINA RESULT:      -9.6      1.406      1.702
REMARK  7 active torsions:
REMARK  status: ('A' for Active; 'I' for Inactive)
REMARK    1  A    between atoms: C_8  and  C_9 
REMARK    2  A    between atoms: C_9  and  C_10 
REMARK    3  A    between atoms: C_10  and  N_11 
REMARK       I    between atoms: N_11  and  C_12 
REMARK    4  A    between atoms: C_12  and  C_13 
REMARK    5  A    between atoms: C_13  and  C_14 
REMARK    6  A    between atoms: C_14  and  C_15 
REMARK    7  A    between atoms: C_15  and  N_16 
ROOT
HETATM    1  C   UNL     1      26.456  47.043  49.918  1.00  0.00     0.104 C 
ENDROOT
BRANCH   1   2
HETATM    2  C   UNL     1      26.177  48.423  49.362  1.00  0.00     0.217 C 
HETATM    3  N   UNL     1      24.845  48.718  49.192  1.00  0.00    -0.361 N 
HETATM    4  H   UNL     1      24.190  47.948  49.120  1.00  0.00     0.162 HD
HETATM    5  O   UNL     1      27.080  49.224  49.142  1.00  0.00    -0.274 OA
BRANCH   3   6
HETATM    6  C   UNL     1      24.438  49.991  48.621  1.00  0.00     0.127 C 
BRANCH   6   7
HETATM    7  C   UNL     1      23.211  49.873  47.713  1.00  0.00     0.060 C 
BRANCH   7   8
HETATM    8  C   UNL     1      21.974  49.468  48.454  1.00  0.00    -0.029 A 
HETATM    9  C   UNL     1      20.850  50.295  48.780  1.00  0.00    -0.002 A 
HETATM   10  C   UNL     1      20.520  51.645  48.541  1.00  0.00     0.014 A 
HETATM   11  C   UNL     1      19.944  49.506  49.490  1.00  0.00     0.042 A 
HETATM   12  C   UNL     1      19.312  52.157  49.029  1.00  0.00     0.001 A 
HETATM   13  C   UNL     1      18.431  51.344  49.736  1.00  0.00     0.002 A 
HETATM   14  C   UNL     1      18.728  50.000  49.979  1.00  0.00     0.030 A 
HETATM   15  N   UNL     1      20.485  48.246  49.579  1.00  0.00    -0.365 N 
HETATM   16  H   UNL     1      20.040  47.462  50.037  1.00  0.00     0.165 HD
HETATM   17  C   UNL     1      21.706  48.210  48.962  1.00  0.00     0.096 A 
ENDBRANCH   7   8
ENDBRANCH   6   7
ENDBRANCH   3   6
ENDBRANCH   1   2
BRANCH   1  18
HETATM   18  C   UNL     1      25.209  46.170  50.029  1.00  0.00     0.029 C 
BRANCH  18  19
HETATM   19  C   UNL     1      24.898  45.875  51.500  1.00  0.00     0.135 C 
BRANCH  19  20
HETATM   20  N   UNL     1      25.799  44.865  52.072  1.00  0.00    -0.290 N 
HETATM   21  C   UNL     1      25.719  43.520  51.714  1.00  0.00     0.181 A 
HETATM   22  S   UNL     1      24.624  42.817  50.655  1.00  0.00    -0.040 SA
HETATM   23  N   UNL     1      26.634  42.673  52.279  1.00  0.00    -0.332 N 
HETATM   24  C   UNL     1      27.623  43.074  53.172  1.00  0.00     0.050 A 
HETATM   25  H   UNL     1      26.574  41.699  51.999  1.00  0.00     0.168 HD
HETATM   26  C   UNL     1      27.696  44.403  53.565  1.00  0.00     0.060 A 
HETATM   27  C   UNL     1      28.537  42.141  53.663  1.00  0.00     0.032 A 
HETATM   28  C   UNL     1      26.716  45.356  53.015  1.00  0.00     0.262 A 
HETATM   29  C   UNL     1      28.687  44.822  54.460  1.00  0.00     0.038 A 
HETATM   30  O   UNL     1      26.747  46.523  53.403  1.00  0.00    -0.267 OA
HETATM   31  C   UNL     1      29.602  43.891  54.946  1.00  0.00     0.012 A 
HETATM   32  C   UNL     1      29.533  42.553  54.553  1.00  0.00     0.021 A 
HETATM   33 BR   UNL     1      30.953  44.443  56.148  1.00  0.00    -0.051 Br
ENDBRANCH  19  20
ENDBRANCH  18  19
ENDBRANCH   1  18
TORSDOF 7
ENDMDL
MODEL 3
REMARK VINA RESULT:      -9.5      3.509     11.159
REMARK  7 active torsions:
REMARK  status: ('A' for Active; 'I' for Inactive)
REMARK    1  A    between atoms: C_8  and  C_9 
REMARK    2  A    between atoms: C_9  and  C_10 
REMARK    3  A    between atoms: C_10  and  N_11 
REMARK       I    between atoms: N_11  and  C_12 
REMARK    4  A    between atoms: C_12  and  C_13 
REMARK    5  A    between atoms: C_13  and  C_14 
REMARK    6  A    between atoms: C_14  and  C_15 
REMARK    7  A    between atoms: C_15  and  N_16 
ROOT
HETATM    1  C   UNL     1      25.816  46.036  50.486  1.00  0.00     0.104 C 
ENDROOT
BRANCH   1   2
HETATM    2  C   UNL     1      25.938  45.090  51.661  1.00  0.00     0.217 C 
HETATM    3  N   UNL     1      27.192  44.555  51.842  1.00  0.00    -0.361 N 
HETATM    4  H   UNL     1      27.826  44.542  51.051  1.00  0.00     0.162 HD
HETATM    5  O   UNL     1      24.996  44.874  52.417  1.00  0.00    -0.274 OA
BRANCH   3   6
HETATM    6  C   UNL     1      27.437  43.592  52.903  1.00  0.00     0.127 C 
BRANCH   6   7
HETATM    7  C   UNL     1      28.885  43.606  53.399  1.00  0.00     0.060 C 
BRANCH   7   8
HETATM    8  C   UNL     1      29.089  44.504  54.582  1.00  0.00    -0.029 A 
HETATM    9  C   UNL     1      30.000  44.309  55.669  1.00  0.00    -0.002 A 
HETATM   10  C   UNL     1      30.950  43.317  55.992  1.00  0.00     0.014 A 
HETATM   11  C   UNL     1      29.835  45.380  56.549  1.00  0.00     0.042 A 
HETATM   12  C   UNL     1      31.683  43.424  57.179  1.00  0.00     0.001 A 
HETATM   13  C   UNL     1      31.493  44.505  58.036  1.00  0.00     0.002 A 
HETATM   14  C   UNL     1      30.565  45.506  57.737  1.00  0.00     0.030 A 
HETATM   15  N   UNL     1      28.874  46.203  56.010  1.00  0.00    -0.365 N 
HETATM   16  H   UNL     1      28.556  47.064  56.433  1.00  0.00     0.165 HD
HETATM   17  C   UNL     1      28.416  45.686  54.829  1.00  0.00     0.096 A 
ENDBRANCH   7   8
ENDBRANCH   6   7
ENDBRANCH   3   6
ENDBRANCH   1   2
BRANCH   1  18
HETATM   18  C   UNL     1      24.807  47.158  50.714  1.00  0.00     0.029 C 
BRANCH  18  19
HETATM   19  C   UNL     1      24.459  47.837  49.385  1.00  0.00     0.135 C 
BRANCH  19  20
HETATM   20  N   UNL     1      23.009  47.935  49.169  1.00  0.00    -0.290 N 
HETATM   21  C   UNL     1      22.249  46.837  48.769  1.00  0.00     0.181 A 
HETATM   22  S   UNL     1      22.802  45.288  48.439  1.00  0.00    -0.040 SA
HETATM   23  N   UNL     1      20.900  47.032  48.636  1.00  0.00    -0.332 N 
HETATM   24  C   UNL     1      20.259  48.243  48.876  1.00  0.00     0.050 A 
HETATM   25  H   UNL     1      20.356  46.221  48.359  1.00  0.00     0.168 HD
HETATM   26  C   UNL     1      21.004  49.356  49.241  1.00  0.00     0.060 A 
HETATM   27  C   UNL     1      18.872  48.333  48.752  1.00  0.00     0.032 A 
HETATM   28  C   UNL     1      22.465  49.214  49.368  1.00  0.00     0.262 A 
HETATM   29  C   UNL     1      20.373  50.580  49.489  1.00  0.00     0.038 A 
HETATM   30  O   UNL     1      23.132  50.211  49.641  1.00  0.00    -0.267 OA
HETATM   31  C   UNL     1      18.988  50.667  49.369  1.00  0.00     0.012 A 
HETATM   32  C   UNL     1      18.234  49.551  49.002  1.00  0.00     0.021 A 
HETATM   33 BR   UNL     1      18.119  52.311  49.710  1.00  0.00    -0.051 Br
ENDBRANCH  19  20
ENDBRANCH  18  19
ENDBRANCH   1  18
TORSDOF 7
ENDMDL
MODEL 4
REMARK VINA RESULT:      -9.5     12.106     13.808
REMARK  7 active torsions:
REMARK  status: ('A' for Active; 'I' for Inactive)
REMARK    1  A    between atoms: C_8  and  C_9 
REMARK    2  A    between atoms: C_9  and  C_10 
REMARK    3  A    between atoms: C_10  and  N_11 
REMARK       I    between atoms: N_11  and  C_12 
REMARK    4  A    between atoms: C_12  and  C_13 
REMARK    5  A    between atoms: C_13  and  C_14 
REMARK    6  A    between atoms: C_14  and  C_15 
REMARK    7  A    between atoms: C_15  and  N_16 
ROOT
HETATM    1  C   UNL     1      25.966  48.714  39.141  1.00  0.00     0.104 C 
ENDROOT
BRANCH   1   2
HETATM    2  C   UNL     1      26.694  50.029  38.962  1.00  0.00     0.217 C 
HETATM    3  N   UNL     1      26.897  50.739  40.121  1.00  0.00    -0.361 N 
HETATM    4  H   UNL     1      26.298  50.540  40.915  1.00  0.00     0.162 HD
HETATM    5  O   UNL     1      27.116  50.388  37.866  1.00  0.00    -0.274 OA
BRANCH   3   6
HETATM    6  C   UNL     1      27.540  52.042  40.086  1.00  0.00     0.127 C 
BRANCH   6   7
HETATM    7  C   UNL     1      28.440  52.296  41.297  1.00  0.00     0.060 C 
BRANCH   7   8
HETATM    8  C   UNL     1      29.850  52.632  40.916  1.00  0.00    -0.029 A 
HETATM    9  C   UNL     1      30.656  51.988  39.922  1.00  0.00    -0.002 A 
HETATM   10  C   UNL     1      30.443  50.922  39.023  1.00  0.00     0.014 A 
HETATM   11  C   UNL     1      31.902  52.616  39.924  1.00  0.00     0.042 A 
HETATM   12  C   UNL     1      31.481  50.518  38.175  1.00  0.00     0.001 A 
HETATM   13  C   UNL     1      32.714  51.165  38.203  1.00  0.00     0.002 A 
HETATM   14  C   UNL     1      32.948  52.230  39.078  1.00  0.00     0.030 A 
HETATM   15  N   UNL     1      31.852  53.614  40.868  1.00  0.00    -0.365 N 
HETATM   16  H   UNL     1      32.617  54.240  41.081  1.00  0.00     0.165 HD
HETATM   17  C   UNL     1      30.625  53.633  41.473  1.00  0.00     0.096 A 
ENDBRANCH   7   8
ENDBRANCH   6   7
ENDBRANCH   3   6
ENDBRANCH   1   2
BRANCH   1  18
HETATM   18  C   UNL     1      26.889  47.500  39.111  1.00  0.00     0.029 C 
BRANCH  18  19
HETATM   19  C   UNL     1      27.401  47.187  40.521  1.00  0.00     0.135 C 
BRANCH  19  20
HETATM   20  N   UNL     1      28.834  47.475  40.675  1.00  0.00    -0.290 N 
HETATM   21  C   UNL     1      29.803  46.793  39.940  1.00  0.00     0.181 A 
HETATM   22  S   UNL     1      29.553  45.559  38.831  1.00  0.00    -0.040 SA
HETATM   23  N   UNL     1      31.106  47.170  40.134  1.00  0.00    -0.332 N 
HETATM   24  C   UNL     1      31.506  48.179  41.005  1.00  0.00     0.050 A 
HETATM   25  H   UNL     1      31.800  46.676  39.583  1.00  0.00     0.168 HD
HETATM   26  C   UNL     1      30.557  48.844  41.769  1.00  0.00     0.060 A 
HETATM   27  C   UNL     1      32.855  48.518  41.103  1.00  0.00     0.032 A 
HETATM   28  C   UNL     1      29.141  48.459  41.627  1.00  0.00     0.262 A 
HETATM   29  C   UNL     1      30.944  49.863  42.647  1.00  0.00     0.038 A 
HETATM   30  O   UNL     1      28.306  49.012  42.341  1.00  0.00    -0.267 OA
HETATM   31  C   UNL     1      32.291  50.204  42.740  1.00  0.00     0.012 A 
HETATM   32  C   UNL     1      33.249  49.538  41.974  1.00  0.00     0.021 A 
HETATM   33 BR   UNL     1      32.829  51.585  43.915  1.00  0.00    -0.051 Br
ENDBRANCH  19  20
ENDBRANCH  18  19
ENDBRANCH   1  18
TORSDOF 7
ENDMDL
MODEL 5
REMARK VINA RESULT:      -9.2      3.864     10.516
REMARK  7 active torsions:
REMARK  status: ('A' for Active; 'I' for Inactive)
REMARK    1  A    between atoms: C_8  and  C_9 
REMARK    2  A    between atoms: C_9  and  C_10 
REMARK    3  A    between atoms: C_10  and  N_11 
REMARK       I    between atoms: N_11  and  C_12 
REMARK    4  A    between atoms: C_12  and  C_13 
REMARK    5  A    between atoms: C_13  and  C_14 
REMARK    6  A    between atoms: C_14  and  C_15 
REMARK    7  A    between atoms: C_15  and  N_16 
ROOT
HETATM    1  C   UNL     1      26.031  41.333  50.779  1.00  0.00     0.104 C 
ENDROOT
BRANCH   1   2
HETATM    2  C   UNL     1      27.388  41.084  51.402  1.00  0.00     0.217 C 
HETATM    3  N   UNL     1      27.439  41.265  52.764  1.00  0.00    -0.361 N 
HETATM    4  H   UNL     1      26.728  41.842  53.197  1.00  0.00     0.162 HD
HETATM    5  O   UNL     1      28.342  40.693  50.736  1.00  0.00    -0.274 OA
BRANCH   3   6
HETATM    6  C   UNL     1      28.693  41.106  53.483  1.00  0.00     0.127 C 
BRANCH   6   7
HETATM    7  C   UNL     1      29.690  42.231  53.199  1.00  0.00     0.060 C 
BRANCH   7   8
HETATM    8  C   UNL     1      29.444  43.453  54.030  1.00  0.00    -0.029 A 
HETATM    9  C   UNL     1      30.062  43.790  55.278  1.00  0.00    -0.002 A 
HETATM   10  C   UNL     1      31.032  43.173  56.094  1.00  0.00     0.014 A 
HETATM   11  C   UNL     1      29.516  45.004  55.699  1.00  0.00     0.042 A 
HETATM   12  C   UNL     1      31.409  43.779  57.298  1.00  0.00     0.001 A 
HETATM   13  C   UNL     1      30.843  44.989  57.691  1.00  0.00     0.002 A 
HETATM   14  C   UNL     1      29.886  45.628  56.897  1.00  0.00     0.030 A 
HETATM   15  N   UNL     1      28.616  45.399  54.739  1.00  0.00    -0.365 N 
HETATM   16  H   UNL     1      28.074  46.251  54.778  1.00  0.00     0.165 HD
HETATM   17  C   UNL     1      28.562  44.475  53.732  1.00  0.00     0.096 A 
ENDBRANCH   7   8
ENDBRANCH   6   7
ENDBRANCH   3   6
ENDBRANCH   1   2
BRANCH   1  18
HETATM   18  C   UNL     1      25.888  42.728  50.176  1.00  0.00     0.029 C 
BRANCH  18  19
HETATM   19  C   UNL     1      24.788  43.509  50.902  1.00  0.00     0.135 C 
BRANCH  19  20
HETATM   20  N   UNL     1      24.049  44.405  50.001  1.00  0.00    -0.290 N 
HETATM   21  C   UNL     1      23.188  43.913  49.019  1.00  0.00     0.181 A 
HETATM   22  S   UNL     1      22.871  42.305  48.663  1.00  0.00    -0.040 SA
HETATM   23  N   UNL     1      22.521  44.839  48.262  1.00  0.00    -0.332 N 
HETATM   24  C   UNL     1      22.649  46.215  48.418  1.00  0.00     0.050 A 
HETATM   25  H   UNL     1      21.887  44.468  47.561  1.00  0.00     0.168 HD
HETATM   26  C   UNL     1      23.526  46.721  49.367  1.00  0.00     0.060 A 
HETATM   27  C   UNL     1      21.894  47.078  47.624  1.00  0.00     0.032 A 
HETATM   28  C   UNL     1      24.298  45.773  50.190  1.00  0.00     0.262 A 
HETATM   29  C   UNL     1      23.663  48.103  49.538  1.00  0.00     0.038 A 
HETATM   30  O   UNL     1      25.113  46.220  50.996  1.00  0.00    -0.267 OA
HETATM   31  C   UNL     1      22.905  48.964  48.748  1.00  0.00     0.012 A 
HETATM   32  C   UNL     1      22.021  48.460  47.792  1.00  0.00     0.021 A 
HETATM   33 BR   UNL     1      23.071  50.834  48.973  1.00  0.00    -0.051 Br
ENDBRANCH  19  20
ENDBRANCH  18  19
ENDBRANCH   1  18
TORSDOF 7
ENDMDL
MODEL 6
REMARK VINA RESULT:      -9.1      2.827      4.618
REMARK  7 active torsions:
REMARK  status: ('A' for Active; 'I' for Inactive)
REMARK    1  A    between atoms: C_8  and  C_9 
REMARK    2  A    between atoms: C_9  and  C_10 
REMARK    3  A    between atoms: C_10  and  N_11 
REMARK       I    between atoms: N_11  and  C_12 
REMARK    4  A    between atoms: C_12  and  C_13 
REMARK    5  A    between atoms: C_13  and  C_14 
REMARK    6  A    between atoms: C_14  and  C_15 
REMARK    7  A    between atoms: C_15  and  N_16 
ROOT
HETATM    1  C   UNL     1      23.514  44.059  48.181  1.00  0.00     0.104 C 
ENDROOT
BRANCH   1   2
HETATM    2  C   UNL     1      22.331  44.967  48.438  1.00  0.00     0.217 C 
HETATM    3  N   UNL     1      22.477  46.251  47.969  1.00  0.00    -0.361 N 
HETATM    4  H   UNL     1      23.416  46.596  47.803  1.00  0.00     0.162 HD
HETATM    5  O   UNL     1      21.305  44.556  48.972  1.00  0.00    -0.274 OA
BRANCH   3   6
HETATM    6  C   UNL     1      21.437  47.242  48.191  1.00  0.00     0.127 C 
BRANCH   6   7
HETATM    7  C   UNL     1      21.877  48.370  49.127  1.00  0.00     0.060 C 
BRANCH   7   8
HETATM    8  C   UNL     1      23.122  49.062  48.662  1.00  0.00    -0.029 A 
HETATM    9  C   UNL     1      24.471  48.758  49.034  1.00  0.00    -0.002 A 
HETATM   10  C   UNL     1      25.067  47.794  49.874  1.00  0.00     0.014 A 
HETATM   11  C   UNL     1      25.300  49.669  48.378  1.00  0.00     0.042 A 
HETATM   12  C   UNL     1      26.457  47.785  50.037  1.00  0.00     0.001 A 
HETATM   13  C   UNL     1      27.256  48.710  49.369  1.00  0.00     0.002 A 
HETATM   14  C   UNL     1      26.693  49.670  48.524  1.00  0.00     0.030 A 
HETATM   15  N   UNL     1      24.491  50.483  47.623  1.00  0.00    -0.365 N 
HETATM   16  H   UNL     1      24.823  51.235  47.034  1.00  0.00     0.165 HD
HETATM   17  C   UNL     1      23.179  50.130  47.786  1.00  0.00     0.096 A 
ENDBRANCH   7   8
ENDBRANCH   6   7
ENDBRANCH   3   6
ENDBRANCH   1   2
BRANCH   1  18
HETATM   18  C   UNL     1      24.666  44.273  49.158  1.00  0.00     0.029 C 
BRANCH  18  19
HETATM   19  C   UNL     1      24.351  43.613  50.504  1.00  0.00     0.135 C 
BRANCH  19  20
HETATM   20  N   UNL     1      25.565  43.272  51.259  1.00  0.00    -0.290 N 
HETATM   21  C   UNL     1      26.279  42.100  51.014  1.00  0.00     0.181 A 
HETATM   22  S   UNL     1      25.903  40.897  49.906  1.00  0.00    -0.040 SA
HETATM   23  N   UNL     1      27.417  41.903  51.750  1.00  0.00    -0.332 N 
HETATM   24  C   UNL     1      27.893  42.793  52.707  1.00  0.00     0.050 A 
HETATM   25  H   UNL     1      27.935  41.053  51.552  1.00  0.00     0.168 HD
HETATM   26  C   UNL     1      27.177  43.948  52.988  1.00  0.00     0.060 A 
HETATM   27  C   UNL     1      29.086  42.523  53.377  1.00  0.00     0.032 A 
HETATM   28  C   UNL     1      25.925  44.198  52.251  1.00  0.00     0.262 A 
HETATM   29  C   UNL     1      27.644  44.855  53.946  1.00  0.00     0.038 A 
HETATM   30  O   UNL     1      25.263  45.196  52.535  1.00  0.00    -0.267 OA
HETATM   31  C   UNL     1      28.838  44.586  54.610  1.00  0.00     0.012 A 
HETATM   32  C   UNL     1      29.562  43.426  54.331  1.00  0.00     0.021 A 
HETATM   33 BR   UNL     1      29.488  45.806  55.901  1.00  0.00    -0.051 Br
ENDBRANCH  19  20
ENDBRANCH  18  19
ENDBRANCH   1  18
TORSDOF 7
ENDMDL
MODEL 7
REMARK VINA RESULT:      -9.1      3.903     10.527
REMARK  7 active torsions:
REMARK  status: ('A' for Active; 'I' for Inactive)
REMARK    1  A    between atoms: C_8  and  C_9 
REMARK    2  A    between atoms: C_9  and  C_10 
REMARK    3  A    between atoms: C_10  and  N_11 
REMARK       I    between atoms: N_11  and  C_12 
REMARK    4  A    between atoms: C_12  and  C_13 
REMARK    5  A    between atoms: C_13  and  C_14 
REMARK    6  A    between atoms: C_14  and  C_15 
REMARK    7  A    between atoms: C_15  and  N_16 
ROOT
HETATM    1  C   UNL     1      24.564  43.497  50.113  1.00  0.00     0.104 C 
ENDROOT
BRANCH   1   2
HETATM    2  C   UNL     1      25.407  43.601  51.366  1.00  0.00     0.217 C 
HETATM    3  N   UNL     1      24.911  44.454  52.324  1.00  0.00    -0.361 N 
HETATM    4  H   UNL     1      24.257  45.172  52.034  1.00  0.00     0.162 HD
HETATM    5  O   UNL     1      26.419  42.925  51.521  1.00  0.00    -0.274 OA
BRANCH   3   6
HETATM    6  C   UNL     1      25.646  44.686  53.557  1.00  0.00     0.127 C 
BRANCH   6   7
HETATM    7  C   UNL     1      26.628  45.855  53.455  1.00  0.00     0.060 C 
BRANCH   7   8
HETATM    8  C   UNL     1      27.670  45.838  54.532  1.00  0.00    -0.029 A 
HETATM    9  C   UNL     1      28.730  44.888  54.695  1.00  0.00    -0.002 A 
HETATM   10  C   UNL     1      29.149  43.749  53.978  1.00  0.00     0.014 A 
HETATM   11  C   UNL     1      29.440  45.250  55.840  1.00  0.00     0.042 A 
HETATM   12  C   UNL     1      30.247  43.010  54.436  1.00  0.00     0.001 A 
HETATM   13  C   UNL     1      30.933  43.397  55.584  1.00  0.00     0.002 A 
HETATM   14  C   UNL     1      30.544  44.527  56.309  1.00  0.00     0.030 A 
HETATM   15  N   UNL     1      28.849  46.384  56.344  1.00  0.00    -0.365 N 
HETATM   16  H   UNL     1      29.161  46.874  57.171  1.00  0.00     0.165 HD
HETATM   17  C   UNL     1      27.782  46.746  55.568  1.00  0.00     0.096 A 
ENDBRANCH   7   8
ENDBRANCH   6   7
ENDBRANCH   3   6
ENDBRANCH   1   2
BRANCH   1  18
HETATM   18  C   UNL     1      23.441  44.527  50.048  1.00  0.00     0.029 C 
BRANCH  18  19
HETATM   19  C   UNL     1      23.524  45.322  48.742  1.00  0.00     0.135 C 
BRANCH  19  20
HETATM   20  N   UNL     1      23.202  46.744  48.929  1.00  0.00    -0.290 N 
HETATM   21  C   UNL     1      24.118  47.639  49.481  1.00  0.00     0.181 A 
HETATM   22  S   UNL     1      25.660  47.292  50.043  1.00  0.00    -0.040 SA
HETATM   23  N   UNL     1      23.727  48.948  49.573  1.00  0.00    -0.332 N 
HETATM   24  C   UNL     1      22.490  49.425  49.149  1.00  0.00     0.050 A 
HETATM   25  H   UNL     1      24.408  49.591  49.963  1.00  0.00     0.168 HD
HETATM   26  C   UNL     1      21.554  48.543  48.629  1.00  0.00     0.060 A 
HETATM   27  C   UNL     1      22.199  50.786  49.247  1.00  0.00     0.032 A 
HETATM   28  C   UNL     1      21.906  47.115  48.537  1.00  0.00     0.262 A 
HETATM   29  C   UNL     1      20.307  49.009  48.197  1.00  0.00     0.038 A 
HETATM   30  O   UNL     1      21.059  46.324  48.124  1.00  0.00    -0.267 OA
HETATM   31  C   UNL     1      20.020  50.368  48.290  1.00  0.00     0.012 A 
HETATM   32  C   UNL     1      20.958  51.260  48.813  1.00  0.00     0.021 A 
HETATM   33 BR   UNL     1      18.343  51.014  47.701  1.00  0.00    -0.051 Br
ENDBRANCH  19  20
ENDBRANCH  18  19
ENDBRANCH   1  18
TORSDOF 7
ENDMDL
MODEL 8
REMARK VINA RESULT:      -9.0      4.458     10.662
REMARK  7 active torsions:
REMARK  status: ('A' for Active; 'I' for Inactive)
REMARK    1  A    between atoms: C_8  and  C_9 
REMARK    2  A    between atoms: C_9  and  C_10 
REMARK    3  A    between atoms: C_10  and  N_11 
REMARK       I    between atoms: N_11  and  C_12 
REMARK    4  A    between atoms: C_12  and  C_13 
REMARK    5  A    between atoms: C_13  and  C_14 
REMARK    6  A    between atoms: C_14  and  C_15 
REMARK    7  A    between atoms: C_15  and  N_16 
ROOT
HETATM    1  C   UNL     1      26.706  40.658  50.388  1.00  0.00     0.104 C 
ENDROOT
BRANCH   1   2
HETATM    2  C   UNL     1      27.722  40.764  51.505  1.00  0.00     0.217 C 
HETATM    3  N   UNL     1      27.356  41.590  52.541  1.00  0.00    -0.361 N 
HETATM    4  H   UNL     1      26.651  42.296  52.364  1.00  0.00     0.162 HD
HETATM    5  O   UNL     1      28.761  40.110  51.497  1.00  0.00    -0.274 OA
BRANCH   3   6
HETATM    6  C   UNL     1      28.260  41.821  53.656  1.00  0.00     0.127 C 
BRANCH   6   7
HETATM    7  C   UNL     1      29.270  42.938  53.384  1.00  0.00     0.060 C 
BRANCH   7   8
HETATM    8  C   UNL     1      29.254  44.008  54.432  1.00  0.00    -0.029 A 
HETATM    9  C   UNL     1      30.065  44.077  55.611  1.00  0.00    -0.002 A 
HETATM   10  C   UNL     1      31.075  43.260  56.160  1.00  0.00     0.014 A 
HETATM   11  C   UNL     1      29.697  45.231  56.304  1.00  0.00     0.042 A 
HETATM   12  C   UNL     1      31.667  43.617  57.377  1.00  0.00     0.001 A 
HETATM   13  C   UNL     1      31.275  44.775  58.044  1.00  0.00     0.002 A 
HETATM   14  C   UNL     1      30.283  45.607  57.518  1.00  0.00     0.030 A 
HETATM   15  N   UNL     1      28.715  45.850  55.568  1.00  0.00    -0.365 N 
HETATM   16  H   UNL     1      28.265  46.717  55.827  1.00  0.00     0.165 HD
HETATM   17  C   UNL     1      28.438  45.124  54.442  1.00  0.00     0.096 A 
ENDBRANCH   7   8
ENDBRANCH   6   7
ENDBRANCH   3   6
ENDBRANCH   1   2
BRANCH   1  18
HETATM   18  C   UNL     1      25.647  41.756  50.425  1.00  0.00     0.029 C 
BRANCH  18  19
HETATM   19  C   UNL     1      25.644  42.536  49.107  1.00  0.00     0.135 C 
BRANCH  19  20
HETATM   20  N   UNL     1      25.137  43.906  49.266  1.00  0.00    -0.290 N 
HETATM   21  C   UNL     1      25.900  44.907  49.866  1.00  0.00     0.181 A 
HETATM   22  S   UNL     1      27.438  44.755  50.519  1.00  0.00    -0.040 SA
HETATM   23  N   UNL     1      25.344  46.157  49.927  1.00  0.00    -0.332 N 
HETATM   24  C   UNL     1      24.084  46.477  49.429  1.00  0.00     0.050 A 
HETATM   25  H   UNL     1      25.915  46.880  50.352  1.00  0.00     0.168 HD
HETATM   26  C   UNL     1      23.297  45.485  48.860  1.00  0.00     0.060 A 
HETATM   27  C   UNL     1      23.621  47.790  49.502  1.00  0.00     0.032 A 
HETATM   28  C   UNL     1      23.830  44.112  48.797  1.00  0.00     0.262 A 
HETATM   29  C   UNL     1      22.030  45.792  48.353  1.00  0.00     0.038 A 
HETATM   30  O   UNL     1      23.114  43.223  48.340  1.00  0.00    -0.267 OA
HETATM   31  C   UNL     1      21.570  47.105  48.422  1.00  0.00     0.012 A 
HETATM   32  C   UNL     1      22.358  48.106  48.993  1.00  0.00     0.021 A 
HETATM   33 BR   UNL     1      19.863  47.538  47.732  1.00  0.00    -0.051 Br
ENDBRANCH  19  20
ENDBRANCH  18  19
ENDBRANCH   1  18
TORSDOF 7
ENDMDL
MODEL 9
REMARK VINA RESULT:      -8.8      2.606      3.472
REMARK  7 active torsions:
REMARK  status: ('A' for Active; 'I' for Inactive)
REMARK    1  A    between atoms: C_8  and  C_9 
REMARK    2  A    between atoms: C_9  and  C_10 
REMARK    3  A    between atoms: C_10  and  N_11 
REMARK       I    between atoms: N_11  and  C_12 
REMARK    4  A    between atoms: C_12  and  C_13 
REMARK    5  A    between atoms: C_13  and  C_14 
REMARK    6  A    between atoms: C_14  and  C_15 
REMARK    7  A    between atoms: C_15  and  N_16 
ROOT
HETATM    1  C   UNL     1      24.668  42.749  49.738  1.00  0.00     0.104 C 
ENDROOT
BRANCH   1   2
HETATM    2  C   UNL     1      23.265  43.317  49.778  1.00  0.00     0.217 C 
HETATM    3  N   UNL     1      22.997  44.259  48.814  1.00  0.00    -0.361 N 
HETATM    4  H   UNL     1      23.779  44.742  48.385  1.00  0.00     0.162 HD
HETATM    5  O   UNL     1      22.428  42.913  50.581  1.00  0.00    -0.274 OA
BRANCH   3   6
HETATM    6  C   UNL     1      21.704  44.922  48.769  1.00  0.00     0.127 C 
BRANCH   6   7
HETATM    7  C   UNL     1      21.679  46.117  47.814  1.00  0.00     0.060 C 
BRANCH   7   8
HETATM    8  C   UNL     1      21.278  47.395  48.486  1.00  0.00    -0.029 A 
HETATM    9  C   UNL     1      22.015  48.622  48.525  1.00  0.00    -0.002 A 
HETATM   10  C   UNL     1      23.252  49.043  47.994  1.00  0.00     0.014 A 
HETATM   11  C   UNL     1      21.272  49.532  49.277  1.00  0.00     0.042 A 
HETATM   12  C   UNL     1      23.703  50.345  48.244  1.00  0.00     0.001 A 
HETATM   13  C   UNL     1      22.938  51.228  49.001  1.00  0.00     0.002 A 
HETATM   14  C   UNL     1      21.705  50.839  49.531  1.00  0.00     0.030 A 
HETATM   15  N   UNL     1      20.120  48.892  49.666  1.00  0.00    -0.365 N 
HETATM   16  H   UNL     1      19.388  49.315  50.220  1.00  0.00     0.165 HD
HETATM   17  C   UNL     1      20.112  47.606  49.200  1.00  0.00     0.096 A 
ENDBRANCH   7   8
ENDBRANCH   6   7
ENDBRANCH   3   6
ENDBRANCH   1   2
BRANCH   1  18
HETATM   18  C   UNL     1      25.434  42.930  51.045  1.00  0.00     0.029 C 
BRANCH  18  19
HETATM   19  C   UNL     1      26.678  43.794  50.816  1.00  0.00     0.135 C 
BRANCH  19  20
HETATM   20  N   UNL     1      27.148  44.439  52.050  1.00  0.00    -0.290 N 
HETATM   21  C   UNL     1      26.562  45.607  52.538  1.00  0.00     0.181 A 
HETATM   22  S   UNL     1      25.309  46.479  51.842  1.00  0.00    -0.040 SA
HETATM   23  N   UNL     1      27.053  46.100  53.717  1.00  0.00    -0.332 N 
HETATM   24  C   UNL     1      28.082  45.509  54.443  1.00  0.00     0.050 A 
HETATM   25  H   UNL     1      26.609  46.942  54.069  1.00  0.00     0.168 HD
HETATM   26  C   UNL     1      28.700  44.366  53.955  1.00  0.00     0.060 A 
HETATM   27  C   UNL     1      28.486  46.066  55.657  1.00  0.00     0.032 A 
HETATM   28  C   UNL     1      28.236  43.807  52.673  1.00  0.00     0.262 A 
HETATM   29  C   UNL     1      29.734  43.759  54.675  1.00  0.00     0.038 A 
HETATM   30  O   UNL     1      28.816  42.824  52.214  1.00  0.00    -0.267 OA
HETATM   31  C   UNL     1      30.133  44.312  55.889  1.00  0.00     0.012 A 
HETATM   32  C   UNL     1      29.515  45.462  56.385  1.00  0.00     0.021 A 
HETATM   33 BR   UNL     1      31.523  43.498  56.880  1.00  0.00    -0.051 Br
ENDBRANCH  19  20
ENDBRANCH  18  19
ENDBRANCH   1  18
TORSDOF 7
ENDMDL
MODEL 10
REMARK VINA RESULT:      -8.8      2.010      2.155
REMARK  7 active torsions:
REMARK  status: ('A' for Active; 'I' for Inactive)
REMARK    1  A    between atoms: C_8  and  C_9 
REMARK    2  A    between atoms: C_9  and  C_10 
REMARK    3  A    between atoms: C_10  and  N_11 
REMARK       I    between atoms: N_11  and  C_12 
REMARK    4  A    between atoms: C_12  and  C_13 
REMARK    5  A    between atoms: C_13  and  C_14 
REMARK    6  A    between atoms: C_14  and  C_15 
REMARK    7  A    between atoms: C_15  and  N_16 
ROOT
HETATM    1  C   UNL     1      24.171  44.281  49.008  1.00  0.00     0.104 C 
ENDROOT
BRANCH   1   2
HETATM    2  C   UNL     1      22.773  44.833  48.830  1.00  0.00     0.217 C 
HETATM    3  N   UNL     1      22.708  46.036  48.167  1.00  0.00    -0.361 N 
HETATM    4  H   UNL     1      23.539  46.615  48.143  1.00  0.00     0.162 HD
HETATM    5  O   UNL     1      21.782  44.212  49.203  1.00  0.00    -0.274 OA
BRANCH   3   6
HETATM    6  C   UNL     1      21.431  46.703  47.971  1.00  0.00     0.127 C 
BRANCH   6   7
HETATM    7  C   UNL     1      21.480  48.196  48.301  1.00  0.00     0.060 C 
BRANCH   7   8
HETATM    8  C   UNL     1      20.219  48.696  48.937  1.00  0.00    -0.029 A 
HETATM    9  C   UNL     1      19.704  50.032  48.906  1.00  0.00    -0.002 A 
HETATM   10  C   UNL     1      20.138  51.240  48.322  1.00  0.00     0.014 A 
HETATM   11  C   UNL     1      18.522  50.041  49.647  1.00  0.00     0.042 A 
HETATM   12  C   UNL     1      19.386  52.406  48.508  1.00  0.00     0.001 A 
HETATM   13  C   UNL     1      18.211  52.381  49.255  1.00  0.00     0.002 A 
HETATM   14  C   UNL     1      17.754  51.196  49.838  1.00  0.00     0.030 A 
HETATM   15  N   UNL     1      18.314  48.759  50.095  1.00  0.00    -0.365 N 
HETATM   16  H   UNL     1      17.524  48.468  50.655  1.00  0.00     0.165 HD
HETATM   17  C   UNL     1      19.328  47.941  49.678  1.00  0.00     0.096 A 
ENDBRANCH   7   8
ENDBRANCH   6   7
ENDBRANCH   3   6
ENDBRANCH   1   2
BRANCH   1  18
HETATM   18  C   UNL     1      24.867  44.787  50.268  1.00  0.00     0.029 C 
BRANCH  18  19
HETATM   19  C   UNL     1      24.770  43.742  51.383  1.00  0.00     0.135 C 
BRANCH  19  20
HETATM   20  N   UNL     1      26.082  43.410  51.956  1.00  0.00    -0.290 N 
HETATM   21  C   UNL     1      26.874  42.386  51.436  1.00  0.00     0.181 A 
HETATM   22  S   UNL     1      26.500  41.366  50.158  1.00  0.00    -0.040 SA
HETATM   23  N   UNL     1      28.096  42.190  52.022  1.00  0.00    -0.332 N 
HETATM   24  C   UNL     1      28.582  42.943  53.086  1.00  0.00     0.050 A 
HETATM   25  H   UNL     1      28.668  41.452  51.625  1.00  0.00     0.168 HD
HETATM   26  C   UNL     1      27.794  43.942  53.638  1.00  0.00     0.060 A 
HETATM   27  C   UNL     1      29.859  42.692  53.590  1.00  0.00     0.032 A 
HETATM   28  C   UNL     1      26.454  44.179  53.070  1.00  0.00     0.262 A 
HETATM   29  C   UNL     1      28.270  44.710  54.707  1.00  0.00     0.038 A 
HETATM   30  O   UNL     1      25.735  45.029  53.591  1.00  0.00    -0.267 OA
HETATM   31  C   UNL     1      29.547  44.462  55.205  1.00  0.00     0.012 A 
HETATM   32  C   UNL     1      30.344  43.458  54.653  1.00  0.00     0.021 A 
HETATM   33 BR   UNL     1      30.209  45.498  56.642  1.00  0.00    -0.051 Br
ENDBRANCH  19  20
ENDBRANCH  18  19
ENDBRANCH   1  18
TORSDOF 7
ENDMDL
