MODEL 1
REMARK VINA RESULT:      -8.0      0.000      0.000
REMARK  3 active torsions:
REMARK  status: ('A' for Active; 'I' for Inactive)
REMARK    1  A    between atoms: C_4  and  C_5 
REMARK    2  A    between atoms: C_11  and  C_12 
REMARK    3  A    between atoms: C_21  and  N_22 
ROOT
HETATM    1  C   UNL     1      21.453  46.975  48.570  1.00  0.00     0.071 A 
HETATM    2  N   UNL     1      21.817  45.748  49.091  1.00  0.00    -0.274 N 
HETATM    3  H   UNL     1      22.716  45.488  49.480  1.00  0.00     0.189 HD
HETATM    4  N   UNL     1      20.868  44.798  48.992  1.00  0.00    -0.148 NA
HETATM    5  C   UNL     1      19.875  45.458  48.416  1.00  0.00     0.199 A 
HETATM    6  C   UNL     1      20.138  46.815  48.169  1.00  0.00     0.036 A 
HETATM    7  C   UNL     1      19.092  47.681  47.534  1.00  0.00     0.079 C 
HETATM    8  C   UNL     1      18.064  46.766  46.843  1.00  0.00     0.063 C 
HETATM    9  C   UNL     1      17.197  47.415  45.776  1.00  0.00     0.020 C 
HETATM   10  N   UNL     1      16.477  47.952  44.891  1.00  0.00    -0.096 N 
HETATM   11  C   UNL     1      17.923  45.446  47.123  1.00  0.00     0.139 C 
HETATM   12  O   UNL     1      18.764  44.799  48.035  1.00  0.00    -0.277 OA
ENDROOT
BRANCH   7  13
HETATM   13  C   UNL     1      18.326  48.642  48.519  1.00  0.00     0.022 C 
HETATM   14  C   UNL     1      18.849  48.652  49.940  1.00  0.00    -0.025 C 
HETATM   15  C   UNL     1      19.251  49.757  50.583  1.00  0.00    -0.030 C 
HETATM   16  C   UNL     1      19.252  51.121  49.966  1.00  0.00     0.027 C 
HETATM   17  C   UNL     1      19.139  51.093  48.445  1.00  0.00     0.004 C 
HETATM   18  C   UNL     1      18.125  50.069  47.951  1.00  0.00     0.010 C 
ENDBRANCH   7  13
BRANCH  11  19
HETATM   19  N   UNL     1      16.993  44.603  46.555  1.00  0.00    -0.282 NA
HETATM   20  H   UNL     1      16.701  44.836  45.611  1.00  0.00     0.126 HD
HETATM   21  H   UNL     1      17.259  43.625  46.661  1.00  0.00     0.126 HD
ENDBRANCH  11  19
BRANCH   1  22
HETATM   22  C   UNL     1      22.401  48.079  48.488  1.00  0.00    -0.007 A 
HETATM   23  C   UNL     1      22.067  49.257  47.810  1.00  0.00     0.014 A 
HETATM   24  C   UNL     1      22.978  50.313  47.732  1.00  0.00     0.001 A 
HETATM   25  C   UNL     1      24.231  50.199  48.330  1.00  0.00     0.000 A 
HETATM   26  C   UNL     1      24.578  49.031  49.003  1.00  0.00     0.001 A 
HETATM   27  C   UNL     1      23.668  47.973  49.080  1.00  0.00     0.014 A 
ENDBRANCH   1  22
TORSDOF 3
ENDMDL
MODEL 2
REMARK VINA RESULT:      -7.8      2.516      3.182
REMARK  3 active torsions:
REMARK  status: ('A' for Active; 'I' for Inactive)
REMARK    1  A    between atoms: C_4  and  C_5 
REMARK    2  A    between atoms: C_11  and  C_12 
REMARK    3  A    between atoms: C_21  and  N_22 
ROOT
HETATM    1  C   UNL     1      19.407  49.169  48.995  1.00  0.00     0.071 A 
HETATM    2  N   UNL     1      19.142  48.240  49.983  1.00  0.00    -0.274 N 
HETATM    3  H   UNL     1      19.775  47.915  50.705  1.00  0.00     0.189 HD
HETATM    4  N   UNL     1      17.923  47.675  49.904  1.00  0.00    -0.148 NA
HETATM    5  C   UNL     1      17.402  48.287  48.851  1.00  0.00     0.199 A 
HETATM    6  C   UNL     1      18.232  49.256  48.267  1.00  0.00     0.036 A 
HETATM    7  C   UNL     1      17.758  50.035  47.077  1.00  0.00     0.079 C 
HETATM    8  C   UNL     1      16.586  49.268  46.436  1.00  0.00     0.063 C 
HETATM    9  C   UNL     1      16.259  49.622  44.995  1.00  0.00     0.020 C 
HETATM   10  N   UNL     1      15.987  49.915  43.798  1.00  0.00    -0.096 N 
HETATM   11  C   UNL     1      15.874  48.308  47.078  1.00  0.00     0.139 C 
HETATM   12  O   UNL     1      16.205  47.896  48.374  1.00  0.00    -0.277 OA
ENDROOT
BRANCH   7  13
HETATM   13  C   UNL     1      17.288  51.507  47.379  1.00  0.00     0.022 C 
HETATM   14  C   UNL     1      15.917  51.624  48.012  1.00  0.00    -0.025 C 
HETATM   15  C   UNL     1      15.678  52.251  49.172  1.00  0.00    -0.030 C 
HETATM   16  C   UNL     1      16.744  52.898  50.000  1.00  0.00     0.027 C 
HETATM   17  C   UNL     1      18.153  52.448  49.624  1.00  0.00     0.004 C 
HETATM   18  C   UNL     1      18.356  52.352  48.118  1.00  0.00     0.010 C 
ENDBRANCH   7  13
BRANCH  11  19
HETATM   19  N   UNL     1      14.797  47.626  46.555  1.00  0.00    -0.282 NA
HETATM   20  H   UNL     1      14.781  46.625  46.722  1.00  0.00     0.126 HD
HETATM   21  H   UNL     1      13.916  48.083  46.785  1.00  0.00     0.126 HD
ENDBRANCH  11  19
BRANCH   1  22
HETATM   22  C   UNL     1      20.719  49.788  48.862  1.00  0.00    -0.007 A 
HETATM   23  C   UNL     1      21.257  50.550  49.904  1.00  0.00     0.014 A 
HETATM   24  C   UNL     1      22.514  51.144  49.773  1.00  0.00     0.001 A 
HETATM   25  C   UNL     1      23.243  50.983  48.597  1.00  0.00     0.000 A 
HETATM   26  C   UNL     1      22.717  50.231  47.550  1.00  0.00     0.001 A 
HETATM   27  C   UNL     1      21.458  49.638  47.679  1.00  0.00     0.014 A 
ENDBRANCH   1  22
TORSDOF 3
ENDMDL
MODEL 3
REMARK VINA RESULT:      -7.7     11.109     13.781
REMARK  3 active torsions:
REMARK  status: ('A' for Active; 'I' for Inactive)
REMARK    1  A    between atoms: C_4  and  C_5 
REMARK    2  A    between atoms: C_11  and  C_12 
REMARK    3  A    between atoms: C_21  and  N_22 
ROOT
HETATM    1  C   UNL     1      28.725  48.123  39.118  1.00  0.00     0.071 A 
HETATM    2  N   UNL     1      29.074  46.966  38.448  1.00  0.00    -0.274 N 
HETATM    3  H   UNL     1      28.476  46.386  37.870  1.00  0.00     0.189 HD
HETATM    4  N   UNL     1      30.338  46.556  38.666  1.00  0.00    -0.148 NA
HETATM    5  C   UNL     1      30.798  47.499  39.476  1.00  0.00     0.199 A 
HETATM    6  C   UNL     1      29.884  48.524  39.760  1.00  0.00     0.036 A 
HETATM    7  C   UNL     1      30.282  49.663  40.651  1.00  0.00     0.079 C 
HETATM    8  C   UNL     1      31.514  49.226  41.467  1.00  0.00     0.063 C 
HETATM    9  C   UNL     1      31.801  50.024  42.729  1.00  0.00     0.020 C 
HETATM   10  N   UNL     1      32.040  50.685  43.776  1.00  0.00    -0.096 N 
HETATM   11  C   UNL     1      32.310  48.182  41.127  1.00  0.00     0.139 C 
HETATM   12  O   UNL     1      32.023  47.373  40.022  1.00  0.00    -0.277 OA
ENDROOT
BRANCH   7  13
HETATM   13  C   UNL     1      30.623  51.010  39.911  1.00  0.00     0.022 C 
HETATM   14  C   UNL     1      30.637  50.923  38.399  1.00  0.00    -0.025 C 
HETATM   15  C   UNL     1      29.895  51.699  37.596  1.00  0.00    -0.030 C 
HETATM   16  C   UNL     1      28.941  52.738  38.099  1.00  0.00     0.027 C 
HETATM   17  C   UNL     1      28.592  52.570  39.575  1.00  0.00     0.004 C 
HETATM   18  C   UNL     1      29.803  52.218  40.428  1.00  0.00     0.010 C 
ENDBRANCH   7  13
BRANCH  11  19
HETATM   19  N   UNL     1      33.439  47.783  41.808  1.00  0.00    -0.282 NA
HETATM   20  H   UNL     1      33.422  46.840  42.184  1.00  0.00     0.126 HD
HETATM   21  H   UNL     1      34.287  47.986  41.279  1.00  0.00     0.126 HD
ENDBRANCH  11  19
BRANCH   1  22
HETATM   22  C   UNL     1      27.363  48.640  39.087  1.00  0.00    -0.007 A 
HETATM   23  C   UNL     1      26.391  48.142  39.963  1.00  0.00     0.014 A 
HETATM   24  C   UNL     1      25.086  48.639  39.930  1.00  0.00     0.001 A 
HETATM   25  C   UNL     1      24.741  49.635  39.019  1.00  0.00     0.000 A 
HETATM   26  C   UNL     1      25.697  50.135  38.139  1.00  0.00     0.001 A 
HETATM   27  C   UNL     1      27.002  49.637  38.170  1.00  0.00     0.014 A 
ENDBRANCH   1  22
TORSDOF 3
ENDMDL
MODEL 4
REMARK VINA RESULT:      -7.5     11.819     14.007
REMARK  3 active torsions:
REMARK  status: ('A' for Active; 'I' for Inactive)
REMARK    1  A    between atoms: C_4  and  C_5 
REMARK    2  A    between atoms: C_11  and  C_12 
REMARK    3  A    between atoms: C_21  and  N_22 
ROOT
HETATM    1  C   UNL     1      31.527  48.555  41.053  1.00  0.00     0.071 A 
HETATM    2  N   UNL     1      32.722  47.968  40.684  1.00  0.00    -0.274 N 
HETATM    3  H   UNL     1      32.849  47.087  40.199  1.00  0.00     0.189 HD
HETATM    4  N   UNL     1      33.819  48.634  41.089  1.00  0.00    -0.148 NA
HETATM    5  C   UNL     1      33.293  49.682  41.707  1.00  0.00     0.199 A 
HETATM    6  C   UNL     1      31.891  49.732  41.685  1.00  0.00     0.036 A 
HETATM    7  C   UNL     1      31.168  50.873  42.335  1.00  0.00     0.079 C 
HETATM    8  C   UNL     1      32.134  51.553  43.325  1.00  0.00     0.063 C 
HETATM    9  C   UNL     1      31.496  52.416  44.401  1.00  0.00     0.020 C 
HETATM   10  N   UNL     1      30.967  53.133  45.294  1.00  0.00    -0.096 N 
HETATM   11  C   UNL     1      33.480  51.398  43.288  1.00  0.00     0.139 C 
HETATM   12  O   UNL     1      34.093  50.541  42.366  1.00  0.00    -0.277 OA
ENDROOT
BRANCH   7  13
HETATM   13  C   UNL     1      30.610  51.966  41.349  1.00  0.00     0.022 C 
HETATM   14  C   UNL     1      30.789  51.652  39.878  1.00  0.00    -0.025 C 
HETATM   15  C   UNL     1      29.784  51.608  38.993  1.00  0.00    -0.030 C 
HETATM   16  C   UNL     1      28.351  51.846  39.354  1.00  0.00     0.027 C 
HETATM   17  C   UNL     1      28.084  51.747  40.853  1.00  0.00     0.004 C 
HETATM   18  C   UNL     1      29.168  52.419  41.687  1.00  0.00     0.010 C 
ENDBRANCH   7  13
BRANCH  11  19
HETATM   19  N   UNL     1      34.379  52.016  44.129  1.00  0.00    -0.282 NA
HETATM   20  H   UNL     1      34.018  52.795  44.671  1.00  0.00     0.126 HD
HETATM   21  H   UNL     1      34.890  51.340  44.695  1.00  0.00     0.126 HD
ENDBRANCH  11  19
BRANCH   1  22
HETATM   22  C   UNL     1      30.247  47.906  40.799  1.00  0.00    -0.007 A 
HETATM   23  C   UNL     1      30.138  46.899  39.833  1.00  0.00     0.014 A 
HETATM   24  C   UNL     1      28.910  46.279  39.591  1.00  0.00     0.001 A 
HETATM   25  C   UNL     1      27.780  46.664  40.310  1.00  0.00     0.000 A 
HETATM   26  C   UNL     1      27.874  47.668  41.270  1.00  0.00     0.001 A 
HETATM   27  C   UNL     1      29.102  48.290  41.511  1.00  0.00     0.014 A 
ENDBRANCH   1  22
TORSDOF 3
ENDMDL
MODEL 5
REMARK VINA RESULT:      -7.5     11.531     14.229
REMARK  3 active torsions:
REMARK  status: ('A' for Active; 'I' for Inactive)
REMARK    1  A    between atoms: C_4  and  C_5 
REMARK    2  A    between atoms: C_11  and  C_12 
REMARK    3  A    between atoms: C_21  and  N_22 
ROOT
HETATM    1  C   UNL     1      28.890  49.684  40.845  1.00  0.00     0.071 A 
HETATM    2  N   UNL     1      27.704  50.225  41.302  1.00  0.00    -0.274 N 
HETATM    3  H   UNL     1      26.800  49.770  41.351  1.00  0.00     0.189 HD
HETATM    4  N   UNL     1      27.783  51.524  41.649  1.00  0.00    -0.148 NA
HETATM    5  C   UNL     1      29.061  51.793  41.426  1.00  0.00     0.199 A 
HETATM    6  C   UNL     1      29.820  50.701  40.978  1.00  0.00     0.036 A 
HETATM    7  C   UNL     1      31.284  50.865  40.702  1.00  0.00     0.079 C 
HETATM    8  C   UNL     1      31.575  52.367  40.528  1.00  0.00     0.063 C 
HETATM    9  C   UNL     1      32.865  52.723  39.806  1.00  0.00     0.020 C 
HETATM   10  N   UNL     1      33.935  53.018  39.207  1.00  0.00    -0.096 N 
HETATM   11  C   UNL     1      30.745  53.350  40.958  1.00  0.00     0.139 C 
HETATM   12  O   UNL     1      29.509  53.057  41.547  1.00  0.00    -0.277 OA
ENDROOT
BRANCH   7  13
HETATM   13  C   UNL     1      32.246  50.293  41.810  1.00  0.00     0.022 C 
HETATM   14  C   UNL     1      33.709  50.639  41.628  1.00  0.00    -0.025 C 
HETATM   15  C   UNL     1      34.454  51.260  42.553  1.00  0.00    -0.030 C 
HETATM   16  C   UNL     1      33.923  51.707  43.880  1.00  0.00     0.027 C 
HETATM   17  C   UNL     1      32.399  51.757  43.931  1.00  0.00     0.004 C 
HETATM   18  C   UNL     1      31.749  50.560  43.252  1.00  0.00     0.010 C 
ENDBRANCH   7  13
BRANCH  11  19
HETATM   19  N   UNL     1      30.986  54.702  40.855  1.00  0.00    -0.282 NA
HETATM   20  H   UNL     1      31.079  55.205  41.733  1.00  0.00     0.126 HD
HETATM   21  H   UNL     1      31.741  54.900  40.200  1.00  0.00     0.126 HD
ENDBRANCH  11  19
BRANCH   1  22
HETATM   22  C   UNL     1      28.955  48.326  40.318  1.00  0.00    -0.007 A 
HETATM   23  C   UNL     1      28.167  47.309  40.867  1.00  0.00     0.014 A 
HETATM   24  C   UNL     1      28.232  46.010  40.360  1.00  0.00     0.001 A 
HETATM   25  C   UNL     1      29.090  45.715  39.302  1.00  0.00     0.000 A 
HETATM   26  C   UNL     1      29.884  46.717  38.751  1.00  0.00     0.001 A 
HETATM   27  C   UNL     1      29.820  48.017  39.258  1.00  0.00     0.014 A 
ENDBRANCH   1  22
TORSDOF 3
ENDMDL
MODEL 6
REMARK VINA RESULT:      -7.4     12.090     14.471
REMARK  3 active torsions:
REMARK  status: ('A' for Active; 'I' for Inactive)
REMARK    1  A    between atoms: C_4  and  C_5 
REMARK    2  A    between atoms: C_11  and  C_12 
REMARK    3  A    between atoms: C_21  and  N_22 
ROOT
HETATM    1  C   UNL     1      33.732  49.448  41.431  1.00  0.00     0.071 A 
HETATM    2  N   UNL     1      33.838  48.094  41.687  1.00  0.00    -0.274 N 
HETATM    3  H   UNL     1      34.610  47.613  42.134  1.00  0.00     0.189 HD
HETATM    4  N   UNL     1      32.816  47.357  41.215  1.00  0.00    -0.148 NA
HETATM    5  C   UNL     1      32.036  48.280  40.672  1.00  0.00     0.199 A 
HETATM    6  C   UNL     1      32.505  49.596  40.807  1.00  0.00     0.036 A 
HETATM    7  C   UNL     1      31.711  50.739  40.250  1.00  0.00     0.079 C 
HETATM    8  C   UNL     1      30.726  50.177  39.207  1.00  0.00     0.063 C 
HETATM    9  C   UNL     1      30.160  51.176  38.211  1.00  0.00     0.020 C 
HETATM   10  N   UNL     1      29.690  52.005  37.385  1.00  0.00    -0.096 N 
HETATM   11  C   UNL     1      30.375  48.870  39.132  1.00  0.00     0.139 C 
HETATM   12  O   UNL     1      30.945  47.910  39.976  1.00  0.00    -0.277 OA
ENDROOT
BRANCH   7  13
HETATM   13  C   UNL     1      30.897  51.573  41.310  1.00  0.00     0.022 C 
HETATM   14  C   UNL     1      30.477  52.953  40.851  1.00  0.00    -0.025 C 
HETATM   15  C   UNL     1      29.209  53.387  40.845  1.00  0.00    -0.030 C 
HETATM   16  C   UNL     1      28.044  52.550  41.273  1.00  0.00     0.027 C 
HETATM   17  C   UNL     1      28.366  51.060  41.336  1.00  0.00     0.004 C 
HETATM   18  C   UNL     1      29.731  50.780  41.950  1.00  0.00     0.010 C 
ENDBRANCH   7  13
BRANCH  11  19
HETATM   19  N   UNL     1      29.471  48.334  38.240  1.00  0.00    -0.282 NA
HETATM   20  H   UNL     1      29.856  48.016  37.355  1.00  0.00     0.126 HD
HETATM   21  H   UNL     1      28.869  47.643  38.685  1.00  0.00     0.126 HD
ENDBRANCH  11  19
BRANCH   1  22
HETATM   22  C   UNL     1      34.806  50.374  41.768  1.00  0.00    -0.007 A 
HETATM   23  C   UNL     1      34.660  51.284  42.821  1.00  0.00     0.014 A 
HETATM   24  C   UNL     1      35.690  52.171  43.140  1.00  0.00     0.001 A 
HETATM   25  C   UNL     1      36.875  52.158  42.406  1.00  0.00     0.000 A 
HETATM   26  C   UNL     1      37.030  51.262  41.353  1.00  0.00     0.001 A 
HETATM   27  C   UNL     1      35.999  50.375  41.032  1.00  0.00     0.014 A 
ENDBRANCH   1  22
TORSDOF 3
ENDMDL
MODEL 7
REMARK VINA RESULT:      -7.3      3.384      6.353
REMARK  3 active torsions:
REMARK  status: ('A' for Active; 'I' for Inactive)
REMARK    1  A    between atoms: C_4  and  C_5 
REMARK    2  A    between atoms: C_11  and  C_12 
REMARK    3  A    between atoms: C_21  and  N_22 
ROOT
HETATM    1  C   UNL     1      18.166  51.476  47.336  1.00  0.00     0.071 A 
HETATM    2  N   UNL     1      17.572  52.456  48.108  1.00  0.00    -0.274 N 
HETATM    3  H   UNL     1      16.828  53.087  47.833  1.00  0.00     0.189 HD
HETATM    4  N   UNL     1      18.113  52.604  49.332  1.00  0.00    -0.148 NA
HETATM    5  C   UNL     1      19.056  51.673  49.332  1.00  0.00     0.199 A 
HETATM    6  C   UNL     1      19.119  50.904  48.161  1.00  0.00     0.036 A 
HETATM    7  C   UNL     1      20.132  49.805  48.035  1.00  0.00     0.079 C 
HETATM    8  C   UNL     1      21.237  50.048  49.081  1.00  0.00     0.063 C 
HETATM    9  C   UNL     1      22.560  49.342  48.836  1.00  0.00     0.020 C 
HETATM   10  N   UNL     1      23.659  48.757  48.634  1.00  0.00    -0.096 N 
HETATM   11  C   UNL     1      21.087  50.856  50.160  1.00  0.00     0.139 C 
HETATM   12  O   UNL     1      19.913  51.589  50.367  1.00  0.00    -0.277 OA
ENDROOT
BRANCH   7  13
HETATM   13  C   UNL     1      19.570  48.346  48.230  1.00  0.00     0.022 C 
HETATM   14  C   UNL     1      18.507  48.208  49.299  1.00  0.00    -0.025 C 
HETATM   15  C   UNL     1      17.286  47.698  49.082  1.00  0.00    -0.030 C 
HETATM   16  C   UNL     1      16.815  47.220  47.744  1.00  0.00     0.027 C 
HETATM   17  C   UNL     1      17.677  47.720  46.588  1.00  0.00     0.004 C 
HETATM   18  C   UNL     1      19.166  47.663  46.900  1.00  0.00     0.010 C 
ENDBRANCH   7  13
BRANCH  11  19
HETATM   19  N   UNL     1      22.035  51.070  51.136  1.00  0.00    -0.282 NA
HETATM   20  H   UNL     1      22.925  51.443  50.817  1.00  0.00     0.126 HD
HETATM   21  H   UNL     1      21.649  51.582  51.928  1.00  0.00     0.126 HD
ENDBRANCH  11  19
BRANCH   1  22
HETATM   22  C   UNL     1      17.783  51.264  45.946  1.00  0.00    -0.007 A 
HETATM   23  C   UNL     1      18.722  50.828  45.005  1.00  0.00     0.014 A 
HETATM   24  C   UNL     1      18.352  50.627  43.673  1.00  0.00     0.001 A 
HETATM   25  C   UNL     1      17.039  50.864  43.271  1.00  0.00     0.000 A 
HETATM   26  C   UNL     1      16.096  51.303  44.196  1.00  0.00     0.001 A 
HETATM   27  C   UNL     1      16.466  51.506  45.528  1.00  0.00     0.014 A 
ENDBRANCH   1  22
TORSDOF 3
ENDMDL
MODEL 8
REMARK VINA RESULT:      -7.3     10.773     12.623
REMARK  3 active torsions:
REMARK  status: ('A' for Active; 'I' for Inactive)
REMARK    1  A    between atoms: C_4  and  C_5 
REMARK    2  A    between atoms: C_11  and  C_12 
REMARK    3  A    between atoms: C_21  and  N_22 
ROOT
HETATM    1  C   UNL     1      29.226  49.698  39.376  1.00  0.00     0.071 A 
HETATM    2  N   UNL     1      29.541  50.792  38.593  1.00  0.00    -0.274 N 
HETATM    3  H   UNL     1      30.422  51.293  38.564  1.00  0.00     0.189 HD
HETATM    4  N   UNL     1      28.520  51.258  37.850  1.00  0.00    -0.148 NA
HETATM    5  C   UNL     1      27.546  50.415  38.160  1.00  0.00     0.199 A 
HETATM    6  C   UNL     1      27.914  49.397  39.053  1.00  0.00     0.036 A 
HETATM    7  C   UNL     1      26.910  48.366  39.474  1.00  0.00     0.079 C 
HETATM    8  C   UNL     1      25.502  48.917  39.181  1.00  0.00     0.063 C 
HETATM    9  C   UNL     1      24.354  48.259  39.928  1.00  0.00     0.020 C 
HETATM   10  N   UNL     1      23.400  47.713  40.547  1.00  0.00    -0.096 N 
HETATM   11  C   UNL     1      25.259  49.945  38.330  1.00  0.00     0.139 C 
HETATM   12  O   UNL     1      26.301  50.630  37.694  1.00  0.00    -0.277 OA
ENDROOT
BRANCH   7  13
HETATM   13  C   UNL     1      27.054  46.961  38.777  1.00  0.00     0.022 C 
HETATM   14  C   UNL     1      28.121  46.886  37.704  1.00  0.00    -0.025 C 
HETATM   15  C   UNL     1      29.126  46.000  37.708  1.00  0.00    -0.030 C 
HETATM   16  C   UNL     1      29.332  44.984  38.788  1.00  0.00     0.027 C 
HETATM   17  C   UNL     1      28.552  45.295  40.062  1.00  0.00     0.004 C 
HETATM   18  C   UNL     1      27.137  45.784  39.779  1.00  0.00     0.010 C 
ENDBRANCH   7  13
BRANCH  11  19
HETATM   19  N   UNL     1      24.014  50.442  38.013  1.00  0.00    -0.282 NA
HETATM   20  H   UNL     1      23.469  50.805  38.789  1.00  0.00     0.126 HD
HETATM   21  H   UNL     1      24.057  51.083  37.222  1.00  0.00     0.126 HD
ENDBRANCH  11  19
BRANCH   1  22
HETATM   22  C   UNL     1      30.179  49.141  40.327  1.00  0.00    -0.007 A 
HETATM   23  C   UNL     1      31.184  48.266  39.901  1.00  0.00     0.014 A 
HETATM   24  C   UNL     1      32.095  47.733  40.815  1.00  0.00     0.001 A 
HETATM   25  C   UNL     1      32.007  48.069  42.165  1.00  0.00     0.000 A 
HETATM   26  C   UNL     1      31.009  48.934  42.603  1.00  0.00     0.001 A 
HETATM   27  C   UNL     1      30.096  49.466  41.689  1.00  0.00     0.014 A 
ENDBRANCH   1  22
TORSDOF 3
ENDMDL
MODEL 9
REMARK VINA RESULT:      -7.2      3.504      6.282
REMARK  3 active torsions:
REMARK  status: ('A' for Active; 'I' for Inactive)
REMARK    1  A    between atoms: C_4  and  C_5 
REMARK    2  A    between atoms: C_11  and  C_12 
REMARK    3  A    between atoms: C_21  and  N_22 
ROOT
HETATM    1  C   UNL     1      17.478  51.652  47.138  1.00  0.00     0.071 A 
HETATM    2  N   UNL     1      17.257  52.745  47.955  1.00  0.00    -0.274 N 
HETATM    3  H   UNL     1      17.089  53.702  47.668  1.00  0.00     0.189 HD
HETATM    4  N   UNL     1      17.351  52.484  49.272  1.00  0.00    -0.148 NA
HETATM    5  C   UNL     1      17.614  51.185  49.278  1.00  0.00     0.199 A 
HETATM    6  C   UNL     1      17.658  50.590  48.008  1.00  0.00     0.036 A 
HETATM    7  C   UNL     1      17.931  49.122  47.873  1.00  0.00     0.079 C 
HETATM    8  C   UNL     1      18.578  48.631  49.182  1.00  0.00     0.063 C 
HETATM    9  C   UNL     1      19.339  47.318  49.104  1.00  0.00     0.020 C 
HETATM   10  N   UNL     1      19.971  46.228  49.039  1.00  0.00    -0.096 N 
HETATM   11  C   UNL     1      18.517  49.312  50.353  1.00  0.00     0.139 C 
HETATM   12  O   UNL     1      17.900  50.565  50.439  1.00  0.00    -0.277 OA
ENDROOT
BRANCH   7  13
HETATM   13  C   UNL     1      16.670  48.228  47.571  1.00  0.00     0.022 C 
HETATM   14  C   UNL     1      15.355  48.977  47.507  1.00  0.00    -0.025 C 
HETATM   15  C   UNL     1      14.527  48.950  46.454  1.00  0.00    -0.030 C 
HETATM   16  C   UNL     1      14.811  48.188  45.196  1.00  0.00     0.027 C 
HETATM   17  C   UNL     1      16.275  47.779  45.059  1.00  0.00     0.004 C 
HETATM   18  C   UNL     1      16.868  47.275  46.367  1.00  0.00     0.010 C 
ENDBRANCH   7  13
BRANCH  11  19
HETATM   19  N   UNL     1      19.049  48.890  51.552  1.00  0.00    -0.282 NA
HETATM   20  H   UNL     1      18.493  49.087  52.379  1.00  0.00     0.126 HD
HETATM   21  H   UNL     1      19.363  47.922  51.503  1.00  0.00     0.126 HD
ENDBRANCH  11  19
BRANCH   1  22
HETATM   22  C   UNL     1      17.531  51.783  45.688  1.00  0.00    -0.007 A 
HETATM   23  C   UNL     1      18.231  50.852  44.913  1.00  0.00     0.014 A 
HETATM   24  C   UNL     1      18.281  50.981  43.523  1.00  0.00     0.001 A 
HETATM   25  C   UNL     1      17.633  52.044  42.897  1.00  0.00     0.000 A 
HETATM   26  C   UNL     1      16.938  52.980  43.657  1.00  0.00     0.001 A 
HETATM   27  C   UNL     1      16.889  52.853  45.048  1.00  0.00     0.014 A 
ENDBRANCH   1  22
TORSDOF 3
ENDMDL
MODEL 10
REMARK VINA RESULT:      -7.2      6.148      9.100
REMARK  3 active torsions:
REMARK  status: ('A' for Active; 'I' for Inactive)
REMARK    1  A    between atoms: C_4  and  C_5 
REMARK    2  A    between atoms: C_11  and  C_12 
REMARK    3  A    between atoms: C_21  and  N_22 
ROOT
HETATM    1  C   UNL     1      25.208  42.497  50.025  1.00  0.00     0.071 A 
HETATM    2  N   UNL     1      23.866  42.205  50.178  1.00  0.00    -0.274 N 
HETATM    3  H   UNL     1      23.417  41.304  50.060  1.00  0.00     0.189 HD
HETATM    4  N   UNL     1      23.091  43.272  50.445  1.00  0.00    -0.148 NA
HETATM    5  C   UNL     1      23.979  44.255  50.486  1.00  0.00     0.199 A 
HETATM    6  C   UNL     1      25.308  43.852  50.288  1.00  0.00     0.036 A 
HETATM    7  C   UNL     1      26.415  44.863  50.324  1.00  0.00     0.079 C 
HETATM    8  C   UNL     1      25.797  46.259  50.116  1.00  0.00     0.063 C 
HETATM    9  C   UNL     1      26.750  47.356  49.669  1.00  0.00     0.020 C 
HETATM   10  N   UNL     1      27.540  48.266  49.297  1.00  0.00    -0.096 N 
HETATM   11  C   UNL     1      24.480  46.533  50.289  1.00  0.00     0.139 C 
HETATM   12  O   UNL     1      23.562  45.529  50.615  1.00  0.00    -0.277 OA
ENDROOT
BRANCH   7  13
HETATM   13  C   UNL     1      27.265  44.883  51.650  1.00  0.00     0.022 C 
HETATM   14  C   UNL     1      26.461  45.047  52.923  1.00  0.00    -0.025 C 
HETATM   15  C   UNL     1      26.506  44.192  53.953  1.00  0.00    -0.030 C 
HETATM   16  C   UNL     1      27.344  42.951  53.965  1.00  0.00     0.027 C 
HETATM   17  C   UNL     1      27.826  42.539  52.577  1.00  0.00     0.004 C 
HETATM   18  C   UNL     1      28.288  43.724  51.740  1.00  0.00     0.010 C 
ENDBRANCH   7  13
BRANCH  11  19
HETATM   19  N   UNL     1      23.896  47.773  50.150  1.00  0.00    -0.282 NA
HETATM   20  H   UNL     1      23.202  47.857  49.413  1.00  0.00     0.126 HD
HETATM   21  H   UNL     1      23.574  48.138  51.045  1.00  0.00     0.126 HD
ENDBRANCH  11  19
BRANCH   1  22
HETATM   22  C   UNL     1      26.168  41.479  49.617  1.00  0.00    -0.007 A 
HETATM   23  C   UNL     1      26.174  40.219  50.226  1.00  0.00     0.014 A 
HETATM   24  C   UNL     1      27.097  39.246  49.834  1.00  0.00     0.001 A 
HETATM   25  C   UNL     1      28.023  39.527  48.832  1.00  0.00     0.000 A 
HETATM   26  C   UNL     1      28.031  40.778  48.222  1.00  0.00     0.001 A 
HETATM   27  C   UNL     1      27.110  41.752  48.615  1.00  0.00     0.014 A 
ENDBRANCH   1  22
TORSDOF 3
ENDMDL
