MODEL 1
REMARK VINA RESULT:      -8.1      0.000      0.000
REMARK  7 active torsions:
REMARK  status: ('A' for Active; 'I' for Inactive)
REMARK    1  A    between atoms: C_3  and  N_4 
REMARK       I    between atoms: N_4  and  C_5 
REMARK    2  A    between atoms: C_5  and  C_6 
REMARK    3  A    between atoms: C_6  and  C_14 
REMARK    4  A    between atoms: C_8  and  C_9 
REMARK    5  A    between atoms: C_9  and  O_15 
REMARK    6  A    between atoms: C_10  and  O_17 
REMARK    7  A    between atoms: C_22  and  N_23 
REMARK       I    between atoms: N_23  and  C_24 
REMARK       I    between atoms: C_24  and  N_25 
ROOT
HETATM    1  C           1      19.332  48.251  49.541  0.00  0.00     0.016 C 
HETATM    2  C           1      19.476  50.463  48.193  0.00  0.00     0.012 C 
HETATM    3  C           1      19.366  48.902  48.142  0.00  0.00    -0.030 C 
HETATM    4  C           1      18.192  51.304  48.513  0.00  0.00     0.008 C 
HETATM    5  C           1      17.027  50.762  47.660  0.00  0.00     0.128 C 
HETATM    6  C           1      18.089  48.508  47.358  0.00  0.00     0.013 C 
HETATM    7  C           1      21.879  48.925  47.976  0.00  0.00     0.056 A 
HETATM    8  C           1      20.621  48.352  47.376  0.00  0.00     0.056 C 
HETATM    9  C           1      18.443  52.775  48.076  0.00  0.00     0.020 C 
HETATM   10  C           1      16.830  49.259  47.799  0.00  0.00     0.033 C 
HETATM   11  C           1      20.730  50.923  48.966  0.00  0.00     0.055 C 
HETATM   12  C           1      21.928  50.071  48.662  0.00  0.00     0.012 A 
HETATM   13  N           1      23.012  48.367  47.922  0.00  0.00    -0.227 NA
HETATM   14  C           1      23.843  49.096  48.537  0.00  0.00     0.175 A 
HETATM   15  S           1      23.297  50.323  49.118  0.00  0.00    -0.055 SA
ENDROOT
BRANCH  14  16
HETATM   16  N           1      25.152  48.869  48.758  0.00  0.00    -0.287 N 
HETATM   17  C           1      25.868  48.204  49.710  0.00  0.00     0.324 C 
HETATM   18  O           1      27.021  48.529  49.815  0.00  0.00    -0.247 OA
HETATM   19  N           1      25.345  47.260  50.561  0.00  0.00    -0.330 N 
HETATM   20  C           1      24.322  46.298  50.181  0.00  0.00     0.153 C 
HETATM   21  C           1      25.894  47.002  51.888  0.00  0.00     0.153 C 
HETATM   22  C           1      24.861  44.878  50.350  0.00  0.00     0.187 C 
HETATM   23  O           1      25.328  44.676  51.660  0.00  0.00    -0.388 OA
HETATM   24  C           1      26.375  45.557  51.975  0.00  0.00     0.187 C 
HETATM   25  H           1      25.724  49.384  48.103  0.00  0.00     0.172 HD
ENDBRANCH  14  16
BRANCH   8  26
HETATM   26  C           1      20.703  46.820  47.207  0.00  0.00     0.114 C 
BRANCH  26  27
HETATM   27  C           1      20.987  46.321  45.793  0.00  0.00     0.218 C 
HETATM   28  N           1      19.910  46.433  44.953  0.00  0.00    -0.357 N 
HETATM   29  H           1      19.038  46.765  45.365  0.00  0.00     0.162 HD
HETATM   30  O           1      22.066  45.893  45.469  0.00  0.00    -0.274 OA
BRANCH  28  31
HETATM   31  C           1      19.871  46.063  43.528  0.00  0.00     0.076 C 
HETATM   32  C           1      19.211  47.191  42.720  0.00  0.00     0.032 C 
HETATM   33  C           1      19.277  44.703  43.133  0.00  0.00     0.032 C 
ENDBRANCH  28  31
ENDBRANCH  26  27
ENDBRANCH   8  26
BRANCH   4  34
HETATM   34  C           1      17.816  51.331  50.008  0.00  0.00     0.176 C 
BRANCH  34  35
HETATM   35  O           1      17.183  52.547  50.367  0.00  0.00    -0.400 OA
HETATM   36  H           1      17.620  53.283  49.938  0.00  0.00     0.209 HD
ENDBRANCH  34  35
ENDBRANCH   4  34
BRANCH   5  37
HETATM   37  O           1      15.814  51.394  47.996  0.00  0.00    -0.395 OA
HETATM   38  H           1      15.348  51.658  47.201  0.00  0.00     0.210 HD
ENDBRANCH   5  37
TORSDOF 7
ENDMDL
MODEL 2
REMARK VINA RESULT:      -7.9      3.870      9.705
REMARK  7 active torsions:
REMARK  status: ('A' for Active; 'I' for Inactive)
REMARK    1  A    between atoms: C_3  and  N_4 
REMARK       I    between atoms: N_4  and  C_5 
REMARK    2  A    between atoms: C_5  and  C_6 
REMARK    3  A    between atoms: C_6  and  C_14 
REMARK    4  A    between atoms: C_8  and  C_9 
REMARK    5  A    between atoms: C_9  and  O_15 
REMARK    6  A    between atoms: C_10  and  O_17 
REMARK    7  A    between atoms: C_22  and  N_23 
REMARK       I    between atoms: N_23  and  C_24 
REMARK       I    between atoms: C_24  and  N_25 
ROOT
HETATM    1  C           1      25.144  44.332  53.197  0.00  0.00     0.016 C 
HETATM    2  C           1      27.485  43.824  52.199  0.00  0.00     0.012 C 
HETATM    3  C           1      26.425  44.917  52.564  0.00  0.00    -0.030 C 
HETATM    4  C           1      28.371  43.214  53.340  0.00  0.00     0.008 C 
HETATM    5  C           1      28.901  44.368  54.216  0.00  0.00     0.128 C 
HETATM    6  C           1      27.063  45.936  53.540  0.00  0.00     0.013 C 
HETATM    7  C           1      25.628  44.661  50.188  0.00  0.00     0.056 A 
HETATM    8  C           1      26.023  45.663  51.242  0.00  0.00     0.056 C 
HETATM    9  C           1      29.601  42.518  52.692  0.00  0.00     0.020 C 
HETATM   10  C           1      27.803  45.295  54.716  0.00  0.00     0.033 C 
HETATM   11  C           1      26.909  42.771  51.228  0.00  0.00     0.055 C 
HETATM   12  C           1      26.037  43.388  50.173  0.00  0.00     0.012 A 
HETATM   13  N           1      24.846  44.909  49.227  0.00  0.00    -0.227 NA
HETATM   14  C           1      24.711  43.854  48.542  0.00  0.00     0.175 A 
HETATM   15  S           1      25.455  42.690  49.025  0.00  0.00    -0.055 SA
ENDROOT
BRANCH  14  16
HETATM   16  N           1      23.943  43.655  47.455  0.00  0.00    -0.287 N 
HETATM   17  C           1      22.656  43.955  47.115  0.00  0.00     0.324 C 
HETATM   18  O           1      22.184  43.293  46.228  0.00  0.00    -0.247 OA
HETATM   19  N           1      21.881  44.896  47.750  0.00  0.00    -0.330 N 
HETATM   20  C           1      22.391  46.157  48.267  0.00  0.00     0.153 C 
HETATM   21  C           1      20.425  44.812  47.809  0.00  0.00     0.153 C 
HETATM   22  C           1      21.686  47.322  47.573  0.00  0.00     0.187 C 
HETATM   23  O           1      20.292  47.211  47.708  0.00  0.00    -0.388 OA
HETATM   24  C           1      19.810  46.028  47.124  0.00  0.00     0.187 C 
HETATM   25  H           1      24.421  43.081  46.774  0.00  0.00     0.172 HD
ENDBRANCH  14  16
BRANCH   8  26
HETATM   26  C           1      24.983  46.796  51.386  0.00  0.00     0.114 C 
BRANCH  26  27
HETATM   27  C           1      25.058  47.903  50.338  0.00  0.00     0.218 C 
HETATM   28  N           1      26.288  48.001  49.741  0.00  0.00    -0.357 N 
HETATM   29  H           1      27.022  47.386  50.096  0.00  0.00     0.162 HD
HETATM   30  O           1      24.110  48.597  50.069  0.00  0.00    -0.274 OA
BRANCH  28  31
HETATM   31  C           1      26.671  48.947  48.680  0.00  0.00     0.076 C 
HETATM   32  C           1      27.966  49.673  49.078  0.00  0.00     0.032 C 
HETATM   33  C           1      25.627  49.954  48.174  0.00  0.00     0.032 C 
ENDBRANCH  28  31
ENDBRANCH  26  27
ENDBRANCH   8  26
BRANCH   4  34
HETATM   34  C           1      27.649  42.156  54.198  0.00  0.00     0.176 C 
BRANCH  34  35
HETATM   35  O           1      27.804  40.854  53.663  0.00  0.00    -0.400 OA
HETATM   36  H           1      28.669  40.509  53.886  0.00  0.00     0.209 HD
ENDBRANCH  34  35
ENDBRANCH   4  34
BRANCH   5  37
HETATM   37  O           1      29.601  43.875  55.334  0.00  0.00    -0.395 OA
HETATM   38  H           1      30.405  44.378  55.469  0.00  0.00     0.210 HD
ENDBRANCH   5  37
TORSDOF 7
ENDMDL
MODEL 3
REMARK VINA RESULT:      -7.8      9.060     12.710
REMARK  7 active torsions:
REMARK  status: ('A' for Active; 'I' for Inactive)
REMARK    1  A    between atoms: C_3  and  N_4 
REMARK       I    between atoms: N_4  and  C_5 
REMARK    2  A    between atoms: C_5  and  C_6 
REMARK    3  A    between atoms: C_6  and  C_14 
REMARK    4  A    between atoms: C_8  and  C_9 
REMARK    5  A    between atoms: C_9  and  O_15 
REMARK    6  A    between atoms: C_10  and  O_17 
REMARK    7  A    between atoms: C_22  and  N_23 
REMARK       I    between atoms: N_23  and  C_24 
REMARK       I    between atoms: C_24  and  N_25 
ROOT
HETATM    1  C           1      31.039  48.949  39.089  0.00  0.00     0.016 C 
HETATM    2  C           1      29.756  50.405  40.813  0.00  0.00     0.012 C 
HETATM    3  C           1      30.205  48.966  40.389  0.00  0.00    -0.030 C 
HETATM    4  C           1      30.795  51.350  41.510  0.00  0.00     0.008 C 
HETATM    5  C           1      31.527  50.548  42.605  0.00  0.00     0.128 C 
HETATM    6  C           1      31.028  48.333  41.538  0.00  0.00     0.013 C 
HETATM    7  C           1      27.978  48.827  39.220  0.00  0.00     0.056 A 
HETATM    8  C           1      28.914  48.104  40.155  0.00  0.00     0.056 C 
HETATM    9  C           1      30.022  52.501  42.214  0.00  0.00     0.020 C 
HETATM   10  C           1      32.124  49.244  42.096  0.00  0.00     0.033 C 
HETATM   11  C           1      28.931  51.096  39.706  0.00  0.00     0.055 C 
HETATM   12  C           1      27.975  50.151  39.038  0.00  0.00     0.012 A 
HETATM   13  N           1      27.122  48.254  38.487  0.00  0.00    -0.227 NA
HETATM   14  C           1      26.520  49.141  37.814  0.00  0.00     0.175 A 
HETATM   15  S           1      26.957  50.517  38.051  0.00  0.00    -0.055 SA
ENDROOT
BRANCH  14  16
HETATM   16  N           1      25.561  48.976  36.885  0.00  0.00    -0.287 N 
HETATM   17  C           1      24.254  48.583  36.907  0.00  0.00     0.324 C 
HETATM   18  O           1      23.815  48.177  35.862  0.00  0.00    -0.247 OA
HETATM   19  N           1      23.462  48.569  38.030  0.00  0.00    -0.330 N 
HETATM   20  C           1      23.525  49.571  39.083  0.00  0.00     0.153 C 
HETATM   21  C           1      22.343  47.648  38.197  0.00  0.00     0.153 C 
HETATM   22  C           1      22.173  50.273  39.209  0.00  0.00     0.187 C 
HETATM   23  O           1      21.145  49.338  39.418  0.00  0.00    -0.388 OA
HETATM   24  C           1      21.045  48.435  38.347  0.00  0.00     0.187 C 
HETATM   25  H           1      25.933  49.101  35.954  0.00  0.00     0.172 HD
ENDBRANCH  14  16
BRANCH   8  26
HETATM   26  C           1      29.139  46.636  39.734  0.00  0.00     0.114 C 
BRANCH  26  27
HETATM   27  C           1      28.131  45.627  40.279  0.00  0.00     0.218 C 
HETATM   28  N           1      26.992  46.210  40.768  0.00  0.00    -0.357 N 
HETATM   29  H           1      26.965  47.231  40.778  0.00  0.00     0.162 HD
HETATM   30  O           1      28.335  44.439  40.254  0.00  0.00    -0.274 OA
BRANCH  28  31
HETATM   31  C           1      25.827  45.511  41.337  0.00  0.00     0.076 C 
HETATM   32  C           1      24.609  46.447  41.329  0.00  0.00     0.032 C 
HETATM   33  C           1      25.970  44.830  42.707  0.00  0.00     0.032 C 
ENDBRANCH  28  31
ENDBRANCH  26  27
ENDBRANCH   8  26
BRANCH   4  34
HETATM   34  C           1      31.799  52.003  40.539  0.00  0.00     0.176 C 
BRANCH  34  35
HETATM   35  O           1      32.100  53.335  40.915  0.00  0.00    -0.400 OA
HETATM   36  H           1      32.953  53.591  40.562  0.00  0.00     0.209 HD
ENDBRANCH  34  35
ENDBRANCH   4  34
BRANCH   5  37
HETATM   37  O           1      32.564  51.307  43.182  0.00  0.00    -0.395 OA
HETATM   38  H           1      33.086  51.727  42.497  0.00  0.00     0.210 HD
ENDBRANCH   5  37
TORSDOF 7
ENDMDL
MODEL 4
REMARK VINA RESULT:      -7.5     12.856     15.473
REMARK  7 active torsions:
REMARK  status: ('A' for Active; 'I' for Inactive)
REMARK    1  A    between atoms: C_3  and  N_4 
REMARK       I    between atoms: N_4  and  C_5 
REMARK    2  A    between atoms: C_5  and  C_6 
REMARK    3  A    between atoms: C_6  and  C_14 
REMARK    4  A    between atoms: C_8  and  C_9 
REMARK    5  A    between atoms: C_9  and  O_15 
REMARK    6  A    between atoms: C_10  and  O_17 
REMARK    7  A    between atoms: C_22  and  N_23 
REMARK       I    between atoms: N_23  and  C_24 
REMARK       I    between atoms: C_24  and  N_25 
ROOT
HETATM    1  C           1      32.127  49.079  40.984  0.00  0.00     0.016 C 
HETATM    2  C           1      30.864  51.329  41.258  0.00  0.00     0.012 C 
HETATM    3  C           1      31.929  50.515  40.450  0.00  0.00    -0.030 C 
HETATM    4  C           1      29.342  51.061  40.994  0.00  0.00     0.008 C 
HETATM    5  C           1      29.110  51.019  39.469  0.00  0.00     0.128 C 
HETATM    6  C           1      31.503  50.457  38.962  0.00  0.00     0.013 C 
HETATM    7  C           1      33.618  51.557  42.001  0.00  0.00     0.056 A 
HETATM    8  C           1      33.301  51.271  40.556  0.00  0.00     0.056 C 
HETATM    9  C           1      28.524  52.257  41.557  0.00  0.00     0.020 C 
HETATM   10  C           1      30.041  50.056  38.747  0.00  0.00     0.033 C 
HETATM   11  C           1      31.229  51.422  42.755  0.00  0.00     0.055 C 
HETATM   12  C           1      32.699  51.642  42.968  0.00  0.00     0.012 A 
HETATM   13  N           1      34.787  51.714  42.456  0.00  0.00    -0.227 NA
HETATM   14  C           1      34.704  51.917  43.702  0.00  0.00     0.175 A 
HETATM   15  S           1      33.348  51.912  44.252  0.00  0.00    -0.055 SA
ENDROOT
BRANCH  14  16
HETATM   16  N           1      35.701  52.097  44.588  0.00  0.00    -0.287 N 
HETATM   17  C           1      37.042  52.333  44.495  0.00  0.00     0.324 C 
HETATM   18  O           1      37.688  52.054  45.472  0.00  0.00    -0.247 OA
HETATM   19  N           1      37.676  52.798  43.368  0.00  0.00    -0.330 N 
HETATM   20  C           1      37.103  53.775  42.456  0.00  0.00     0.153 C 
HETATM   21  C           1      39.072  52.498  43.066  0.00  0.00     0.153 C 
HETATM   22  C           1      37.994  55.016  42.402  0.00  0.00     0.187 C 
HETATM   23  O           1      39.311  54.668  42.058  0.00  0.00    -0.388 OA
HETATM   24  C           1      39.875  53.792  43.000  0.00  0.00     0.187 C 
HETATM   25  H           1      35.379  51.939  45.533  0.00  0.00     0.172 HD
ENDBRANCH  14  16
BRANCH   8  26
HETATM   26  C           1      34.494  50.630  39.814  0.00  0.00     0.114 C 
BRANCH  26  27
HETATM   27  C           1      35.448  51.603  39.126  0.00  0.00     0.218 C 
HETATM   28  N           1      36.705  51.090  38.943  0.00  0.00    -0.357 N 
HETATM   29  H           1      36.885  50.164  39.334  0.00  0.00     0.162 HD
HETATM   30  O           1      35.099  52.701  38.773  0.00  0.00    -0.274 OA
BRANCH  28  31
HETATM   31  C           1      37.839  51.766  38.291  0.00  0.00     0.076 C 
HETATM   32  C           1      38.661  50.743  37.493  0.00  0.00     0.032 C 
HETATM   33  C           1      38.764  52.647  39.145  0.00  0.00     0.032 C 
ENDBRANCH  28  31
ENDBRANCH  26  27
ENDBRANCH   8  26
BRANCH   4  34
HETATM   34  C           1      28.804  49.783  41.669  0.00  0.00     0.176 C 
BRANCH  34  35
HETATM   35  O           1      27.448  49.925  42.053  0.00  0.00    -0.400 OA
HETATM   36  H           1      26.898  50.041  41.277  0.00  0.00     0.209 HD
ENDBRANCH  34  35
ENDBRANCH   4  34
BRANCH   5  37
HETATM   37  O           1      27.784  50.654  39.168  0.00  0.00    -0.395 OA
HETATM   38  H           1      27.504  51.070  38.351  0.00  0.00     0.210 HD
ENDBRANCH   5  37
TORSDOF 7
ENDMDL
MODEL 5
REMARK VINA RESULT:      -7.4      9.597     12.205
REMARK  7 active torsions:
REMARK  status: ('A' for Active; 'I' for Inactive)
REMARK    1  A    between atoms: C_3  and  N_4 
REMARK       I    between atoms: N_4  and  C_5 
REMARK    2  A    between atoms: C_5  and  C_6 
REMARK    3  A    between atoms: C_6  and  C_14 
REMARK    4  A    between atoms: C_8  and  C_9 
REMARK    5  A    between atoms: C_9  and  O_15 
REMARK    6  A    between atoms: C_10  and  O_17 
REMARK    7  A    between atoms: C_22  and  N_23 
REMARK       I    between atoms: N_23  and  C_24 
REMARK       I    between atoms: C_24  and  N_25 
ROOT
HETATM    1  C           1      28.949  50.060  41.947  0.00  0.00     0.016 C 
HETATM    2  C           1      30.489  50.658  39.946  0.00  0.00     0.012 C 
HETATM    3  C           1      29.025  50.581  40.495  0.00  0.00    -0.030 C 
HETATM    4  C           1      31.403  51.854  40.384  0.00  0.00     0.008 C 
HETATM    5  C           1      30.592  53.160  40.258  0.00  0.00     0.128 C 
HETATM    6  C           1      28.380  51.986  40.417  0.00  0.00     0.013 C 
HETATM    7  C           1      28.957  48.294  39.441  0.00  0.00     0.056 A 
HETATM    8  C           1      28.214  49.598  39.578  0.00  0.00     0.056 C 
HETATM    9  C           1      32.598  51.951  39.394  0.00  0.00     0.020 C 
HETATM   10  C           1      29.254  53.107  40.983  0.00  0.00     0.033 C 
HETATM   11  C           1      31.193  49.284  39.999  0.00  0.00     0.055 C 
HETATM   12  C           1      30.276  48.162  39.609  0.00  0.00     0.012 A 
HETATM   13  N           1      28.407  47.185  39.186  0.00  0.00    -0.227 NA
HETATM   14  C           1      29.305  46.294  39.160  0.00  0.00     0.175 A 
HETATM   15  S           1      30.666  46.762  39.422  0.00  0.00    -0.055 SA
ENDROOT
BRANCH  14  16
HETATM   16  N           1      29.164  44.970  38.961  0.00  0.00    -0.287 N 
HETATM   17  C           1      28.533  43.957  39.624  0.00  0.00     0.324 C 
HETATM   18  O           1      28.934  42.849  39.383  0.00  0.00    -0.247 OA
HETATM   19  N           1      27.543  44.136  40.560  0.00  0.00    -0.330 N 
HETATM   20  C           1      26.520  45.167  40.477  0.00  0.00     0.153 C 
HETATM   21  C           1      27.301  43.191  41.645  0.00  0.00     0.153 C 
HETATM   22  C           1      25.137  44.519  40.422  0.00  0.00     0.187 C 
HETATM   23  O           1      24.946  43.660  41.518  0.00  0.00    -0.388 OA
HETATM   24  C           1      25.891  42.621  41.529  0.00  0.00     0.187 C 
HETATM   25  H           1      29.726  44.658  38.182  0.00  0.00     0.172 HD
ENDBRANCH  14  16
BRANCH   8  26
HETATM   26  C           1      26.730  49.386  39.947  0.00  0.00     0.114 C 
BRANCH  26  27
HETATM   27  C           1      25.717  49.766  38.871  0.00  0.00     0.218 C 
HETATM   28  N           1      24.432  49.845  39.341  0.00  0.00    -0.357 N 
HETATM   29  H           1      24.282  49.585  40.316  0.00  0.00     0.162 HD
HETATM   30  O           1      26.043  49.986  37.731  0.00  0.00    -0.274 OA
BRANCH  28  31
HETATM   31  C           1      23.237  50.211  38.561  0.00  0.00     0.076 C 
HETATM   32  C           1      22.171  50.801  39.497  0.00  0.00     0.032 C 
HETATM   33  C           1      22.611  49.160  37.632  0.00  0.00     0.032 C 
ENDBRANCH  28  31
ENDBRANCH  26  27
ENDBRANCH   8  26
BRANCH   4  34
HETATM   34  C           1      31.995  51.705  41.800  0.00  0.00     0.176 C 
BRANCH  34  35
HETATM   35  O           1      33.327  52.183  41.863  0.00  0.00    -0.400 OA
HETATM   36  H           1      33.358  53.005  42.354  0.00  0.00     0.209 HD
ENDBRANCH  34  35
ENDBRANCH   4  34
BRANCH   5  37
HETATM   37  O           1      31.318  54.258  40.760  0.00  0.00    -0.395 OA
HETATM   38  H           1      31.005  54.487  41.636  0.00  0.00     0.210 HD
ENDBRANCH   5  37
TORSDOF 7
ENDMDL
MODEL 6
REMARK VINA RESULT:      -7.1      4.723     10.057
REMARK  7 active torsions:
REMARK  status: ('A' for Active; 'I' for Inactive)
REMARK    1  A    between atoms: C_3  and  N_4 
REMARK       I    between atoms: N_4  and  C_5 
REMARK    2  A    between atoms: C_5  and  C_6 
REMARK    3  A    between atoms: C_6  and  C_14 
REMARK    4  A    between atoms: C_8  and  C_9 
REMARK    5  A    between atoms: C_9  and  O_15 
REMARK    6  A    between atoms: C_10  and  O_17 
REMARK    7  A    between atoms: C_22  and  N_23 
REMARK       I    between atoms: N_23  and  C_24 
REMARK       I    between atoms: C_24  and  N_25 
ROOT
HETATM    1  C           1      17.881  49.202  48.776  0.00  0.00     0.016 C 
HETATM    2  C           1      19.727  50.703  47.740  0.00  0.00     0.012 C 
HETATM    3  C           1      18.469  50.626  48.669  0.00  0.00    -0.030 C 
HETATM    4  C           1      21.110  50.213  48.293  0.00  0.00     0.008 C 
HETATM    5  C           1      21.307  50.800  49.706  0.00  0.00     0.128 C 
HETATM    6  C           1      18.849  51.135  50.081  0.00  0.00     0.013 C 
HETATM    7  C           1      17.153  51.248  46.613  0.00  0.00     0.056 A 
HETATM    8  C           1      17.365  51.568  48.070  0.00  0.00     0.056 C 
HETATM    9  C           1      22.236  50.789  47.388  0.00  0.00     0.020 C 
HETATM   10  C           1      20.137  50.524  50.639  0.00  0.00     0.033 C 
HETATM   11  C           1      19.415  50.205  46.313  0.00  0.00     0.055 C 
HETATM   12  C           1      18.068  50.663  45.833  0.00  0.00     0.012 A 
HETATM   13  N           1      16.080  51.469  45.984  0.00  0.00    -0.227 NA
HETATM   14  C           1      16.228  51.067  44.793  0.00  0.00     0.175 A 
HETATM   15  S           1      17.532  50.482  44.483  0.00  0.00    -0.055 SA
ENDROOT
BRANCH  14  16
HETATM   16  N           1      15.329  51.074  43.791  0.00  0.00    -0.287 N 
HETATM   17  C           1      14.332  51.918  43.395  0.00  0.00     0.324 C 
HETATM   18  O           1      13.481  51.428  42.699  0.00  0.00    -0.247 OA
HETATM   19  N           1      14.222  53.232  43.784  0.00  0.00    -0.330 N 
HETATM   20  C           1      15.357  54.123  43.973  0.00  0.00     0.153 C 
HETATM   21  C           1      12.942  53.927  43.869  0.00  0.00     0.153 C 
HETATM   22  C           1      15.246  55.311  43.018  0.00  0.00     0.187 C 
HETATM   23  O           1      14.014  55.967  43.183  0.00  0.00    -0.388 OA
HETATM   24  C           1      12.934  55.112  42.909  0.00  0.00     0.187 C 
HETATM   25  H           1      15.361  50.209  43.269  0.00  0.00     0.172 HD
ENDBRANCH  14  16
BRANCH   8  26
HETATM   26  C           1      16.034  51.643  48.848  0.00  0.00     0.114 C 
BRANCH  26  27
HETATM   27  C           1      15.551  53.046  49.206  0.00  0.00     0.218 C 
HETATM   28  N           1      14.727  53.593  48.259  0.00  0.00    -0.357 N 
HETATM   29  H           1      14.579  53.049  47.408  0.00  0.00     0.162 HD
HETATM   30  O           1      15.866  53.590  50.235  0.00  0.00    -0.274 OA
BRANCH  28  31
HETATM   31  C           1      14.081  54.915  48.320  0.00  0.00     0.076 C 
HETATM   32  C           1      12.834  54.839  49.214  0.00  0.00     0.032 C 
HETATM   33  C           1      13.753  55.640  47.006  0.00  0.00     0.032 C 
ENDBRANCH  28  31
ENDBRANCH  26  27
ENDBRANCH   8  26
BRANCH   4  34
HETATM   34  C           1      21.274  48.680  48.304  0.00  0.00     0.176 C 
BRANCH  34  35
HETATM   35  O           1      22.538  48.285  47.803  0.00  0.00    -0.400 OA
HETATM   36  H           1      23.160  48.184  48.524  0.00  0.00     0.209 HD
ENDBRANCH  34  35
ENDBRANCH   4  34
BRANCH   5  37
HETATM   37  O           1      22.475  50.293  50.307  0.00  0.00    -0.395 OA
HETATM   38  H           1      23.125  50.991  50.406  0.00  0.00     0.210 HD
ENDBRANCH   5  37
TORSDOF 7
ENDMDL
MODEL 7
REMARK VINA RESULT:      -6.9      4.644      9.343
REMARK  7 active torsions:
REMARK  status: ('A' for Active; 'I' for Inactive)
REMARK    1  A    between atoms: C_3  and  N_4 
REMARK       I    between atoms: N_4  and  C_5 
REMARK    2  A    between atoms: C_5  and  C_6 
REMARK    3  A    between atoms: C_6  and  C_14 
REMARK    4  A    between atoms: C_8  and  C_9 
REMARK    5  A    between atoms: C_9  and  O_15 
REMARK    6  A    between atoms: C_10  and  O_17 
REMARK    7  A    between atoms: C_22  and  N_23 
REMARK       I    between atoms: N_23  and  C_24 
REMARK       I    between atoms: C_24  and  N_25 
ROOT
HETATM    1  C           1      17.916  49.202  48.683  0.00  0.00     0.016 C 
HETATM    2  C           1      19.799  50.731  47.759  0.00  0.00     0.012 C 
HETATM    3  C           1      18.510  50.627  48.643  0.00  0.00    -0.030 C 
HETATM    4  C           1      21.162  50.219  48.341  0.00  0.00     0.008 C 
HETATM    5  C           1      21.313  50.758  49.778  0.00  0.00     0.128 C 
HETATM    6  C           1      18.844  51.087  50.083  0.00  0.00     0.013 C 
HETATM    7  C           1      17.265  51.321  46.566  0.00  0.00     0.056 A 
HETATM    8  C           1      17.429  51.592  48.040  0.00  0.00     0.056 C 
HETATM    9  C           1      22.318  50.820  47.494  0.00  0.00     0.020 C 
HETATM   10  C           1      20.112  50.455  50.663  0.00  0.00     0.033 C 
HETATM   11  C           1      19.533  50.281  46.307  0.00  0.00     0.055 C 
HETATM   12  C           1      18.204  50.759  45.798  0.00  0.00     0.012 A 
HETATM   13  N           1      16.213  51.567  45.910  0.00  0.00    -0.227 NA
HETATM   14  C           1      16.400  51.204  44.712  0.00  0.00     0.175 A 
HETATM   15  S           1      17.713  50.625  44.425  0.00  0.00    -0.055 SA
ENDROOT
BRANCH  14  16
HETATM   16  N           1      15.535  51.247  43.681  0.00  0.00    -0.287 N 
HETATM   17  C           1      14.891  50.312  42.924  0.00  0.00     0.324 C 
HETATM   18  O           1      14.503  50.691  41.849  0.00  0.00    -0.247 OA
HETATM   19  N           1      14.723  48.997  43.284  0.00  0.00    -0.330 N 
HETATM   20  C           1      14.470  48.552  44.646  0.00  0.00     0.153 C 
HETATM   21  C           1      14.595  47.919  42.309  0.00  0.00     0.153 C 
HETATM   22  C           1      13.125  47.828  44.712  0.00  0.00     0.187 C 
HETATM   23  O           1      13.083  46.772  43.786  0.00  0.00    -0.388 OA
HETATM   24  C           1      13.241  47.235  42.469  0.00  0.00     0.187 C 
HETATM   25  H           1      15.405  52.194  43.356  0.00  0.00     0.172 HD
ENDBRANCH  14  16
BRANCH   8  26
HETATM   26  C           1      16.073  51.646  48.775  0.00  0.00     0.114 C 
BRANCH  26  27
HETATM   27  C           1      15.550  53.041  49.105  0.00  0.00     0.218 C 
HETATM   28  N           1      14.750  53.565  48.124  0.00  0.00    -0.357 N 
HETATM   29  H           1      14.644  53.012  47.272  0.00  0.00     0.162 HD
HETATM   30  O           1      15.817  53.598  50.140  0.00  0.00    -0.274 OA
BRANCH  28  31
HETATM   31  C           1      14.076  54.874  48.152  0.00  0.00     0.076 C 
HETATM   32  C           1      12.833  54.796  49.052  0.00  0.00     0.032 C 
HETATM   33  C           1      13.730  55.556  46.820  0.00  0.00     0.032 C 
ENDBRANCH  28  31
ENDBRANCH  26  27
ENDBRANCH   8  26
BRANCH   4  34
HETATM   34  C           1      21.322  48.686  48.307  0.00  0.00     0.176 C 
BRANCH  34  35
HETATM   35  O           1      22.590  48.303  47.805  0.00  0.00    -0.400 OA
HETATM   36  H           1      22.537  48.148  46.862  0.00  0.00     0.209 HD
ENDBRANCH  34  35
ENDBRANCH   4  34
BRANCH   5  37
HETATM   37  O           1      22.460  50.227  50.401  0.00  0.00    -0.395 OA
HETATM   38  H           1      23.107  50.919  50.544  0.00  0.00     0.210 HD
ENDBRANCH   5  37
TORSDOF 7
ENDMDL
MODEL 8
REMARK VINA RESULT:      -6.7      3.198      7.373
REMARK  7 active torsions:
REMARK  status: ('A' for Active; 'I' for Inactive)
REMARK    1  A    between atoms: C_3  and  N_4 
REMARK       I    between atoms: N_4  and  C_5 
REMARK    2  A    between atoms: C_5  and  C_6 
REMARK    3  A    between atoms: C_6  and  C_14 
REMARK    4  A    between atoms: C_8  and  C_9 
REMARK    5  A    between atoms: C_9  and  O_15 
REMARK    6  A    between atoms: C_10  and  O_17 
REMARK    7  A    between atoms: C_22  and  N_23 
REMARK       I    between atoms: N_23  and  C_24 
REMARK       I    between atoms: C_24  and  N_25 
ROOT
HETATM    1  C           1      22.838  44.729  45.000  0.00  0.00     0.016 C 
HETATM    2  C           1      22.274  43.272  47.072  0.00  0.00     0.012 C 
HETATM    3  C           1      21.724  44.154  45.901  0.00  0.00    -0.030 C 
HETATM    4  C           1      22.733  41.804  46.766  0.00  0.00     0.008 C 
HETATM    5  C           1      21.658  41.127  45.892  0.00  0.00     0.128 C 
HETATM    6  C           1      20.752  43.308  45.042  0.00  0.00     0.013 C 
HETATM    7  C           1      21.786  46.050  47.558  0.00  0.00     0.056 A 
HETATM    8  C           1      20.932  45.355  46.529  0.00  0.00     0.056 C 
HETATM    9  C           1      22.806  41.020  48.107  0.00  0.00     0.020 C 
HETATM   10  C           1      21.299  41.933  44.651  0.00  0.00     0.033 C 
HETATM   11  C           1      23.256  44.058  47.968  0.00  0.00     0.055 C 
HETATM   12  C           1      22.801  45.468  48.207  0.00  0.00     0.012 A 
HETATM   13  N           1      21.654  47.262  47.892  0.00  0.00    -0.227 NA
HETATM   14  C           1      22.536  47.532  48.759  0.00  0.00     0.175 A 
HETATM   15  S           1      23.426  46.428  49.119  0.00  0.00    -0.055 SA
ENDROOT
BRANCH  14  16
HETATM   16  N           1      22.783  48.711  49.360  0.00  0.00    -0.287 N 
HETATM   17  C           1      22.090  49.876  49.520  0.00  0.00     0.324 C 
HETATM   18  O           1      22.756  50.847  49.768  0.00  0.00    -0.247 OA
HETATM   19  N           1      20.731  50.004  49.358  0.00  0.00    -0.330 N 
HETATM   20  C           1      19.766  48.987  49.746  0.00  0.00     0.153 C 
HETATM   21  C           1      20.098  51.253  48.949  0.00  0.00     0.153 C 
HETATM   22  C           1      18.810  49.556  50.794  0.00  0.00     0.187 C 
HETATM   23  O           1      18.195  50.728  50.322  0.00  0.00    -0.388 OA
HETATM   24  C           1      19.141  51.727  50.037  0.00  0.00     0.187 C 
HETATM   25  H           1      23.735  48.754  49.696  0.00  0.00     0.172 HD
ENDBRANCH  14  16
BRANCH   8  26
HETATM   26  C           1      20.296  46.350  45.534  0.00  0.00     0.114 C 
BRANCH  26  27
HETATM   27  C           1      18.803  46.611  45.718  0.00  0.00     0.218 C 
HETATM   28  N           1      18.502  47.204  46.916  0.00  0.00    -0.357 N 
HETATM   29  H           1      19.275  47.345  47.567  0.00  0.00     0.162 HD
HETATM   30  O           1      17.994  46.328  44.871  0.00  0.00    -0.274 OA
BRANCH  28  31
HETATM   31  C           1      17.163  47.604  47.380  0.00  0.00     0.076 C 
HETATM   32  C           1      17.013  49.130  47.271  0.00  0.00     0.032 C 
HETATM   33  C           1      16.680  47.117  48.755  0.00  0.00     0.032 C 
ENDBRANCH  28  31
ENDBRANCH  26  27
ENDBRANCH   8  26
BRANCH   4  34
HETATM   34  C           1      24.123  41.707  46.106  0.00  0.00     0.176 C 
BRANCH  34  35
HETATM   35  O           1      24.840  40.572  46.560  0.00  0.00    -0.400 OA
HETATM   36  H           1      25.355  40.201  45.843  0.00  0.00     0.209 HD
ENDBRANCH  34  35
ENDBRANCH   4  34
BRANCH   5  37
HETATM   37  O           1      22.074  39.847  45.478  0.00  0.00    -0.395 OA
HETATM   38  H           1      22.977  39.881  45.159  0.00  0.00     0.210 HD
ENDBRANCH   5  37
TORSDOF 7
ENDMDL
MODEL 9
REMARK VINA RESULT:      -6.6      6.155      9.070
REMARK  7 active torsions:
REMARK  status: ('A' for Active; 'I' for Inactive)
REMARK    1  A    between atoms: C_3  and  N_4 
REMARK       I    between atoms: N_4  and  C_5 
REMARK    2  A    between atoms: C_5  and  C_6 
REMARK    3  A    between atoms: C_6  and  C_14 
REMARK    4  A    between atoms: C_8  and  C_9 
REMARK    5  A    between atoms: C_9  and  O_15 
REMARK    6  A    between atoms: C_10  and  O_17 
REMARK    7  A    between atoms: C_22  and  N_23 
REMARK       I    between atoms: N_23  and  C_24 
REMARK       I    between atoms: C_24  and  N_25 
ROOT
HETATM    1  C           1      23.852  43.572  51.160  0.00  0.00     0.016 C 
HETATM    2  C           1      25.786  44.554  49.736  0.00  0.00     0.012 C 
HETATM    3  C           1      24.367  43.892  49.741  0.00  0.00    -0.030 C 
HETATM    4  C           1      25.915  46.077  50.087  0.00  0.00     0.008 C 
HETATM    5  C           1      24.834  46.852  49.305  0.00  0.00     0.128 C 
HETATM    6  C           1      23.365  44.835  49.029  0.00  0.00     0.013 C 
HETATM    7  C           1      25.597  41.712  49.460  0.00  0.00     0.056 A 
HETATM    8  C           1      24.457  42.547  48.936  0.00  0.00     0.056 C 
HETATM    9  C           1      27.299  46.583  49.592  0.00  0.00     0.020 C 
HETATM   10  C           1      23.433  46.290  49.502  0.00  0.00     0.033 C 
HETATM   11  C           1      26.834  43.663  50.437  0.00  0.00     0.055 C 
HETATM   12  C           1      26.656  42.210  50.106  0.00  0.00     0.012 A 
HETATM   13  N           1      25.655  40.453  49.372  0.00  0.00    -0.227 NA
HETATM   14  C           1      26.726  40.066  49.926  0.00  0.00     0.175 A 
HETATM   15  S           1      27.561  41.126  50.492  0.00  0.00    -0.055 SA
ENDROOT
BRANCH  14  16
HETATM   16  N           1      27.173  38.808  50.094  0.00  0.00    -0.287 N 
HETATM   17  C           1      27.161  37.671  49.338  0.00  0.00     0.324 C 
HETATM   18  O           1      27.296  36.641  49.945  0.00  0.00    -0.247 OA
HETATM   19  N           1      26.952  37.640  47.980  0.00  0.00    -0.330 N 
HETATM   20  C           1      27.447  38.648  47.056  0.00  0.00     0.153 C 
HETATM   21  C           1      26.367  36.491  47.297  0.00  0.00     0.153 C 
HETATM   22  C           1      28.389  38.001  46.041  0.00  0.00     0.187 C 
HETATM   23  O           1      27.752  36.936  45.382  0.00  0.00    -0.388 OA
HETATM   24  C           1      27.361  35.932  46.284  0.00  0.00     0.187 C 
HETATM   25  H           1      27.523  38.669  51.031  0.00  0.00     0.172 HD
ENDBRANCH  14  16
BRANCH   8  26
HETATM   26  C           1      23.150  41.735  48.813  0.00  0.00     0.114 C 
BRANCH  26  27
HETATM   27  C           1      22.859  41.149  47.434  0.00  0.00     0.218 C 
HETATM   28  N           1      23.247  39.841  47.310  0.00  0.00    -0.357 N 
HETATM   29  H           1      23.735  39.428  48.106  0.00  0.00     0.162 HD
HETATM   30  O           1      22.325  41.790  46.564  0.00  0.00    -0.274 OA
BRANCH  28  31
HETATM   31  C           1      23.082  38.990  46.119  0.00  0.00     0.076 C 
HETATM   32  C           1      22.506  37.627  46.534  0.00  0.00     0.032 C 
HETATM   33  C           1      24.280  38.800  45.175  0.00  0.00     0.032 C 
ENDBRANCH  28  31
ENDBRANCH  26  27
ENDBRANCH   8  26
BRANCH   4  34
HETATM   34  C           1      25.831  46.383  51.596  0.00  0.00     0.176 C 
BRANCH  34  35
HETATM   35  O           1      26.283  47.693  51.891  0.00  0.00    -0.400 OA
HETATM   36  H           1      27.072  47.889  51.385  0.00  0.00     0.209 HD
ENDBRANCH  34  35
ENDBRANCH   4  34
BRANCH   5  37
HETATM   37  O           1      24.816  48.210  49.676  0.00  0.00    -0.395 OA
HETATM   38  H           1      25.143  48.312  50.571  0.00  0.00     0.210 HD
ENDBRANCH   5  37
TORSDOF 7
ENDMDL
MODEL 10
REMARK VINA RESULT:      -6.6     14.632     17.637
REMARK  7 active torsions:
REMARK  status: ('A' for Active; 'I' for Inactive)
REMARK    1  A    between atoms: C_3  and  N_4 
REMARK       I    between atoms: N_4  and  C_5 
REMARK    2  A    between atoms: C_5  and  C_6 
REMARK    3  A    between atoms: C_6  and  C_14 
REMARK    4  A    between atoms: C_8  and  C_9 
REMARK    5  A    between atoms: C_9  and  O_15 
REMARK    6  A    between atoms: C_10  and  O_17 
REMARK    7  A    between atoms: C_22  and  N_23 
REMARK       I    between atoms: N_23  and  C_24 
REMARK       I    between atoms: C_24  and  N_25 
ROOT
HETATM    1  C           1      35.416  50.050  40.794  0.00  0.00     0.016 C 
HETATM    2  C           1      33.846  51.775  41.933  0.00  0.00     0.012 C 
HETATM    3  C           1      34.789  51.460  40.723  0.00  0.00    -0.030 C 
HETATM    4  C           1      32.399  51.172  41.944  0.00  0.00     0.008 C 
HETATM    5  C           1      31.768  51.389  40.554  0.00  0.00     0.128 C 
HETATM    6  C           1      33.988  51.602  39.405  0.00  0.00     0.013 C 
HETATM    7  C           1      36.592  52.567  42.091  0.00  0.00     0.056 A 
HETATM    8  C           1      35.952  52.514  40.726  0.00  0.00     0.056 C 
HETATM    9  C           1      31.542  51.962  42.973  0.00  0.00     0.020 C 
HETATM   10  C           1      32.639  50.880  39.413  0.00  0.00     0.033 C 
HETATM   11  C           1      34.585  51.647  43.282  0.00  0.00     0.055 C 
HETATM   12  C           1      35.979  52.201  43.221  0.00  0.00     0.012 A 
HETATM   13  N           1      37.783  52.931  42.304  0.00  0.00    -0.227 NA
HETATM   14  C           1      38.008  52.840  43.546  0.00  0.00     0.175 A 
HETATM   15  S           1      36.889  52.360  44.357  0.00  0.00    -0.055 SA
ENDROOT
BRANCH  14  16
HETATM   16  N           1      39.153  53.091  44.208  0.00  0.00    -0.287 N 
HETATM   17  C           1      40.045  54.124  44.236  0.00  0.00     0.324 C 
HETATM   18  O           1      41.145  53.850  44.641  0.00  0.00    -0.247 OA
HETATM   19  N           1      39.780  55.395  43.786  0.00  0.00    -0.330 N 
HETATM   20  C           1      38.496  56.061  43.938  0.00  0.00     0.153 C 
HETATM   21  C           1      40.817  56.284  43.273  0.00  0.00     0.153 C 
HETATM   22  C           1      38.668  57.335  44.764  0.00  0.00     0.187 C 
HETATM   23  O           1      39.643  58.171  44.192  0.00  0.00    -0.388 OA
HETATM   24  C           1      40.896  57.538  44.137  0.00  0.00     0.187 C 
HETATM   25  H           1      39.446  52.285  44.743  0.00  0.00     0.172 HD
ENDBRANCH  14  16
BRANCH   8  26
HETATM   26  C           1      36.998  52.384  39.598  0.00  0.00     0.114 C 
BRANCH  26  27
HETATM   27  C           1      36.966  53.477  38.534  0.00  0.00     0.218 C 
HETATM   28  N           1      36.697  54.720  39.042  0.00  0.00    -0.357 N 
HETATM   29  H           1      36.487  54.774  40.040  0.00  0.00     0.162 HD
HETATM   30  O           1      37.177  53.245  37.370  0.00  0.00    -0.274 OA
BRANCH  28  31
HETATM   31  C           1      36.623  55.979  38.281  0.00  0.00     0.076 C 
HETATM   32  C           1      38.036  56.549  38.086  0.00  0.00     0.032 C 
HETATM   33  C           1      35.664  57.079  38.763  0.00  0.00     0.032 C 
ENDBRANCH  28  31
ENDBRANCH  26  27
ENDBRANCH   8  26
BRANCH   4  34
HETATM   34  C           1      32.342  49.685  42.351  0.00  0.00     0.176 C 
BRANCH  34  35
HETATM   35  O           1      31.102  49.354  42.951  0.00  0.00    -0.400 OA
HETATM   36  H           1      30.807  50.072  43.512  0.00  0.00     0.209 HD
ENDBRANCH  34  35
ENDBRANCH   4  34
BRANCH   5  37
HETATM   37  O           1      30.513  50.755  40.462  0.00  0.00    -0.395 OA
HETATM   38  H           1      30.314  50.549  39.547  0.00  0.00     0.210 HD
ENDBRANCH   5  37
TORSDOF 7
ENDMDL
