MODEL 1
REMARK VINA RESULT:      -8.9      0.000      0.000
REMARK  5 active torsions:
REMARK  status: ('A' for Active; 'I' for Inactive)
REMARK    1  A    between atoms: O_2  and  C_3 
REMARK    2  A    between atoms: C_5  and  C_15 
REMARK    3  A    between atoms: C_8  and  C_9 
REMARK       I    between atoms: C_15  and  N_17 
REMARK    4  A    between atoms: N_17  and  C_18 
REMARK    5  A    between atoms: C_18  and  C_19 
ROOT
HETATM    1  C   UNL     1      28.694  44.933  54.901  1.00  0.00     0.080 A 
HETATM    2  C   UNL     1      28.046  44.644  53.689  1.00  0.00     0.054 A 
HETATM    3  C   UNL     1      28.543  43.651  52.833  1.00  0.00     0.034 A 
HETATM    4  C   UNL     1      29.712  42.967  53.169  1.00  0.00     0.018 A 
HETATM    5  C   UNL     1      30.356  43.241  54.377  1.00  0.00     0.016 A 
HETATM    6  C   UNL     1      29.852  44.209  55.264  1.00  0.00     0.010 A 
ENDROOT
BRANCH   3   7
HETATM    7  C   UNL     1      27.859  43.302  51.558  1.00  0.00     0.252 C 
HETATM    8  O   UNL     1      27.711  42.131  51.232  1.00  0.00    -0.268 OA
HETATM    9  N   UNL     1      27.385  44.364  50.819  1.00  0.00    -0.353 N 
HETATM   10  H   UNL     1      27.277  45.255  51.288  1.00  0.00     0.163 HD
BRANCH   9  11
HETATM   11  C   UNL     1      26.555  44.152  49.656  1.00  0.00     0.163 C 
BRANCH  11  12
HETATM   12  C   UNL     1      25.538  45.256  49.507  1.00  0.00    -0.019 A 
HETATM   13  C   UNL     1      25.907  46.571  49.840  1.00  0.00     0.012 A 
HETATM   14  C   UNL     1      24.994  47.622  49.731  1.00  0.00     0.020 A 
HETATM   15  C   UNL     1      23.697  47.366  49.295  1.00  0.00     0.012 A 
HETATM   16 BR   UNL     1      22.457  48.786  49.158  1.00  0.00    -0.051 Br
HETATM   17  C   UNL     1      23.305  46.073  48.964  1.00  0.00     0.043 A 
HETATM   18  C   UNL     1      24.222  45.023  49.069  1.00  0.00     0.043 A 
HETATM   19 CL   UNL     1      23.669  43.436  48.666  1.00  0.00    -0.084 Cl
ENDBRANCH  11  12
ENDBRANCH   9  11
ENDBRANCH   3   7
BRANCH   1  20
HETATM   20  O   UNL     1      28.231  45.867  55.793  1.00  0.00    -0.355 OA
HETATM   21  C   UNL     1      27.680  47.070  55.272  1.00  0.00     0.210 C 
ENDBRANCH   1  20
BRANCH   6  22
HETATM   22  C   UNL     1      30.552  44.448  56.523  1.00  0.00     0.013 A 
HETATM   23  C   UNL     1      31.573  43.721  57.178  1.00  0.00     0.152 A 
HETATM   24  N   UNL     1      31.953  44.280  58.331  1.00  0.00    -0.187 NA
HETATM   25  N   UNL     1      31.188  45.379  58.410  1.00  0.00    -0.289 N 
HETATM   26  H   UNL     1      31.306  45.989  59.213  1.00  0.00     0.188 HD
HETATM   27  C   UNL     1      30.332  45.525  57.359  1.00  0.00     0.123 A 
ENDBRANCH   6  22
TORSDOF 5
ENDMDL
MODEL 2
REMARK VINA RESULT:      -8.9      4.418      8.858
REMARK  5 active torsions:
REMARK  status: ('A' for Active; 'I' for Inactive)
REMARK    1  A    between atoms: O_2  and  C_3 
REMARK    2  A    between atoms: C_5  and  C_15 
REMARK    3  A    between atoms: C_8  and  C_9 
REMARK       I    between atoms: C_15  and  N_17 
REMARK    4  A    between atoms: N_17  and  C_18 
REMARK    5  A    between atoms: C_18  and  C_19 
ROOT
HETATM    1  C   UNL     1      25.195  48.477  49.411  1.00  0.00     0.080 A 
HETATM    2  C   UNL     1      26.098  47.465  49.772  1.00  0.00     0.054 A 
HETATM    3  C   UNL     1      25.649  46.157  50.003  1.00  0.00     0.034 A 
HETATM    4  C   UNL     1      24.288  45.864  49.911  1.00  0.00     0.018 A 
HETATM    5  C   UNL     1      23.385  46.863  49.543  1.00  0.00     0.016 A 
HETATM    6  C   UNL     1      23.822  48.171  49.272  1.00  0.00     0.010 A 
ENDROOT
BRANCH   3   7
HETATM    7  C   UNL     1      26.589  45.057  50.357  1.00  0.00     0.252 C 
HETATM    8  O   UNL     1      27.253  44.504  49.489  1.00  0.00    -0.268 OA
HETATM    9  N   UNL     1      26.679  44.750  51.697  1.00  0.00    -0.353 N 
HETATM   10  H   UNL     1      26.341  45.435  52.362  1.00  0.00     0.163 HD
BRANCH   9  11
HETATM   11  C   UNL     1      27.677  43.827  52.184  1.00  0.00     0.163 C 
BRANCH  11  12
HETATM   12  C   UNL     1      28.248  44.291  53.501  1.00  0.00    -0.019 A 
HETATM   13  C   UNL     1      27.589  45.313  54.206  1.00  0.00     0.012 A 
HETATM   14  C   UNL     1      28.089  45.784  55.423  1.00  0.00     0.020 A 
HETATM   15  C   UNL     1      29.262  45.242  55.942  1.00  0.00     0.012 A 
HETATM   16 BR   UNL     1      29.946  45.886  57.581  1.00  0.00    -0.051 Br
HETATM   17  C   UNL     1      29.936  44.234  55.261  1.00  0.00     0.043 A 
HETATM   18  C   UNL     1      29.431  43.760  54.046  1.00  0.00     0.043 A 
HETATM   19 CL   UNL     1      30.327  42.523  53.236  1.00  0.00    -0.084 Cl
ENDBRANCH  11  12
ENDBRANCH   9  11
ENDBRANCH   3   7
BRANCH   1  20
HETATM   20  O   UNL     1      25.583  49.764  49.136  1.00  0.00    -0.355 OA
HETATM   21  C   UNL     1      26.809  49.956  48.442  1.00  0.00     0.210 C 
ENDBRANCH   1  20
BRANCH   6  22
HETATM   22  C   UNL     1      22.841  49.177  48.874  1.00  0.00     0.013 A 
HETATM   23  C   UNL     1      22.057  49.308  47.704  1.00  0.00     0.152 A 
HETATM   24  N   UNL     1      21.266  50.385  47.724  1.00  0.00    -0.187 NA
HETATM   25  N   UNL     1      21.528  50.941  48.916  1.00  0.00    -0.289 N 
HETATM   26  H   UNL     1      21.028  51.786  49.173  1.00  0.00     0.188 HD
HETATM   27  C   UNL     1      22.464  50.262  49.641  1.00  0.00     0.123 A 
ENDBRANCH   6  22
TORSDOF 5
ENDMDL
MODEL 3
REMARK VINA RESULT:      -8.7     10.353     14.058
REMARK  5 active torsions:
REMARK  status: ('A' for Active; 'I' for Inactive)
REMARK    1  A    between atoms: O_2  and  C_3 
REMARK    2  A    between atoms: C_5  and  C_15 
REMARK    3  A    between atoms: C_8  and  C_9 
REMARK       I    between atoms: C_15  and  N_17 
REMARK    4  A    between atoms: N_17  and  C_18 
REMARK    5  A    between atoms: C_18  and  C_19 
ROOT
HETATM    1  C   UNL     1      19.393  50.230  49.674  1.00  0.00     0.080 A 
HETATM    2  C   UNL     1      18.083  50.635  49.973  1.00  0.00     0.054 A 
HETATM    3  C   UNL     1      17.595  51.868  49.517  1.00  0.00     0.034 A 
HETATM    4  C   UNL     1      18.431  52.718  48.791  1.00  0.00     0.018 A 
HETATM    5  C   UNL     1      19.731  52.318  48.482  1.00  0.00     0.016 A 
HETATM    6  C   UNL     1      20.225  51.070  48.900  1.00  0.00     0.010 A 
ENDROOT
BRANCH   3   7
HETATM    7  C   UNL     1      16.200  52.308  49.791  1.00  0.00     0.252 C 
HETATM    8  O   UNL     1      15.250  51.659  49.373  1.00  0.00    -0.268 OA
HETATM    9  N   UNL     1      16.068  53.443  50.562  1.00  0.00    -0.353 N 
HETATM   10  H   UNL     1      16.868  53.739  51.108  1.00  0.00     0.163 HD
BRANCH   9  11
HETATM   11  C   UNL     1      14.775  53.872  51.042  1.00  0.00     0.163 C 
BRANCH  11  12
HETATM   12  C   UNL     1      14.805  55.322  51.458  1.00  0.00    -0.019 A 
HETATM   13  C   UNL     1      15.040  55.637  52.808  1.00  0.00     0.012 A 
HETATM   14  C   UNL     1      15.062  56.965  53.241  1.00  0.00     0.020 A 
HETATM   15  C   UNL     1      14.840  57.992  52.328  1.00  0.00     0.012 A 
HETATM   16 BR   UNL     1      14.859  59.788  52.915  1.00  0.00    -0.051 Br
HETATM   17  C   UNL     1      14.600  57.706  50.987  1.00  0.00     0.043 A 
HETATM   18  C   UNL     1      14.583  56.377  50.555  1.00  0.00     0.043 A 
HETATM   19 CL   UNL     1      14.255  56.085  48.883  1.00  0.00    -0.084 Cl
ENDBRANCH  11  12
ENDBRANCH   9  11
ENDBRANCH   3   7
BRANCH   1  20
HETATM   20  O   UNL     1      19.910  49.019  50.062  1.00  0.00    -0.355 OA
HETATM   21  C   UNL     1      19.342  47.842  49.502  1.00  0.00     0.210 C 
ENDBRANCH   1  20
BRANCH   6  22
HETATM   22  C   UNL     1      21.588  50.690  48.537  1.00  0.00     0.013 A 
HETATM   23  C   UNL     1      22.101  50.018  47.403  1.00  0.00     0.152 A 
HETATM   24  N   UNL     1      23.427  49.860  47.447  1.00  0.00    -0.187 NA
HETATM   25  N   UNL     1      23.772  50.445  48.604  1.00  0.00    -0.289 N 
HETATM   26  H   UNL     1      24.754  50.463  48.859  1.00  0.00     0.188 HD
HETATM   27  C   UNL     1      22.711  50.954  49.295  1.00  0.00     0.123 A 
ENDBRANCH   6  22
TORSDOF 5
ENDMDL
MODEL 4
REMARK VINA RESULT:      -8.3      4.028      6.152
REMARK  5 active torsions:
REMARK  status: ('A' for Active; 'I' for Inactive)
REMARK    1  A    between atoms: O_2  and  C_3 
REMARK    2  A    between atoms: C_5  and  C_15 
REMARK    3  A    between atoms: C_8  and  C_9 
REMARK       I    between atoms: C_15  and  N_17 
REMARK    4  A    between atoms: N_17  and  C_18 
REMARK    5  A    between atoms: C_18  and  C_19 
ROOT
HETATM    1  C   UNL     1      24.530  44.798  51.293  1.00  0.00     0.080 A 
HETATM    2  C   UNL     1      24.031  45.759  50.400  1.00  0.00     0.054 A 
HETATM    3  C   UNL     1      24.528  47.070  50.411  1.00  0.00     0.034 A 
HETATM    4  C   UNL     1      25.502  47.434  51.342  1.00  0.00     0.018 A 
HETATM    5  C   UNL     1      26.010  46.482  52.227  1.00  0.00     0.016 A 
HETATM    6  C   UNL     1      25.549  45.154  52.206  1.00  0.00     0.010 A 
ENDROOT
BRANCH   3   7
HETATM    7  C   UNL     1      24.040  48.101  49.454  1.00  0.00     0.252 C 
HETATM    8  O   UNL     1      24.700  49.110  49.238  1.00  0.00    -0.268 OA
HETATM    9  N   UNL     1      22.849  47.819  48.822  1.00  0.00    -0.353 N 
HETATM   10  H   UNL     1      22.530  46.858  48.822  1.00  0.00     0.163 HD
BRANCH   9  11
HETATM   11  C   UNL     1      22.359  48.653  47.748  1.00  0.00     0.163 C 
BRANCH  11  12
HETATM   12  C   UNL     1      21.185  49.485  48.200  1.00  0.00    -0.019 A 
HETATM   13  C   UNL     1      21.371  50.860  48.422  1.00  0.00     0.012 A 
HETATM   14  C   UNL     1      20.316  51.666  48.855  1.00  0.00     0.020 A 
HETATM   15  C   UNL     1      19.063  51.101  49.079  1.00  0.00     0.012 A 
HETATM   16 BR   UNL     1      17.638  52.189  49.675  1.00  0.00    -0.051 Br
HETATM   17  C   UNL     1      18.855  49.741  48.872  1.00  0.00     0.043 A 
HETATM   18  C   UNL     1      19.911  48.937  48.434  1.00  0.00     0.043 A 
HETATM   19 CL   UNL     1      19.595  47.251  48.218  1.00  0.00    -0.084 Cl
ENDBRANCH  11  12
ENDBRANCH   9  11
ENDBRANCH   3   7
BRANCH   1  20
HETATM   20  O   UNL     1      24.107  43.493  51.302  1.00  0.00    -0.355 OA
HETATM   21  C   UNL     1      24.366  42.701  50.150  1.00  0.00     0.210 C 
ENDBRANCH   1  20
BRANCH   6  22
HETATM   22  C   UNL     1      26.123  44.191  53.140  1.00  0.00     0.013 A 
HETATM   23  C   UNL     1      27.213  43.298  53.012  1.00  0.00     0.152 A 
HETATM   24  N   UNL     1      27.424  42.572  54.114  1.00  0.00    -0.187 NA
HETATM   25  N   UNL     1      26.480  43.009  54.960  1.00  0.00    -0.289 N 
HETATM   26  H   UNL     1      26.445  42.604  55.890  1.00  0.00     0.188 HD
HETATM   27  C   UNL     1      25.674  43.972  54.428  1.00  0.00     0.123 A 
ENDBRANCH   6  22
TORSDOF 5
ENDMDL
MODEL 5
REMARK VINA RESULT:      -8.1      6.449     11.190
REMARK  5 active torsions:
REMARK  status: ('A' for Active; 'I' for Inactive)
REMARK    1  A    between atoms: O_2  and  C_3 
REMARK    2  A    between atoms: C_5  and  C_15 
REMARK    3  A    between atoms: C_8  and  C_9 
REMARK       I    between atoms: C_15  and  N_17 
REMARK    4  A    between atoms: N_17  and  C_18 
REMARK    5  A    between atoms: C_18  and  C_19 
ROOT
HETATM    1  C   UNL     1      19.629  49.379  48.611  1.00  0.00     0.080 A 
HETATM    2  C   UNL     1      20.936  48.872  48.555  1.00  0.00     0.054 A 
HETATM    3  C   UNL     1      22.036  49.740  48.498  1.00  0.00     0.034 A 
HETATM    4  C   UNL     1      21.830  51.119  48.460  1.00  0.00     0.018 A 
HETATM    5  C   UNL     1      20.534  51.631  48.526  1.00  0.00     0.016 A 
HETATM    6  C   UNL     1      19.421  50.777  48.620  1.00  0.00     0.010 A 
ENDROOT
BRANCH   3   7
HETATM    7  C   UNL     1      23.435  49.230  48.469  1.00  0.00     0.252 C 
HETATM    8  O   UNL     1      24.246  49.687  47.674  1.00  0.00    -0.268 OA
HETATM    9  N   UNL     1      23.743  48.266  49.404  1.00  0.00    -0.353 N 
HETATM   10  H   UNL     1      23.126  48.165  50.200  1.00  0.00     0.163 HD
BRANCH   9  11
HETATM   11  C   UNL     1      25.104  47.819  49.593  1.00  0.00     0.163 C 
BRANCH  11  12
HETATM   12  C   UNL     1      25.209  46.883  50.771  1.00  0.00    -0.019 A 
HETATM   13  C   UNL     1      25.844  47.332  51.942  1.00  0.00     0.012 A 
HETATM   14  C   UNL     1      25.977  46.494  53.052  1.00  0.00     0.020 A 
HETATM   15  C   UNL     1      25.482  45.194  52.998  1.00  0.00     0.012 A 
HETATM   16 BR   UNL     1      25.671  44.057  54.496  1.00  0.00    -0.051 Br
HETATM   17  C   UNL     1      24.854  44.724  51.849  1.00  0.00     0.043 A 
HETATM   18  C   UNL     1      24.718  45.566  50.741  1.00  0.00     0.043 A 
HETATM   19 CL   UNL     1      23.951  44.916  49.334  1.00  0.00    -0.084 Cl
ENDBRANCH  11  12
ENDBRANCH   9  11
ENDBRANCH   3   7
BRANCH   1  20
HETATM   20  O   UNL     1      18.518  48.578  48.705  1.00  0.00    -0.355 OA
HETATM   21  C   UNL     1      18.703  47.171  48.626  1.00  0.00     0.210 C 
ENDBRANCH   1  20
BRANCH   6  22
HETATM   22  C   UNL     1      18.085  51.361  48.703  1.00  0.00     0.013 A 
HETATM   23  C   UNL     1      17.141  51.683  47.700  1.00  0.00     0.152 A 
HETATM   24  N   UNL     1      16.016  52.210  48.193  1.00  0.00    -0.187 NA
HETATM   25  N   UNL     1      16.228  52.213  49.517  1.00  0.00    -0.289 N 
HETATM   26  H   UNL     1      15.492  52.565  50.121  1.00  0.00     0.188 HD
HETATM   27  C   UNL     1      17.449  51.720  49.875  1.00  0.00     0.123 A 
ENDBRANCH   6  22
TORSDOF 5
ENDMDL
MODEL 6
REMARK VINA RESULT:      -7.9      4.022      5.906
REMARK  5 active torsions:
REMARK  status: ('A' for Active; 'I' for Inactive)
REMARK    1  A    between atoms: O_2  and  C_3 
REMARK    2  A    between atoms: C_5  and  C_15 
REMARK    3  A    between atoms: C_8  and  C_9 
REMARK       I    between atoms: C_15  and  N_17 
REMARK    4  A    between atoms: N_17  and  C_18 
REMARK    5  A    between atoms: C_18  and  C_19 
ROOT
HETATM    1  C   UNL     1      26.697  44.176  50.072  1.00  0.00     0.080 A 
HETATM    2  C   UNL     1      26.021  45.305  49.584  1.00  0.00     0.054 A 
HETATM    3  C   UNL     1      25.659  46.349  50.448  1.00  0.00     0.034 A 
HETATM    4  C   UNL     1      25.939  46.248  51.812  1.00  0.00     0.018 A 
HETATM    5  C   UNL     1      26.620  45.133  52.302  1.00  0.00     0.016 A 
HETATM    6  C   UNL     1      27.022  44.094  51.445  1.00  0.00     0.010 A 
ENDROOT
BRANCH   3   7
HETATM    7  C   UNL     1      24.970  47.572  49.953  1.00  0.00     0.252 C 
HETATM    8  O   UNL     1      25.593  48.614  49.793  1.00  0.00    -0.268 OA
HETATM    9  N   UNL     1      23.631  47.432  49.660  1.00  0.00    -0.353 N 
HETATM   10  H   UNL     1      23.272  46.494  49.530  1.00  0.00     0.163 HD
BRANCH   9  11
HETATM   11  C   UNL     1      22.895  48.492  49.012  1.00  0.00     0.163 C 
BRANCH  11  12
HETATM   12  C   UNL     1      21.419  48.183  48.974  1.00  0.00    -0.019 A 
HETATM   13  C   UNL     1      20.997  46.940  48.470  1.00  0.00     0.012 A 
HETATM   14  C   UNL     1      19.640  46.616  48.403  1.00  0.00     0.020 A 
HETATM   15  C   UNL     1      18.689  47.538  48.832  1.00  0.00     0.012 A 
HETATM   16 BR   UNL     1      16.852  47.106  48.730  1.00  0.00    -0.051 Br
HETATM   17  C   UNL     1      19.081  48.777  49.329  1.00  0.00     0.043 A 
HETATM   18  C   UNL     1      20.440  49.097  49.400  1.00  0.00     0.043 A 
HETATM   19 CL   UNL     1      20.861  50.661  50.006  1.00  0.00    -0.084 Cl
ENDBRANCH  11  12
ENDBRANCH   9  11
ENDBRANCH   3   7
BRANCH   1  20
HETATM   20  O   UNL     1      27.107  43.143  49.267  1.00  0.00    -0.355 OA
HETATM   21  C   UNL     1      26.119  42.243  48.782  1.00  0.00     0.210 C 
ENDBRANCH   1  20
BRANCH   6  22
HETATM   22  C   UNL     1      27.746  42.956  52.003  1.00  0.00     0.013 A 
HETATM   23  C   UNL     1      29.092  42.814  52.416  1.00  0.00     0.152 A 
HETATM   24  N   UNL     1      29.368  41.592  52.880  1.00  0.00    -0.187 NA
HETATM   25  N   UNL     1      28.195  40.949  52.782  1.00  0.00    -0.289 N 
HETATM   26  H   UNL     1      28.149  39.984  53.093  1.00  0.00     0.188 HD
HETATM   27  C   UNL     1      27.194  41.716  52.261  1.00  0.00     0.123 A 
ENDBRANCH   6  22
TORSDOF 5
ENDMDL
MODEL 7
REMARK VINA RESULT:      -7.9     13.274     15.871
REMARK  5 active torsions:
REMARK  status: ('A' for Active; 'I' for Inactive)
REMARK    1  A    between atoms: O_2  and  C_3 
REMARK    2  A    between atoms: C_5  and  C_15 
REMARK    3  A    between atoms: C_8  and  C_9 
REMARK       I    between atoms: C_15  and  N_17 
REMARK    4  A    between atoms: N_17  and  C_18 
REMARK    5  A    between atoms: C_18  and  C_19 
ROOT
HETATM    1  C   UNL     1      32.326  50.314  40.920  1.00  0.00     0.080 A 
HETATM    2  C   UNL     1      33.689  50.625  41.048  1.00  0.00     0.054 A 
HETATM    3  C   UNL     1      34.203  51.092  42.266  1.00  0.00     0.034 A 
HETATM    4  C   UNL     1      33.347  51.287  43.351  1.00  0.00     0.018 A 
HETATM    5  C   UNL     1      31.992  50.971  43.234  1.00  0.00     0.016 A 
HETATM    6  C   UNL     1      31.466  50.466  42.032  1.00  0.00     0.010 A 
ENDROOT
BRANCH   3   7
HETATM    7  C   UNL     1      35.649  51.399  42.440  1.00  0.00     0.252 C 
HETATM    8  O   UNL     1      36.498  50.549  42.202  1.00  0.00    -0.268 OA
HETATM    9  N   UNL     1      35.948  52.685  42.835  1.00  0.00    -0.353 N 
HETATM   10  H   UNL     1      35.234  53.393  42.718  1.00  0.00     0.163 HD
BRANCH   9  11
HETATM   11  C   UNL     1      37.313  53.155  42.871  1.00  0.00     0.163 C 
BRANCH  11  12
HETATM   12  C   UNL     1      37.809  53.276  44.290  1.00  0.00    -0.019 A 
HETATM   13  C   UNL     1      37.370  54.357  45.074  1.00  0.00     0.012 A 
HETATM   14  C   UNL     1      37.814  54.517  46.389  1.00  0.00     0.020 A 
HETATM   15  C   UNL     1      38.709  53.599  46.930  1.00  0.00     0.012 A 
HETATM   16 BR   UNL     1      39.319  53.821  48.706  1.00  0.00    -0.051 Br
HETATM   17  C   UNL     1      39.163  52.523  46.174  1.00  0.00     0.043 A 
HETATM   18  C   UNL     1      38.713  52.363  44.860  1.00  0.00     0.043 A 
HETATM   19 CL   UNL     1      39.331  51.020  43.963  1.00  0.00    -0.084 Cl
ENDBRANCH  11  12
ENDBRANCH   9  11
ENDBRANCH   3   7
BRANCH   1  20
HETATM   20  O   UNL     1      31.776  49.818  39.764  1.00  0.00    -0.355 OA
HETATM   21  C   UNL     1      31.624  50.706  38.665  1.00  0.00     0.210 C 
ENDBRANCH   1  20
BRANCH   6  22
HETATM   22  C   UNL     1      30.046  50.135  41.964  1.00  0.00     0.013 A 
HETATM   23  C   UNL     1      28.919  50.916  41.616  1.00  0.00     0.152 A 
HETATM   24  N   UNL     1      27.772  50.232  41.677  1.00  0.00    -0.187 NA
HETATM   25  N   UNL     1      28.162  49.004  42.049  1.00  0.00    -0.289 N 
HETATM   26  H   UNL     1      27.452  48.286  42.155  1.00  0.00     0.188 HD
HETATM   27  C   UNL     1      29.509  48.893  42.238  1.00  0.00     0.123 A 
ENDBRANCH   6  22
TORSDOF 5
ENDMDL
MODEL 8
REMARK VINA RESULT:      -7.9      5.905     10.598
REMARK  5 active torsions:
REMARK  status: ('A' for Active; 'I' for Inactive)
REMARK    1  A    between atoms: O_2  and  C_3 
REMARK    2  A    between atoms: C_5  and  C_15 
REMARK    3  A    between atoms: C_8  and  C_9 
REMARK       I    between atoms: C_15  and  N_17 
REMARK    4  A    between atoms: N_17  and  C_18 
REMARK    5  A    between atoms: C_18  and  C_19 
ROOT
HETATM    1  C   UNL     1      20.745  49.035  49.188  1.00  0.00     0.080 A 
HETATM    2  C   UNL     1      22.097  48.656  49.186  1.00  0.00     0.054 A 
HETATM    3  C   UNL     1      23.096  49.578  48.843  1.00  0.00     0.034 A 
HETATM    4  C   UNL     1      22.743  50.874  48.464  1.00  0.00     0.018 A 
HETATM    5  C   UNL     1      21.402  51.261  48.473  1.00  0.00     0.016 A 
HETATM    6  C   UNL     1      20.390  50.360  48.850  1.00  0.00     0.010 A 
ENDROOT
BRANCH   3   7
HETATM    7  C   UNL     1      24.539  49.213  48.862  1.00  0.00     0.252 C 
HETATM    8  O   UNL     1      25.339  49.802  48.146  1.00  0.00    -0.268 OA
HETATM    9  N   UNL     1      24.897  48.222  49.750  1.00  0.00    -0.353 N 
HETATM   10  H   UNL     1      24.253  48.005  50.501  1.00  0.00     0.163 HD
BRANCH   9  11
HETATM   11  C   UNL     1      26.285  47.900  49.988  1.00  0.00     0.163 C 
BRANCH  11  12
HETATM   12  C   UNL     1      26.438  46.473  50.453  1.00  0.00    -0.019 A 
HETATM   13  C   UNL     1      26.792  45.486  49.516  1.00  0.00     0.012 A 
HETATM   14  C   UNL     1      26.931  44.150  49.899  1.00  0.00     0.020 A 
HETATM   15  C   UNL     1      26.710  43.786  51.224  1.00  0.00     0.012 A 
HETATM   16 BR   UNL     1      26.887  41.977  51.741  1.00  0.00    -0.051 Br
HETATM   17  C   UNL     1      26.354  44.743  52.170  1.00  0.00     0.043 A 
HETATM   18  C   UNL     1      26.220  46.080  51.785  1.00  0.00     0.043 A 
HETATM   19 CL   UNL     1      25.752  47.218  53.000  1.00  0.00    -0.084 Cl
ENDBRANCH  11  12
ENDBRANCH   9  11
ENDBRANCH   3   7
BRANCH   1  20
HETATM   20  O   UNL     1      19.730  48.186  49.551  1.00  0.00    -0.355 OA
HETATM   21  C   UNL     1      19.513  47.028  48.754  1.00  0.00     0.210 C 
ENDBRANCH   1  20
BRANCH   6  22
HETATM   22  C   UNL     1      19.003  50.817  48.860  1.00  0.00     0.013 A 
HETATM   23  C   UNL     1      17.982  50.730  47.884  1.00  0.00     0.152 A 
HETATM   24  N   UNL     1      16.831  51.277  48.285  1.00  0.00    -0.187 NA
HETATM   25  N   UNL     1      17.105  51.703  49.526  1.00  0.00    -0.289 N 
HETATM   26  H   UNL     1      16.364  52.155  50.053  1.00  0.00     0.188 HD
HETATM   27  C   UNL     1      18.388  51.457  49.917  1.00  0.00     0.123 A 
ENDBRANCH   6  22
TORSDOF 5
ENDMDL
MODEL 9
REMARK VINA RESULT:      -7.9     13.842     16.359
REMARK  5 active torsions:
REMARK  status: ('A' for Active; 'I' for Inactive)
REMARK    1  A    between atoms: O_2  and  C_3 
REMARK    2  A    between atoms: C_5  and  C_15 
REMARK    3  A    between atoms: C_8  and  C_9 
REMARK       I    between atoms: C_15  and  N_17 
REMARK    4  A    between atoms: N_17  and  C_18 
REMARK    5  A    between atoms: C_18  and  C_19 
ROOT
HETATM    1  C   UNL     1      31.991  51.104  40.749  1.00  0.00     0.080 A 
HETATM    2  C   UNL     1      33.372  51.033  40.993  1.00  0.00     0.054 A 
HETATM    3  C   UNL     1      33.881  51.249  42.281  1.00  0.00     0.034 A 
HETATM    4  C   UNL     1      33.013  51.574  43.324  1.00  0.00     0.018 A 
HETATM    5  C   UNL     1      31.638  51.636  43.092  1.00  0.00     0.016 A 
HETATM    6  C   UNL     1      31.106  51.387  41.814  1.00  0.00     0.010 A 
ENDROOT
BRANCH   3   7
HETATM    7  C   UNL     1      35.337  51.149  42.575  1.00  0.00     0.252 C 
HETATM    8  O   UNL     1      36.079  50.518  41.832  1.00  0.00    -0.268 OA
HETATM    9  N   UNL     1      35.774  51.834  43.687  1.00  0.00    -0.353 N 
HETATM   10  H   UNL     1      35.175  52.559  44.062  1.00  0.00     0.163 HD
BRANCH   9  11
HETATM   11  C   UNL     1      37.184  51.958  43.980  1.00  0.00     0.163 C 
BRANCH  11  12
HETATM   12  C   UNL     1      37.577  53.405  44.150  1.00  0.00    -0.019 A 
HETATM   13  C   UNL     1      37.674  53.934  45.449  1.00  0.00     0.012 A 
HETATM   14  C   UNL     1      38.020  55.272  45.654  1.00  0.00     0.020 A 
HETATM   15  C   UNL     1      38.265  56.096  44.560  1.00  0.00     0.012 A 
HETATM   16 BR   UNL     1      38.723  57.909  44.837  1.00  0.00    -0.051 Br
HETATM   17  C   UNL     1      38.170  55.598  43.264  1.00  0.00     0.043 A 
HETATM   18  C   UNL     1      37.828  54.258  43.061  1.00  0.00     0.043 A 
HETATM   19 CL   UNL     1      37.703  53.704  41.429  1.00  0.00    -0.084 Cl
ENDBRANCH  11  12
ENDBRANCH   9  11
ENDBRANCH   3   7
BRANCH   1  20
HETATM   20  O   UNL     1      31.435  50.865  39.517  1.00  0.00    -0.355 OA
HETATM   21  C   UNL     1      32.169  51.262  38.367  1.00  0.00     0.210 C 
ENDBRANCH   1  20
BRANCH   6  22
HETATM   22  C   UNL     1      29.660  51.448  41.625  1.00  0.00     0.013 A 
HETATM   23  C   UNL     1      28.794  52.540  41.381  1.00  0.00     0.152 A 
HETATM   24  N   UNL     1      27.514  52.173  41.264  1.00  0.00    -0.187 NA
HETATM   25  N   UNL     1      27.557  50.842  41.417  1.00  0.00    -0.289 N 
HETATM   26  H   UNL     1      26.686  50.323  41.355  1.00  0.00     0.188 HD
HETATM   27  C   UNL     1      28.813  50.358  41.639  1.00  0.00     0.123 A 
ENDBRANCH   6  22
TORSDOF 5
ENDMDL
MODEL 10
REMARK VINA RESULT:      -7.7     11.632     12.852
REMARK  5 active torsions:
REMARK  status: ('A' for Active; 'I' for Inactive)
REMARK    1  A    between atoms: O_2  and  C_3 
REMARK    2  A    between atoms: C_5  and  C_15 
REMARK    3  A    between atoms: C_8  and  C_9 
REMARK       I    between atoms: C_15  and  N_17 
REMARK    4  A    between atoms: N_17  and  C_18 
REMARK    5  A    between atoms: C_18  and  C_19 
ROOT
HETATM    1  C   UNL     1      31.345  51.407  41.616  1.00  0.00     0.080 A 
HETATM    2  C   UNL     1      30.144  50.808  41.206  1.00  0.00     0.054 A 
HETATM    3  C   UNL     1      29.796  49.526  41.654  1.00  0.00     0.034 A 
HETATM    4  C   UNL     1      30.669  48.822  42.485  1.00  0.00     0.018 A 
HETATM    5  C   UNL     1      31.860  49.414  42.906  1.00  0.00     0.016 A 
HETATM    6  C   UNL     1      32.208  50.714  42.496  1.00  0.00     0.010 A 
ENDROOT
BRANCH   3   7
HETATM    7  C   UNL     1      28.515  48.879  41.260  1.00  0.00     0.252 C 
HETATM    8  O   UNL     1      27.449  49.458  41.429  1.00  0.00    -0.268 OA
HETATM    9  N   UNL     1      28.623  47.638  40.672  1.00  0.00    -0.353 N 
HETATM   10  H   UNL     1      29.525  47.369  40.298  1.00  0.00     0.163 HD
BRANCH   9  11
HETATM   11  C   UNL     1      27.472  46.986  40.090  1.00  0.00     0.163 C 
BRANCH  11  12
HETATM   12  C   UNL     1      27.149  45.705  40.819  1.00  0.00    -0.019 A 
HETATM   13  C   UNL     1      26.283  45.752  41.925  1.00  0.00     0.012 A 
HETATM   14  C   UNL     1      25.967  44.593  42.639  1.00  0.00     0.020 A 
HETATM   15  C   UNL     1      26.522  43.375  42.256  1.00  0.00     0.012 A 
HETATM   16 BR   UNL     1      26.104  41.809  43.227  1.00  0.00    -0.051 Br
HETATM   17  C   UNL     1      27.386  43.303  41.167  1.00  0.00     0.043 A 
HETATM   18  C   UNL     1      27.697  44.463  40.452  1.00  0.00     0.043 A 
HETATM   19 CL   UNL     1      28.794  44.313  39.125  1.00  0.00    -0.084 Cl
ENDBRANCH  11  12
ENDBRANCH   9  11
ENDBRANCH   3   7
BRANCH   1  20
HETATM   20  O   UNL     1      31.718  52.673  41.240  1.00  0.00    -0.355 OA
HETATM   21  C   UNL     1      30.692  53.593  40.888  1.00  0.00     0.210 C 
ENDBRANCH   1  20
BRANCH   6  22
HETATM   22  C   UNL     1      33.457  51.297  42.976  1.00  0.00     0.013 A 
HETATM   23  C   UNL     1      34.735  51.396  42.376  1.00  0.00     0.152 A 
HETATM   24  N   UNL     1      35.629  52.013  43.154  1.00  0.00    -0.187 NA
HETATM   25  N   UNL     1      34.923  52.327  44.250  1.00  0.00    -0.289 N 
HETATM   26  H   UNL     1      35.395  52.824  44.999  1.00  0.00     0.188 HD
HETATM   27  C   UNL     1      33.622  51.919  44.197  1.00  0.00     0.123 A 
ENDBRANCH   6  22
TORSDOF 5
ENDMDL
