MODEL 1
REMARK VINA RESULT:      -9.0      0.000      0.000
REMARK  7 active torsions:
REMARK  status: ('A' for Active; 'I' for Inactive)
REMARK    1  A    between atoms: C_2  and  C_3 
REMARK    2  A    between atoms: C_3  and  C_4 
REMARK    3  A    between atoms: C_5  and  O_6 
REMARK    4  A    between atoms: O_6  and  C_7 
REMARK    5  A    between atoms: C_7  and  C_8 
REMARK       I    between atoms: C_8  and  N_9 
REMARK    6  A    between atoms: N_9  and  C_10 
REMARK    7  A    between atoms: C_17  and  C_18 
REMARK       I    between atoms: C_18  and  N_19 
ROOT
HETATM    1  C   UNL     1      27.794  41.622  50.910  1.00  0.00     0.246 C 
HETATM    2  N   UNL     1      26.785  42.258  50.239  1.00  0.00    -0.325 N 
HETATM    3  O   UNL     1      28.341  40.674  50.339  1.00  0.00    -0.271 OA
HETATM    4  H   UNL     1      26.468  41.712  49.444  1.00  0.00     0.169 HD
ENDROOT
BRANCH   2   5
HETATM    5  C   UNL     1      26.181  43.510  50.423  1.00  0.00     0.035 A 
HETATM    6  C   UNL     1      26.757  44.709  49.986  1.00  0.00     0.046 A 
HETATM    7  C   UNL     1      26.058  45.922  50.171  1.00  0.00     0.030 A 
HETATM    8  C   UNL     1      24.809  45.893  50.779  1.00  0.00     0.063 A 
HETATM    9  C   UNL     1      26.286  47.294  49.858  1.00  0.00     0.156 A 
HETATM   10  N   UNL     1      24.399  47.196  50.824  1.00  0.00    -0.277 N 
HETATM   11  C   UNL     1      24.196  44.712  51.203  1.00  0.00     0.034 A 
HETATM   12  H   UNL     1      23.532  47.554  51.209  1.00  0.00     0.189 HD
HETATM   13  N   UNL     1      25.256  48.068  50.269  1.00  0.00    -0.168 NA
HETATM   14  C   UNL     1      24.901  43.520  50.992  1.00  0.00     0.032 A 
BRANCH   9  15
HETATM   15  C   UNL     1      27.453  47.866  49.173  1.00  0.00     0.270 C 
HETATM   16  N   UNL     1      27.454  49.232  49.114  1.00  0.00    -0.365 N 
HETATM   17  H   UNL     1      26.678  49.737  49.526  1.00  0.00     0.159 HD
HETATM   18  H   UNL     1      28.207  49.715  48.650  1.00  0.00     0.159 HD
HETATM   19  O   UNL     1      28.360  47.202  48.682  1.00  0.00    -0.266 OA
ENDBRANCH   9  15
ENDBRANCH   2   5
BRANCH   1  20
HETATM   20  C   UNL     1      28.123  41.991  52.365  1.00  0.00     0.278 C 
BRANCH  20  21
HETATM   21  O   UNL     1      28.572  43.336  52.527  1.00  0.00    -0.342 OA
BRANCH  21  22
HETATM   22  C   UNL     1      29.153  43.689  53.716  1.00  0.00     0.076 A 
HETATM   23  C   UNL     1      28.577  44.784  54.405  1.00  0.00    -0.021 A 
HETATM   24  C   UNL     1      29.189  45.203  55.599  1.00  0.00     0.010 A 
HETATM   25  C   UNL     1      30.331  44.567  56.091  1.00  0.00     0.001 A 
HETATM   26  C   UNL     1      30.890  43.503  55.396  1.00  0.00     0.003 A 
HETATM   27  C   UNL     1      30.307  43.068  54.207  1.00  0.00     0.037 A 
BRANCH  23  28
HETATM   28  C   UNL     1      27.320  45.464  53.855  1.00  0.00     0.017 C 
HETATM   29  C   UNL     1      26.052  44.752  54.348  1.00  0.00     0.015 C 
BRANCH  28  30
HETATM   30  C   UNL     1      27.224  46.999  54.047  1.00  0.00     0.004 C 
HETATM   31  C   UNL     1      25.817  47.592  54.060  1.00  0.00     0.006 C 
ENDBRANCH  28  30
ENDBRANCH  23  28
ENDBRANCH  21  22
ENDBRANCH  20  21
ENDBRANCH   1  20
TORSDOF 7
ENDMDL
MODEL 2
REMARK VINA RESULT:      -8.2      2.454      3.646
REMARK  7 active torsions:
REMARK  status: ('A' for Active; 'I' for Inactive)
REMARK    1  A    between atoms: C_2  and  C_3 
REMARK    2  A    between atoms: C_3  and  C_4 
REMARK    3  A    between atoms: C_5  and  O_6 
REMARK    4  A    between atoms: O_6  and  C_7 
REMARK    5  A    between atoms: C_7  and  C_8 
REMARK       I    between atoms: C_8  and  N_9 
REMARK    6  A    between atoms: N_9  and  C_10 
REMARK    7  A    between atoms: C_17  and  C_18 
REMARK       I    between atoms: C_18  and  N_19 
ROOT
HETATM    1  C   UNL     1      25.148  44.869  52.004  1.00  0.00     0.246 C 
HETATM    2  N   UNL     1      24.582  45.903  51.308  1.00  0.00    -0.325 N 
HETATM    3  O   UNL     1      24.390  43.986  52.418  1.00  0.00    -0.271 OA
HETATM    4  H   UNL     1      23.574  45.918  51.424  1.00  0.00     0.169 HD
ENDROOT
BRANCH   2   5
HETATM    5  C   UNL     1      25.132  46.868  50.452  1.00  0.00     0.035 A 
HETATM    6  C   UNL     1      24.361  47.835  49.795  1.00  0.00     0.046 A 
HETATM    7  C   UNL     1      25.002  48.799  48.987  1.00  0.00     0.030 A 
HETATM    8  C   UNL     1      26.386  48.767  48.870  1.00  0.00     0.063 A 
HETATM    9  C   UNL     1      24.590  49.917  48.203  1.00  0.00     0.156 A 
HETATM   10  N   UNL     1      26.702  49.799  48.031  1.00  0.00    -0.277 N 
HETATM   11  C   UNL     1      27.184  47.833  49.532  1.00  0.00     0.034 A 
HETATM   12  H   UNL     1      27.625  50.072  47.714  1.00  0.00     0.189 HD
HETATM   13  N   UNL     1      25.647  50.522  47.617  1.00  0.00    -0.168 NA
HETATM   14  C   UNL     1      26.527  46.897  50.342  1.00  0.00     0.032 A 
BRANCH   9  15
HETATM   15  C   UNL     1      23.219  50.412  48.016  1.00  0.00     0.270 C 
HETATM   16  N   UNL     1      22.687  51.016  49.121  1.00  0.00    -0.365 N 
HETATM   17  H   UNL     1      23.249  51.073  49.962  1.00  0.00     0.159 HD
HETATM   18  H   UNL     1      21.745  51.374  49.094  1.00  0.00     0.159 HD
HETATM   19  O   UNL     1      22.581  50.302  46.974  1.00  0.00    -0.266 OA
ENDBRANCH   9  15
ENDBRANCH   2   5
BRANCH   1  20
HETATM   20  C   UNL     1      26.640  44.892  52.368  1.00  0.00     0.278 C 
BRANCH  20  21
HETATM   21  O   UNL     1      26.898  44.614  53.744  1.00  0.00    -0.342 OA
BRANCH  21  22
HETATM   22  C   UNL     1      28.127  44.117  54.088  1.00  0.00     0.076 A 
HETATM   23  C   UNL     1      28.822  44.795  55.118  1.00  0.00    -0.021 A 
HETATM   24  C   UNL     1      30.110  44.339  55.450  1.00  0.00     0.010 A 
HETATM   25  C   UNL     1      30.691  43.259  54.784  1.00  0.00     0.001 A 
HETATM   26  C   UNL     1      30.000  42.613  53.768  1.00  0.00     0.003 A 
HETATM   27  C   UNL     1      28.724  43.045  53.414  1.00  0.00     0.037 A 
BRANCH  23  28
HETATM   28  C   UNL     1      28.166  45.973  55.843  1.00  0.00     0.017 C 
HETATM   29  C   UNL     1      28.786  46.175  57.233  1.00  0.00     0.015 C 
BRANCH  28  30
HETATM   30  C   UNL     1      28.078  47.307  55.058  1.00  0.00     0.004 C 
HETATM   31  C   UNL     1      26.742  48.041  55.120  1.00  0.00     0.006 C 
ENDBRANCH  28  30
ENDBRANCH  23  28
ENDBRANCH  21  22
ENDBRANCH  20  21
ENDBRANCH   1  20
TORSDOF 7
ENDMDL
MODEL 3
REMARK VINA RESULT:      -8.1      3.454      6.853
REMARK  7 active torsions:
REMARK  status: ('A' for Active; 'I' for Inactive)
REMARK    1  A    between atoms: C_2  and  C_3 
REMARK    2  A    between atoms: C_3  and  C_4 
REMARK    3  A    between atoms: C_5  and  O_6 
REMARK    4  A    between atoms: O_6  and  C_7 
REMARK    5  A    between atoms: C_7  and  C_8 
REMARK       I    between atoms: C_8  and  N_9 
REMARK    6  A    between atoms: N_9  and  C_10 
REMARK    7  A    between atoms: C_17  and  C_18 
REMARK       I    between atoms: C_18  and  N_19 
ROOT
HETATM    1  C   UNL     1      25.021  44.511  51.599  1.00  0.00     0.246 C 
HETATM    2  N   UNL     1      25.680  43.528  52.287  1.00  0.00    -0.325 N 
HETATM    3  O   UNL     1      23.803  44.371  51.446  1.00  0.00    -0.271 OA
HETATM    4  H   UNL     1      25.107  42.696  52.383  1.00  0.00     0.169 HD
ENDROOT
BRANCH   2   5
HETATM    5  C   UNL     1      26.939  43.501  52.905  1.00  0.00     0.035 A 
HETATM    6  C   UNL     1      27.312  44.390  53.920  1.00  0.00     0.046 A 
HETATM    7  C   UNL     1      28.583  44.262  54.521  1.00  0.00     0.030 A 
HETATM    8  C   UNL     1      29.431  43.249  54.091  1.00  0.00     0.063 A 
HETATM    9  C   UNL     1      29.299  44.929  55.558  1.00  0.00     0.156 A 
HETATM   10  N   UNL     1      30.567  43.387  54.840  1.00  0.00    -0.277 N 
HETATM   11  C   UNL     1      29.080  42.331  53.100  1.00  0.00     0.034 A 
HETATM   12  H   UNL     1      31.407  42.821  54.791  1.00  0.00     0.189 HD
HETATM   13  N   UNL     1      30.520  44.381  55.742  1.00  0.00    -0.168 NA
HETATM   14  C   UNL     1      27.806  42.467  52.532  1.00  0.00     0.032 A 
BRANCH   9  15
HETATM   15  C   UNL     1      28.832  46.061  56.371  1.00  0.00     0.270 C 
HETATM   16  N   UNL     1      29.260  46.031  57.670  1.00  0.00    -0.365 N 
HETATM   17  H   UNL     1      29.842  45.259  57.972  1.00  0.00     0.159 HD
HETATM   18  H   UNL     1      28.979  46.758  58.308  1.00  0.00     0.159 HD
HETATM   19  O   UNL     1      28.116  46.964  55.952  1.00  0.00    -0.266 OA
ENDBRANCH   9  15
ENDBRANCH   2   5
BRANCH   1  20
HETATM   20  C   UNL     1      25.796  45.657  50.932  1.00  0.00     0.278 C 
BRANCH  20  21
HETATM   21  O   UNL     1      24.975  46.765  50.564  1.00  0.00    -0.342 OA
BRANCH  21  22
HETATM   22  C   UNL     1      25.554  47.806  49.887  1.00  0.00     0.076 A 
HETATM   23  C   UNL     1      24.681  48.673  49.187  1.00  0.00    -0.021 A 
HETATM   24  C   UNL     1      25.253  49.715  48.437  1.00  0.00     0.010 A 
HETATM   25  C   UNL     1      26.637  49.889  48.375  1.00  0.00     0.001 A 
HETATM   26  C   UNL     1      27.479  49.021  49.057  1.00  0.00     0.003 A 
HETATM   27  C   UNL     1      26.941  47.977  49.806  1.00  0.00     0.037 A 
BRANCH  23  28
HETATM   28  C   UNL     1      23.165  48.472  49.273  1.00  0.00     0.017 C 
HETATM   29  C   UNL     1      22.443  49.816  49.445  1.00  0.00     0.015 C 
BRANCH  28  30
HETATM   30  C   UNL     1      22.516  47.615  48.156  1.00  0.00     0.004 C 
HETATM   31  C   UNL     1      22.259  46.149  48.492  1.00  0.00     0.006 C 
ENDBRANCH  28  30
ENDBRANCH  23  28
ENDBRANCH  21  22
ENDBRANCH  20  21
ENDBRANCH   1  20
TORSDOF 7
ENDMDL
MODEL 4
REMARK VINA RESULT:      -8.0      2.529      4.203
REMARK  7 active torsions:
REMARK  status: ('A' for Active; 'I' for Inactive)
REMARK    1  A    between atoms: C_2  and  C_3 
REMARK    2  A    between atoms: C_3  and  C_4 
REMARK    3  A    between atoms: C_5  and  O_6 
REMARK    4  A    between atoms: O_6  and  C_7 
REMARK    5  A    between atoms: C_7  and  C_8 
REMARK       I    between atoms: C_8  and  N_9 
REMARK    6  A    between atoms: N_9  and  C_10 
REMARK    7  A    between atoms: C_17  and  C_18 
REMARK       I    between atoms: C_18  and  N_19 
ROOT
HETATM    1  C   UNL     1      25.070  45.202  52.536  1.00  0.00     0.246 C 
HETATM    2  N   UNL     1      24.552  45.810  51.425  1.00  0.00    -0.325 N 
HETATM    3  O   UNL     1      24.511  44.172  52.928  1.00  0.00    -0.271 OA
HETATM    4  H   UNL     1      23.629  45.451  51.204  1.00  0.00     0.169 HD
ENDROOT
BRANCH   2   5
HETATM    5  C   UNL     1      25.084  46.763  50.545  1.00  0.00     0.035 A 
HETATM    6  C   UNL     1      24.305  47.745  49.919  1.00  0.00     0.046 A 
HETATM    7  C   UNL     1      24.930  48.695  49.083  1.00  0.00     0.030 A 
HETATM    8  C   UNL     1      26.307  48.636  48.909  1.00  0.00     0.063 A 
HETATM    9  C   UNL     1      24.507  49.820  48.315  1.00  0.00     0.156 A 
HETATM   10  N   UNL     1      26.607  49.662  48.056  1.00  0.00    -0.277 N 
HETATM   11  C   UNL     1      27.114  47.688  49.539  1.00  0.00     0.034 A 
HETATM   12  H   UNL     1      27.521  49.917  47.699  1.00  0.00     0.189 HD
HETATM   13  N   UNL     1      25.550  50.404  47.685  1.00  0.00    -0.168 NA
HETATM   14  C   UNL     1      26.474  46.766  50.377  1.00  0.00     0.032 A 
BRANCH   9  15
HETATM   15  C   UNL     1      23.139  50.341  48.184  1.00  0.00     0.270 C 
HETATM   16  N   UNL     1      22.251  49.454  47.640  1.00  0.00    -0.365 N 
HETATM   17  H   UNL     1      22.585  48.536  47.371  1.00  0.00     0.159 HD
HETATM   18  H   UNL     1      21.292  49.727  47.497  1.00  0.00     0.159 HD
HETATM   19  O   UNL     1      22.795  51.470  48.518  1.00  0.00    -0.266 OA
ENDBRANCH   9  15
ENDBRANCH   2   5
BRANCH   1  20
HETATM   20  C   UNL     1      26.206  45.861  53.334  1.00  0.00     0.278 C 
BRANCH  20  21
HETATM   21  O   UNL     1      26.487  45.211  54.573  1.00  0.00    -0.342 OA
BRANCH  21  22
HETATM   22  C   UNL     1      27.791  45.132  54.984  1.00  0.00     0.076 A 
HETATM   23  C   UNL     1      28.553  44.051  54.479  1.00  0.00    -0.021 A 
HETATM   24  C   UNL     1      29.877  43.914  54.930  1.00  0.00     0.010 A 
HETATM   25  C   UNL     1      30.426  44.808  55.852  1.00  0.00     0.001 A 
HETATM   26  C   UNL     1      29.660  45.855  56.347  1.00  0.00     0.003 A 
HETATM   27  C   UNL     1      28.343  46.013  55.921  1.00  0.00     0.037 A 
BRANCH  23  28
HETATM   28  C   UNL     1      27.938  43.085  53.462  1.00  0.00     0.017 C 
HETATM   29  C   UNL     1      28.365  43.449  52.033  1.00  0.00     0.015 C 
BRANCH  28  30
HETATM   30  C   UNL     1      28.123  41.572  53.746  1.00  0.00     0.004 C 
HETATM   31  C   UNL     1      28.854  40.769  52.674  1.00  0.00     0.006 C 
ENDBRANCH  28  30
ENDBRANCH  23  28
ENDBRANCH  21  22
ENDBRANCH  20  21
ENDBRANCH   1  20
TORSDOF 7
ENDMDL
MODEL 5
REMARK VINA RESULT:      -7.9     11.800     13.946
REMARK  7 active torsions:
REMARK  status: ('A' for Active; 'I' for Inactive)
REMARK    1  A    between atoms: C_2  and  C_3 
REMARK    2  A    between atoms: C_3  and  C_4 
REMARK    3  A    between atoms: C_5  and  O_6 
REMARK    4  A    between atoms: O_6  and  C_7 
REMARK    5  A    between atoms: C_7  and  C_8 
REMARK       I    between atoms: C_8  and  N_9 
REMARK    6  A    between atoms: N_9  and  C_10 
REMARK    7  A    between atoms: C_17  and  C_18 
REMARK       I    between atoms: C_18  and  N_19 
ROOT
HETATM    1  C   UNL     1      30.935  47.682  39.939  1.00  0.00     0.246 C 
HETATM    2  N   UNL     1      31.743  47.731  41.043  1.00  0.00    -0.325 N 
HETATM    3  O   UNL     1      30.274  46.653  39.769  1.00  0.00    -0.271 OA
HETATM    4  H   UNL     1      31.860  46.812  41.455  1.00  0.00     0.169 HD
ENDROOT
BRANCH   2   5
HETATM    5  C   UNL     1      32.361  48.802  41.704  1.00  0.00     0.035 A 
HETATM    6  C   UNL     1      33.624  49.292  41.352  1.00  0.00     0.046 A 
HETATM    7  C   UNL     1      34.153  50.404  42.041  1.00  0.00     0.030 A 
HETATM    8  C   UNL     1      33.400  50.990  43.051  1.00  0.00     0.063 A 
HETATM    9  C   UNL     1      35.346  51.183  41.969  1.00  0.00     0.156 A 
HETATM   10  N   UNL     1      34.168  52.017  43.525  1.00  0.00    -0.277 N 
HETATM   11  C   UNL     1      32.127  50.543  43.409  1.00  0.00     0.034 A 
HETATM   12  H   UNL     1      33.939  52.660  44.274  1.00  0.00     0.189 HD
HETATM   13  N   UNL     1      35.343  52.171  42.891  1.00  0.00    -0.168 NA
HETATM   14  C   UNL     1      31.616  49.449  42.698  1.00  0.00     0.032 A 
BRANCH   9  15
HETATM   15  C   UNL     1      36.468  51.002  41.037  1.00  0.00     0.270 C 
HETATM   16  N   UNL     1      37.621  50.564  41.628  1.00  0.00    -0.365 N 
HETATM   17  H   UNL     1      37.624  50.404  42.629  1.00  0.00     0.159 HD
HETATM   18  H   UNL     1      38.449  50.426  41.072  1.00  0.00     0.159 HD
HETATM   19  O   UNL     1      36.408  51.224  39.833  1.00  0.00    -0.266 OA
ENDBRANCH   9  15
ENDBRANCH   2   5
BRANCH   1  20
HETATM   20  C   UNL     1      30.968  48.806  38.892  1.00  0.00     0.278 C 
BRANCH  20  21
HETATM   21  O   UNL     1      29.976  49.811  39.100  1.00  0.00    -0.342 OA
BRANCH  21  22
HETATM   22  C   UNL     1      30.339  50.957  39.758  1.00  0.00     0.076 A 
HETATM   23  C   UNL     1      29.382  51.515  40.639  1.00  0.00    -0.021 A 
HETATM   24  C   UNL     1      29.708  52.722  41.283  1.00  0.00     0.010 A 
HETATM   25  C   UNL     1      30.932  53.357  41.058  1.00  0.00     0.001 A 
HETATM   26  C   UNL     1      31.854  52.801  40.181  1.00  0.00     0.003 A 
HETATM   27  C   UNL     1      31.556  51.608  39.525  1.00  0.00     0.037 A 
BRANCH  23  28
HETATM   28  C   UNL     1      28.048  50.802  40.880  1.00  0.00     0.017 C 
HETATM   29  C   UNL     1      27.223  50.735  39.588  1.00  0.00     0.015 C 
BRANCH  28  30
HETATM   30  C   UNL     1      28.119  49.423  41.585  1.00  0.00     0.004 C 
HETATM   31  C   UNL     1      27.344  48.286  40.924  1.00  0.00     0.006 C 
ENDBRANCH  28  30
ENDBRANCH  23  28
ENDBRANCH  21  22
ENDBRANCH  20  21
ENDBRANCH   1  20
TORSDOF 7
ENDMDL
MODEL 6
REMARK VINA RESULT:      -7.7     11.848     13.835
REMARK  7 active torsions:
REMARK  status: ('A' for Active; 'I' for Inactive)
REMARK    1  A    between atoms: C_2  and  C_3 
REMARK    2  A    between atoms: C_3  and  C_4 
REMARK    3  A    between atoms: C_5  and  O_6 
REMARK    4  A    between atoms: O_6  and  C_7 
REMARK    5  A    between atoms: C_7  and  C_8 
REMARK       I    between atoms: C_8  and  N_9 
REMARK    6  A    between atoms: N_9  and  C_10 
REMARK    7  A    between atoms: C_17  and  C_18 
REMARK       I    between atoms: C_18  and  N_19 
ROOT
HETATM    1  C   UNL     1      30.806  53.244  40.391  1.00  0.00     0.246 C 
HETATM    2  N   UNL     1      29.573  52.881  40.859  1.00  0.00    -0.325 N 
HETATM    3  O   UNL     1      31.263  54.323  40.783  1.00  0.00    -0.271 OA
HETATM    4  H   UNL     1      29.097  53.664  41.294  1.00  0.00     0.169 HD
ENDROOT
BRANCH   2   5
HETATM    5  C   UNL     1      28.909  51.646  40.888  1.00  0.00     0.035 A 
HETATM    6  C   UNL     1      28.002  51.242  39.900  1.00  0.00     0.046 A 
HETATM    7  C   UNL     1      27.413  49.962  39.982  1.00  0.00     0.030 A 
HETATM    8  C   UNL     1      27.754  49.131  41.042  1.00  0.00     0.063 A 
HETATM    9  C   UNL     1      26.497  49.202  39.196  1.00  0.00     0.156 A 
HETATM   10  N   UNL     1      27.028  47.988  40.853  1.00  0.00    -0.277 N 
HETATM   11  C   UNL     1      28.673  49.493  42.027  1.00  0.00     0.034 A 
HETATM   12  H   UNL     1      27.019  47.162  41.441  1.00  0.00     0.189 HD
HETATM   13  N   UNL     1      26.267  47.989  39.746  1.00  0.00    -0.168 NA
HETATM   14  C   UNL     1      29.258  50.761  41.915  1.00  0.00     0.032 A 
BRANCH   9  15
HETATM   15  C   UNL     1      25.856  49.612  37.938  1.00  0.00     0.270 C 
HETATM   16  N   UNL     1      24.753  50.403  38.104  1.00  0.00    -0.365 N 
HETATM   17  H   UNL     1      24.462  50.640  39.045  1.00  0.00     0.159 HD
HETATM   18  H   UNL     1      24.237  50.721  37.299  1.00  0.00     0.159 HD
HETATM   19  O   UNL     1      26.248  49.282  36.824  1.00  0.00    -0.266 OA
ENDBRANCH   9  15
ENDBRANCH   2   5
BRANCH   1  20
HETATM   20  C   UNL     1      31.516  52.408  39.315  1.00  0.00     0.278 C 
BRANCH  20  21
HETATM   21  O   UNL     1      32.422  51.442  39.847  1.00  0.00    -0.342 OA
BRANCH  21  22
HETATM   22  C   UNL     1      32.006  50.140  39.939  1.00  0.00     0.076 A 
HETATM   23  C   UNL     1      32.489  49.393  41.039  1.00  0.00    -0.021 A 
HETATM   24  C   UNL     1      32.123  48.038  41.125  1.00  0.00     0.010 A 
HETATM   25  C   UNL     1      31.314  47.443  40.155  1.00  0.00     0.001 A 
HETATM   26  C   UNL     1      30.858  48.188  39.075  1.00  0.00     0.003 A 
HETATM   27  C   UNL     1      31.209  49.532  38.962  1.00  0.00     0.037 A 
BRANCH  23  28
HETATM   28  C   UNL     1      33.369  50.064  42.098  1.00  0.00     0.017 C 
HETATM   29  C   UNL     1      34.830  50.135  41.631  1.00  0.00     0.015 C 
BRANCH  28  30
HETATM   30  C   UNL     1      32.877  51.430  42.643  1.00  0.00     0.004 C 
HETATM   31  C   UNL     1      32.558  51.486  44.134  1.00  0.00     0.006 C 
ENDBRANCH  28  30
ENDBRANCH  23  28
ENDBRANCH  21  22
ENDBRANCH  20  21
ENDBRANCH   1  20
TORSDOF 7
ENDMDL
MODEL 7
REMARK VINA RESULT:      -7.6     11.684     13.841
REMARK  7 active torsions:
REMARK  status: ('A' for Active; 'I' for Inactive)
REMARK    1  A    between atoms: C_2  and  C_3 
REMARK    2  A    between atoms: C_3  and  C_4 
REMARK    3  A    between atoms: C_5  and  O_6 
REMARK    4  A    between atoms: O_6  and  C_7 
REMARK    5  A    between atoms: C_7  and  C_8 
REMARK       I    between atoms: C_8  and  N_9 
REMARK    6  A    between atoms: N_9  and  C_10 
REMARK    7  A    between atoms: C_17  and  C_18 
REMARK       I    between atoms: C_18  and  N_19 
ROOT
HETATM    1  C   UNL     1      26.373  49.378  39.542  1.00  0.00     0.246 C 
HETATM    2  N   UNL     1      26.901  50.630  39.378  1.00  0.00    -0.325 N 
HETATM    3  O   UNL     1      25.549  48.999  38.704  1.00  0.00    -0.271 OA
HETATM    4  H   UNL     1      26.367  51.171  38.706  1.00  0.00     0.169 HD
ENDROOT
BRANCH   2   5
HETATM    5  C   UNL     1      28.041  51.243  39.917  1.00  0.00     0.035 A 
HETATM    6  C   UNL     1      29.313  51.130  39.344  1.00  0.00     0.046 A 
HETATM    7  C   UNL     1      30.399  51.819  39.926  1.00  0.00     0.030 A 
HETATM    8  C   UNL     1      30.174  52.600  41.053  1.00  0.00     0.063 A 
HETATM    9  C   UNL     1      31.788  51.972  39.641  1.00  0.00     0.156 A 
HETATM   10  N   UNL     1      31.394  53.122  41.381  1.00  0.00    -0.277 N 
HETATM   11  C   UNL     1      28.914  52.755  41.633  1.00  0.00     0.034 A 
HETATM   12  H   UNL     1      31.612  53.736  42.158  1.00  0.00     0.189 HD
HETATM   13  N   UNL     1      32.390  52.775  40.547  1.00  0.00    -0.168 NA
HETATM   14  C   UNL     1      27.849  52.076  41.027  1.00  0.00     0.032 A 
BRANCH   9  15
HETATM   15  C   UNL     1      32.535  51.376  38.525  1.00  0.00     0.270 C 
HETATM   16  N   UNL     1      33.812  51.002  38.842  1.00  0.00    -0.365 N 
HETATM   17  H   UNL     1      34.144  51.160  39.786  1.00  0.00     0.159 HD
HETATM   18  H   UNL     1      34.407  50.598  38.136  1.00  0.00     0.159 HD
HETATM   19  O   UNL     1      32.083  51.221  37.395  1.00  0.00    -0.266 OA
ENDBRANCH   9  15
ENDBRANCH   2   5
BRANCH   1  20
HETATM   20  C   UNL     1      26.692  48.550  40.796  1.00  0.00     0.278 C 
BRANCH  20  21
HETATM   21  O   UNL     1      27.737  47.597  40.602  1.00  0.00    -0.342 OA
BRANCH  21  22
HETATM   22  C   UNL     1      29.015  47.957  40.941  1.00  0.00     0.076 A 
HETATM   23  C   UNL     1      30.052  47.484  40.101  1.00  0.00    -0.021 A 
HETATM   24  C   UNL     1      31.377  47.791  40.458  1.00  0.00     0.010 A 
HETATM   25  C   UNL     1      31.666  48.531  41.607  1.00  0.00     0.001 A 
HETATM   26  C   UNL     1      30.636  48.977  42.426  1.00  0.00     0.003 A 
HETATM   27  C   UNL     1      29.314  48.684  42.099  1.00  0.00     0.037 A 
BRANCH  23  28
HETATM   28  C   UNL     1      29.717  46.680  38.841  1.00  0.00     0.017 C 
HETATM   29  C   UNL     1      29.338  45.236  39.198  1.00  0.00     0.015 C 
BRANCH  28  30
HETATM   30  C   UNL     1      28.691  47.316  37.868  1.00  0.00     0.004 C 
HETATM   31  C   UNL     1      27.628  46.379  37.301  1.00  0.00     0.006 C 
ENDBRANCH  28  30
ENDBRANCH  23  28
ENDBRANCH  21  22
ENDBRANCH  20  21
ENDBRANCH   1  20
TORSDOF 7
ENDMDL
MODEL 8
REMARK VINA RESULT:      -7.5      5.432      9.246
REMARK  7 active torsions:
REMARK  status: ('A' for Active; 'I' for Inactive)
REMARK    1  A    between atoms: C_2  and  C_3 
REMARK    2  A    between atoms: C_3  and  C_4 
REMARK    3  A    between atoms: C_5  and  O_6 
REMARK    4  A    between atoms: O_6  and  C_7 
REMARK    5  A    between atoms: C_7  and  C_8 
REMARK       I    between atoms: C_8  and  N_9 
REMARK    6  A    between atoms: N_9  and  C_10 
REMARK    7  A    between atoms: C_17  and  C_18 
REMARK       I    between atoms: C_18  and  N_19 
ROOT
HETATM    1  C   UNL     1      23.734  49.577  48.427  1.00  0.00     0.246 C 
HETATM    2  N   UNL     1      24.765  48.734  48.743  1.00  0.00    -0.325 N 
HETATM    3  O   UNL     1      23.843  50.238  47.390  1.00  0.00    -0.271 OA
HETATM    4  H   UNL     1      25.591  48.938  48.190  1.00  0.00     0.169 HD
ENDROOT
BRANCH   2   5
HETATM    5  C   UNL     1      24.849  47.645  49.622  1.00  0.00     0.035 A 
HETATM    6  C   UNL     1      24.082  46.483  49.476  1.00  0.00     0.046 A 
HETATM    7  C   UNL     1      24.264  45.414  50.380  1.00  0.00     0.030 A 
HETATM    8  C   UNL     1      25.208  45.542  51.392  1.00  0.00     0.063 A 
HETATM    9  C   UNL     1      23.715  44.109  50.548  1.00  0.00     0.156 A 
HETATM   10  N   UNL     1      25.145  44.371  52.094  1.00  0.00    -0.277 N 
HETATM   11  C   UNL     1      26.006  46.676  51.549  1.00  0.00     0.034 A 
HETATM   12  H   UNL     1      25.690  44.114  52.910  1.00  0.00     0.189 HD
HETATM   13  N   UNL     1      24.265  43.478  51.610  1.00  0.00    -0.168 NA
HETATM   14  C   UNL     1      25.820  47.715  50.628  1.00  0.00     0.032 A 
BRANCH   9  15
HETATM   15  C   UNL     1      22.693  43.461  49.714  1.00  0.00     0.270 C 
HETATM   16  N   UNL     1      23.047  42.222  49.257  1.00  0.00    -0.365 N 
HETATM   17  H   UNL     1      23.955  41.851  49.511  1.00  0.00     0.159 HD
HETATM   18  H   UNL     1      22.416  41.706  48.664  1.00  0.00     0.159 HD
HETATM   19  O   UNL     1      21.613  43.967  49.428  1.00  0.00    -0.266 OA
ENDBRANCH   9  15
ENDBRANCH   2   5
BRANCH   1  20
HETATM   20  C   UNL     1      22.565  49.786  49.403  1.00  0.00     0.278 C 
BRANCH  20  21
HETATM   21  O   UNL     1      21.295  49.425  48.861  1.00  0.00    -0.342 OA
BRANCH  21  22
HETATM   22  C   UNL     1      20.278  50.340  48.923  1.00  0.00     0.076 A 
HETATM   23  C   UNL     1      19.053  49.892  49.474  1.00  0.00    -0.021 A 
HETATM   24  C   UNL     1      17.975  50.795  49.496  1.00  0.00     0.010 A 
HETATM   25  C   UNL     1      18.102  52.089  48.988  1.00  0.00     0.001 A 
HETATM   26  C   UNL     1      19.308  52.508  48.441  1.00  0.00     0.003 A 
HETATM   27  C   UNL     1      20.392  51.633  48.401  1.00  0.00     0.037 A 
BRANCH  23  28
HETATM   28  C   UNL     1      18.934  48.472  50.033  1.00  0.00     0.017 C 
HETATM   29  C   UNL     1      18.526  48.499  51.513  1.00  0.00     0.015 C 
BRANCH  28  30
HETATM   30  C   UNL     1      18.065  47.478  49.220  1.00  0.00     0.004 C 
HETATM   31  C   UNL     1      18.814  46.547  48.271  1.00  0.00     0.006 C 
ENDBRANCH  28  30
ENDBRANCH  23  28
ENDBRANCH  21  22
ENDBRANCH  20  21
ENDBRANCH   1  20
TORSDOF 7
ENDMDL
MODEL 9
REMARK VINA RESULT:      -7.5      3.011      5.790
REMARK  7 active torsions:
REMARK  status: ('A' for Active; 'I' for Inactive)
REMARK    1  A    between atoms: C_2  and  C_3 
REMARK    2  A    between atoms: C_3  and  C_4 
REMARK    3  A    between atoms: C_5  and  O_6 
REMARK    4  A    between atoms: O_6  and  C_7 
REMARK    5  A    between atoms: C_7  and  C_8 
REMARK       I    between atoms: C_8  and  N_9 
REMARK    6  A    between atoms: N_9  and  C_10 
REMARK    7  A    between atoms: C_17  and  C_18 
REMARK       I    between atoms: C_18  and  N_19 
ROOT
HETATM    1  C   UNL     1      25.464  42.948  51.003  1.00  0.00     0.246 C 
HETATM    2  N   UNL     1      25.087  41.805  50.350  1.00  0.00    -0.325 N 
HETATM    3  O   UNL     1      24.696  43.383  51.867  1.00  0.00    -0.271 OA
HETATM    4  H   UNL     1      24.107  41.595  50.510  1.00  0.00     0.169 HD
ENDROOT
BRANCH   2   5
HETATM    5  C   UNL     1      25.811  40.886  49.577  1.00  0.00     0.035 A 
HETATM    6  C   UNL     1      26.925  40.191  50.061  1.00  0.00     0.046 A 
HETATM    7  C   UNL     1      27.568  39.248  49.230  1.00  0.00     0.030 A 
HETATM    8  C   UNL     1      27.071  39.028  47.951  1.00  0.00     0.063 A 
HETATM    9  C   UNL     1      28.674  38.356  49.356  1.00  0.00     0.156 A 
HETATM   10  N   UNL     1      27.895  38.086  47.400  1.00  0.00    -0.277 N 
HETATM   11  C   UNL     1      25.947  39.685  47.449  1.00  0.00     0.034 A 
HETATM   12  H   UNL     1      27.837  37.689  46.470  1.00  0.00     0.189 HD
HETATM   13  N   UNL     1      28.866  37.648  48.220  1.00  0.00    -0.168 NA
HETATM   14  C   UNL     1      25.316  40.603  48.298  1.00  0.00     0.032 A 
BRANCH   9  15
HETATM   15  C   UNL     1      29.532  38.167  50.534  1.00  0.00     0.270 C 
HETATM   16  N   UNL     1      29.460  39.182  51.447  1.00  0.00    -0.365 N 
HETATM   17  H   UNL     1      28.848  39.967  51.255  1.00  0.00     0.159 HD
HETATM   18  H   UNL     1      30.024  39.149  52.281  1.00  0.00     0.159 HD
HETATM   19  O   UNL     1      30.264  37.198  50.707  1.00  0.00    -0.266 OA
ENDBRANCH   9  15
ENDBRANCH   2   5
BRANCH   1  20
HETATM   20  C   UNL     1      26.719  43.721  50.570  1.00  0.00     0.278 C 
BRANCH  20  21
HETATM   21  O   UNL     1      27.247  44.570  51.588  1.00  0.00    -0.342 OA
BRANCH  21  22
HETATM   22  C   UNL     1      28.107  44.028  52.506  1.00  0.00     0.076 A 
HETATM   23  C   UNL     1      28.142  44.638  53.783  1.00  0.00    -0.021 A 
HETATM   24  C   UNL     1      29.057  44.136  54.725  1.00  0.00     0.010 A 
HETATM   25  C   UNL     1      29.910  43.076  54.414  1.00  0.00     0.001 A 
HETATM   26  C   UNL     1      29.871  42.497  53.152  1.00  0.00     0.003 A 
HETATM   27  C   UNL     1      28.977  42.976  52.197  1.00  0.00     0.037 A 
BRANCH  23  28
HETATM   28  C   UNL     1      27.193  45.795  54.110  1.00  0.00     0.017 C 
HETATM   29  C   UNL     1      25.816  45.270  54.538  1.00  0.00     0.015 C 
BRANCH  28  30
HETATM   30  C   UNL     1      27.726  46.870  55.092  1.00  0.00     0.004 C 
HETATM   31  C   UNL     1      26.851  48.106  55.280  1.00  0.00     0.006 C 
ENDBRANCH  28  30
ENDBRANCH  23  28
ENDBRANCH  21  22
ENDBRANCH  20  21
ENDBRANCH   1  20
TORSDOF 7
ENDMDL
MODEL 10
REMARK VINA RESULT:      -7.4      2.407      4.143
REMARK  7 active torsions:
REMARK  status: ('A' for Active; 'I' for Inactive)
REMARK    1  A    between atoms: C_2  and  C_3 
REMARK    2  A    between atoms: C_3  and  C_4 
REMARK    3  A    between atoms: C_5  and  O_6 
REMARK    4  A    between atoms: O_6  and  C_7 
REMARK    5  A    between atoms: C_7  and  C_8 
REMARK       I    between atoms: C_8  and  N_9 
REMARK    6  A    between atoms: N_9  and  C_10 
REMARK    7  A    between atoms: C_17  and  C_18 
REMARK       I    between atoms: C_18  and  N_19 
ROOT
HETATM    1  C   UNL     1      24.967  44.350  51.493  1.00  0.00     0.246 C 
HETATM    2  N   UNL     1      24.461  45.544  51.054  1.00  0.00    -0.325 N 
HETATM    3  O   UNL     1      24.155  43.496  51.863  1.00  0.00    -0.271 OA
HETATM    4  H   UNL     1      23.484  45.647  51.309  1.00  0.00     0.169 HD
ENDROOT
BRANCH   2   5
HETATM    5  C   UNL     1      25.026  46.578  50.294  1.00  0.00     0.035 A 
HETATM    6  C   UNL     1      24.261  47.555  49.643  1.00  0.00     0.046 A 
HETATM    7  C   UNL     1      24.914  48.588  48.937  1.00  0.00     0.030 A 
HETATM    8  C   UNL     1      26.303  48.614  48.912  1.00  0.00     0.063 A 
HETATM    9  C   UNL     1      24.509  49.735  48.192  1.00  0.00     0.156 A 
HETATM   10  N   UNL     1      26.631  49.705  48.157  1.00  0.00    -0.277 N 
HETATM   11  C   UNL     1      27.093  47.671  49.572  1.00  0.00     0.034 A 
HETATM   12  H   UNL     1      27.561  50.030  47.919  1.00  0.00     0.189 HD
HETATM   13  N   UNL     1      25.577  50.413  47.715  1.00  0.00    -0.168 NA
HETATM   14  C   UNL     1      26.423  46.665  50.280  1.00  0.00     0.032 A 
BRANCH   9  15
HETATM   15  C   UNL     1      23.134  50.190  47.942  1.00  0.00     0.270 C 
HETATM   16  N   UNL     1      22.842  51.412  48.483  1.00  0.00    -0.365 N 
HETATM   17  H   UNL     1      23.563  51.898  49.003  1.00  0.00     0.159 HD
HETATM   18  H   UNL     1      21.918  51.800  48.377  1.00  0.00     0.159 HD
HETATM   19  O   UNL     1      22.298  49.550  47.313  1.00  0.00    -0.266 OA
ENDBRANCH   9  15
ENDBRANCH   2   5
BRANCH   1  20
HETATM   20  C   UNL     1      26.482  44.150  51.647  1.00  0.00     0.278 C 
BRANCH  20  21
HETATM   21  O   UNL     1      26.898  43.951  52.998  1.00  0.00    -0.342 OA
BRANCH  21  22
HETATM   22  C   UNL     1      27.298  45.043  53.723  1.00  0.00     0.076 A 
HETATM   23  C   UNL     1      28.527  44.931  54.415  1.00  0.00    -0.021 A 
HETATM   24  C   UNL     1      28.932  46.016  55.213  1.00  0.00     0.010 A 
HETATM   25  C   UNL     1      28.147  47.166  55.326  1.00  0.00     0.001 A 
HETATM   26  C   UNL     1      26.938  47.254  54.649  1.00  0.00     0.003 A 
HETATM   27  C   UNL     1      26.509  46.192  53.855  1.00  0.00     0.037 A 
BRANCH  23  28
HETATM   28  C   UNL     1      29.379  43.666  54.273  1.00  0.00     0.017 C 
HETATM   29  C   UNL     1      29.576  43.302  52.795  1.00  0.00     0.015 C 
BRANCH  28  30
HETATM   30  C   UNL     1      30.720  43.644  55.051  1.00  0.00     0.004 C 
HETATM   31  C   UNL     1      30.690  42.990  56.429  1.00  0.00     0.006 C 
ENDBRANCH  28  30
ENDBRANCH  23  28
ENDBRANCH  21  22
ENDBRANCH  20  21
ENDBRANCH   1  20
TORSDOF 7
ENDMDL
