MODEL 1
REMARK VINA RESULT:      -7.4      0.000      0.000
REMARK  1 active torsions:
REMARK  status: ('A' for Active; 'I' for Inactive)
REMARK    1  A    between atoms: C_8  and  C_9 
ROOT
HETATM    1  C   UNL     1      30.606  47.084  39.552  1.00  0.00     0.073 C 
HETATM    2  C   UNL     1      29.625  47.867  40.346  1.00  0.00     0.062 C 
HETATM    3  N   UNL     1      28.736  47.225  41.113  1.00  0.00    -0.178 NA
HETATM    4  N   UNL     1      28.047  48.209  41.701  1.00  0.00    -0.262 N 
HETATM    5  H   UNL     1      27.308  47.954  42.348  1.00  0.00     0.191 HD
HETATM    6  C   UNL     1      28.370  49.452  41.235  1.00  0.00     0.134 C 
HETATM    7  C   UNL     1      29.486  49.290  40.439  1.00  0.00     0.032 C 
HETATM    8  C   UNL     1      30.410  50.313  39.869  1.00  0.00     0.119 C 
HETATM    9  S   UNL     1      29.724  51.750  39.006  1.00  0.00    -0.141 SA
HETATM   10  C   UNL     1      27.948  51.724  39.381  1.00  0.00     0.136 C 
HETATM   11  C   UNL     1      27.158  50.726  38.539  1.00  0.00     0.031 C 
HETATM   12  C   UNL     1      27.597  51.718  40.868  1.00  0.00     0.236 C 
HETATM   13  O   UNL     1      27.145  52.727  41.420  1.00  0.00    -0.272 OA
HETATM   14  N   UNL     1      27.663  50.566  41.601  1.00  0.00    -0.311 N 
HETATM   15  H   UNL     1      27.152  50.588  42.476  1.00  0.00     0.170 HD
ENDROOT
BRANCH   8  16
HETATM   16  C   UNL     1      31.356  50.688  41.013  1.00  0.00    -0.040 A 
HETATM   17  C   UNL     1      31.011  51.741  41.882  1.00  0.00     0.010 A 
HETATM   18  C   UNL     1      31.865  52.138  42.916  1.00  0.00     0.024 A 
HETATM   19  C   UNL     1      33.077  51.480  43.105  1.00  0.00     0.034 A 
HETATM   20 CL   UNL     1      34.129  51.969  44.373  1.00  0.00    -0.084 Cl
HETATM   21  C   UNL     1      33.439  50.429  42.269  1.00  0.00     0.024 A 
HETATM   22  C   UNL     1      32.588  50.039  41.231  1.00  0.00     0.010 A 
ENDBRANCH   8  16
TORSDOF 1
ENDMDL
MODEL 2
REMARK VINA RESULT:      -7.2      3.638      5.099
REMARK  1 active torsions:
REMARK  status: ('A' for Active; 'I' for Inactive)
REMARK    1  A    between atoms: C_8  and  C_9 
ROOT
HETATM    1  C   UNL     1      31.685  49.379  42.917  1.00  0.00     0.073 C 
HETATM    2  C   UNL     1      31.534  49.796  41.499  1.00  0.00     0.062 C 
HETATM    3  N   UNL     1      32.536  49.579  40.639  1.00  0.00    -0.178 NA
HETATM    4  N   UNL     1      32.063  50.034  39.473  1.00  0.00    -0.262 N 
HETATM    5  H   UNL     1      32.660  49.963  38.656  1.00  0.00     0.191 HD
HETATM    6  C   UNL     1      30.853  50.658  39.584  1.00  0.00     0.134 C 
HETATM    7  C   UNL     1      30.407  50.416  40.867  1.00  0.00     0.032 C 
HETATM    8  C   UNL     1      29.062  50.640  41.471  1.00  0.00     0.119 C 
HETATM    9  S   UNL     1      28.239  52.238  41.243  1.00  0.00    -0.141 SA
HETATM   10  C   UNL     1      29.208  53.091  39.967  1.00  0.00     0.136 C 
HETATM   11  C   UNL     1      30.493  53.724  40.493  1.00  0.00     0.031 C 
HETATM   12  C   UNL     1      29.367  52.329  38.652  1.00  0.00     0.236 C 
HETATM   13  O   UNL     1      28.747  52.669  37.640  1.00  0.00    -0.272 OA
HETATM   14  N   UNL     1      30.286  51.324  38.530  1.00  0.00    -0.311 N 
HETATM   15  H   UNL     1      30.521  51.076  37.577  1.00  0.00     0.170 HD
ENDROOT
BRANCH   8  16
HETATM   16  C   UNL     1      28.211  49.451  41.017  1.00  0.00    -0.040 A 
HETATM   17  C   UNL     1      27.154  49.659  40.110  1.00  0.00     0.010 A 
HETATM   18  C   UNL     1      26.331  48.605  39.701  1.00  0.00     0.024 A 
HETATM   19  C   UNL     1      26.557  47.321  40.186  1.00  0.00     0.034 A 
HETATM   20 CL   UNL     1      25.543  46.025  39.686  1.00  0.00    -0.084 Cl
HETATM   21  C   UNL     1      27.600  47.083  41.074  1.00  0.00     0.024 A 
HETATM   22  C   UNL     1      28.417  48.139  41.488  1.00  0.00     0.010 A 
ENDBRANCH   8  16
TORSDOF 1
ENDMDL
MODEL 3
REMARK VINA RESULT:      -7.2      3.604      4.762
REMARK  1 active torsions:
REMARK  status: ('A' for Active; 'I' for Inactive)
REMARK    1  A    between atoms: C_8  and  C_9 
ROOT
HETATM    1  C   UNL     1      29.598  52.992  39.846  1.00  0.00     0.073 C 
HETATM    2  C   UNL     1      30.091  51.622  39.548  1.00  0.00     0.062 C 
HETATM    3  N   UNL     1      29.579  50.951  38.510  1.00  0.00    -0.178 NA
HETATM    4  N   UNL     1      30.254  49.795  38.510  1.00  0.00    -0.262 N 
HETATM    5  H   UNL     1      30.036  49.116  37.789  1.00  0.00     0.191 HD
HETATM    6  C   UNL     1      31.079  49.648  39.589  1.00  0.00     0.134 C 
HETATM    7  C   UNL     1      31.102  50.871  40.229  1.00  0.00     0.032 C 
HETATM    8  C   UNL     1      32.003  51.368  41.309  1.00  0.00     0.119 C 
HETATM    9  S   UNL     1      32.291  50.340  42.772  1.00  0.00    -0.141 SA
HETATM   10  C   UNL     1      31.608  48.712  42.349  1.00  0.00     0.136 C 
HETATM   11  C   UNL     1      30.089  48.632  42.477  1.00  0.00     0.031 C 
HETATM   12  C   UNL     1      32.172  48.081  41.077  1.00  0.00     0.236 C 
HETATM   13  O   UNL     1      32.960  47.132  41.133  1.00  0.00    -0.272 OA
HETATM   14  N   UNL     1      31.730  48.471  39.843  1.00  0.00    -0.311 N 
HETATM   15  H   UNL     1      31.935  47.822  39.093  1.00  0.00     0.170 HD
ENDROOT
BRANCH   8  16
HETATM   16  C   UNL     1      33.294  51.785  40.599  1.00  0.00    -0.040 A 
HETATM   17  C   UNL     1      34.474  51.045  40.811  1.00  0.00     0.010 A 
HETATM   18  C   UNL     1      35.681  51.416  40.211  1.00  0.00     0.024 A 
HETATM   19  C   UNL     1      35.727  52.531  39.378  1.00  0.00     0.034 A 
HETATM   20 CL   UNL     1      37.212  52.991  38.642  1.00  0.00    -0.084 Cl
HETATM   21  C   UNL     1      34.576  53.275  39.142  1.00  0.00     0.024 A 
HETATM   22  C   UNL     1      33.371  52.906  39.749  1.00  0.00     0.010 A 
ENDBRANCH   8  16
TORSDOF 1
ENDMDL
MODEL 4
REMARK VINA RESULT:      -7.2      2.823      3.815
REMARK  1 active torsions:
REMARK  status: ('A' for Active; 'I' for Inactive)
REMARK    1  A    between atoms: C_8  and  C_9 
ROOT
HETATM    1  C   UNL     1      28.735  52.998  38.735  1.00  0.00     0.073 C 
HETATM    2  C   UNL     1      29.553  51.770  38.555  1.00  0.00     0.062 C 
HETATM    3  N   UNL     1      30.370  51.673  37.500  1.00  0.00    -0.178 NA
HETATM    4  N   UNL     1      30.965  50.486  37.662  1.00  0.00    -0.262 N 
HETATM    5  H   UNL     1      31.648  50.196  36.970  1.00  0.00     0.191 HD
HETATM    6  C   UNL     1      30.459  49.762  38.704  1.00  0.00     0.134 C 
HETATM    7  C   UNL     1      29.622  50.613  39.396  1.00  0.00     0.032 C 
HETATM    8  C   UNL     1      28.991  50.451  40.739  1.00  0.00     0.119 C 
HETATM    9  S   UNL     1      28.127  48.910  41.136  1.00  0.00    -0.141 SA
HETATM   10  C   UNL     1      28.577  47.759  39.807  1.00  0.00     0.136 C 
HETATM   11  C   UNL     1      27.791  47.974  38.517  1.00  0.00     0.031 C 
HETATM   12  C   UNL     1      30.077  47.548  39.608  1.00  0.00     0.236 C 
HETATM   13  O   UNL     1      30.626  46.499  39.962  1.00  0.00    -0.272 OA
HETATM   14  N   UNL     1      30.831  48.464  38.928  1.00  0.00    -0.311 N 
HETATM   15  H   UNL     1      31.726  48.120  38.601  1.00  0.00     0.170 HD
ENDROOT
BRANCH   8  16
HETATM   16  C   UNL     1      30.086  50.809  41.747  1.00  0.00    -0.040 A 
HETATM   17  C   UNL     1      30.289  52.158  42.101  1.00  0.00     0.010 A 
HETATM   18  C   UNL     1      31.303  52.529  42.989  1.00  0.00     0.024 A 
HETATM   19  C   UNL     1      32.127  51.556  43.547  1.00  0.00     0.034 A 
HETATM   20 CL   UNL     1      33.377  52.013  44.637  1.00  0.00    -0.084 Cl
HETATM   21  C   UNL     1      31.943  50.216  43.224  1.00  0.00     0.024 A 
HETATM   22  C   UNL     1      30.934  49.847  42.330  1.00  0.00     0.010 A 
ENDBRANCH   8  16
TORSDOF 1
ENDMDL
MODEL 5
REMARK VINA RESULT:      -6.8      3.675      5.826
REMARK  1 active torsions:
REMARK  status: ('A' for Active; 'I' for Inactive)
REMARK    1  A    between atoms: C_8  and  C_9 
ROOT
HETATM    1  C   UNL     1      28.773  53.086  37.954  1.00  0.00     0.073 C 
HETATM    2  C   UNL     1      29.077  52.622  39.332  1.00  0.00     0.062 C 
HETATM    3  N   UNL     1      29.068  53.502  40.339  1.00  0.00    -0.178 NA
HETATM    4  N   UNL     1      29.344  52.760  41.418  1.00  0.00    -0.262 N 
HETATM    5  H   UNL     1      29.381  53.224  42.319  1.00  0.00     0.191 HD
HETATM    6  C   UNL     1      29.662  51.465  41.120  1.00  0.00     0.134 C 
HETATM    7  C   UNL     1      29.378  51.295  39.780  1.00  0.00     0.032 C 
HETATM    8  C   UNL     1      29.300  50.044  38.971  1.00  0.00     0.119 C 
HETATM    9  S   UNL     1      30.641  48.831  39.074  1.00  0.00    -0.141 SA
HETATM   10  C   UNL     1      31.643  49.354  40.494  1.00  0.00     0.136 C 
HETATM   11  C   UNL     1      32.590  50.510  40.185  1.00  0.00     0.031 C 
HETATM   12  C   UNL     1      30.883  49.492  41.812  1.00  0.00     0.236 C 
HETATM   13  O   UNL     1      31.018  48.660  42.715  1.00  0.00    -0.272 OA
HETATM   14  N   UNL     1      30.124  50.598  42.073  1.00  0.00    -0.311 N 
HETATM   15  H   UNL     1      29.897  50.738  43.051  1.00  0.00     0.170 HD
ENDROOT
BRANCH   8  16
HETATM   16  C   UNL     1      27.921  49.451  39.275  1.00  0.00    -0.040 A 
HETATM   17  C   UNL     1      26.793  49.921  38.574  1.00  0.00     0.010 A 
HETATM   18  C   UNL     1      25.513  49.432  38.849  1.00  0.00     0.024 A 
HETATM   19  C   UNL     1      25.339  48.454  39.825  1.00  0.00     0.034 A 
HETATM   20 CL   UNL     1      23.764  47.855  40.166  1.00  0.00    -0.084 Cl
HETATM   21  C   UNL     1      26.435  47.963  40.525  1.00  0.00     0.024 A 
HETATM   22  C   UNL     1      27.714  48.459  40.254  1.00  0.00     0.010 A 
ENDBRANCH   8  16
TORSDOF 1
ENDMDL
MODEL 6
REMARK VINA RESULT:      -6.8     11.961     13.638
REMARK  1 active torsions:
REMARK  status: ('A' for Active; 'I' for Inactive)
REMARK    1  A    between atoms: C_8  and  C_9 
ROOT
HETATM    1  C   UNL     1      22.612  50.519  47.523  1.00  0.00     0.073 C 
HETATM    2  C   UNL     1      21.805  49.436  48.143  1.00  0.00     0.062 C 
HETATM    3  N   UNL     1      22.328  48.717  49.144  1.00  0.00    -0.178 NA
HETATM    4  N   UNL     1      21.346  47.874  49.481  1.00  0.00    -0.262 N 
HETATM    5  H   UNL     1      21.515  47.224  50.241  1.00  0.00     0.191 HD
HETATM    6  C   UNL     1      20.267  47.933  48.645  1.00  0.00     0.134 C 
HETATM    7  C   UNL     1      20.468  49.029  47.830  1.00  0.00     0.032 C 
HETATM    8  C   UNL     1      19.524  49.717  46.902  1.00  0.00     0.119 C 
HETATM    9  S   UNL     1      18.558  48.735  45.727  1.00  0.00    -0.141 SA
HETATM   10  C   UNL     1      18.774  47.012  46.258  1.00  0.00     0.136 C 
HETATM   11  C   UNL     1      20.101  46.398  45.822  1.00  0.00     0.031 C 
HETATM   12  C   UNL     1      18.389  46.725  47.708  1.00  0.00     0.236 C 
HETATM   13  O   UNL     1      17.354  46.109  47.982  1.00  0.00    -0.272 OA
HETATM   14  N   UNL     1      19.234  47.039  48.735  1.00  0.00    -0.311 N 
HETATM   15  H   UNL     1      19.035  46.568  49.610  1.00  0.00     0.170 HD
ENDROOT
BRANCH   8  16
HETATM   16  C   UNL     1      18.662  50.615  47.794  1.00  0.00    -0.040 A 
HETATM   17  C   UNL     1      17.316  50.272  48.030  1.00  0.00     0.010 A 
HETATM   18  C   UNL     1      16.486  51.086  48.808  1.00  0.00     0.024 A 
HETATM   19  C   UNL     1      16.992  52.255  49.371  1.00  0.00     0.034 A 
HETATM   20 CL   UNL     1      15.971  53.258  50.324  1.00  0.00    -0.084 Cl
HETATM   21  C   UNL     1      18.320  52.613  49.163  1.00  0.00     0.024 A 
HETATM   22  C   UNL     1      19.146  51.802  48.379  1.00  0.00     0.010 A 
ENDBRANCH   8  16
TORSDOF 1
ENDMDL
MODEL 7
REMARK VINA RESULT:      -6.8     13.010     14.950
REMARK  1 active torsions:
REMARK  status: ('A' for Active; 'I' for Inactive)
REMARK    1  A    between atoms: C_8  and  C_9 
ROOT
HETATM    1  C   UNL     1      18.781  51.516  49.936  1.00  0.00     0.073 C 
HETATM    2  C   UNL     1      18.848  50.043  50.121  1.00  0.00     0.062 C 
HETATM    3  N   UNL     1      18.716  49.528  51.349  1.00  0.00    -0.178 NA
HETATM    4  N   UNL     1      18.790  48.206  51.153  1.00  0.00    -0.262 N 
HETATM    5  H   UNL     1      18.704  47.599  51.961  1.00  0.00     0.191 HD
HETATM    6  C   UNL     1      19.101  47.864  49.867  1.00  0.00     0.134 C 
HETATM    7  C   UNL     1      19.024  49.027  49.127  1.00  0.00     0.032 C 
HETATM    8  C   UNL     1      19.024  49.220  47.648  1.00  0.00     0.119 C 
HETATM    9  S   UNL     1      20.284  48.395  46.643  1.00  0.00    -0.141 SA
HETATM   10  C   UNL     1      21.072  47.200  47.759  1.00  0.00     0.136 C 
HETATM   11  C   UNL     1      22.099  47.823  48.699  1.00  0.00     0.031 C 
HETATM   12  C   UNL     1      20.121  46.207  48.426  1.00  0.00     0.236 C 
HETATM   13  O   UNL     1      20.081  45.025  48.069  1.00  0.00    -0.272 OA
HETATM   14  N   UNL     1      19.374  46.571  49.511  1.00  0.00    -0.311 N 
HETATM   15  H   UNL     1      19.003  45.798  50.051  1.00  0.00     0.170 HD
ENDROOT
BRANCH   8  16
HETATM   16  C   UNL     1      17.593  48.912  47.199  1.00  0.00    -0.040 A 
HETATM   17  C   UNL     1      17.352  47.805  46.361  1.00  0.00     0.010 A 
HETATM   18  C   UNL     1      16.065  47.513  45.899  1.00  0.00     0.024 A 
HETATM   19  C   UNL     1      14.994  48.318  46.275  1.00  0.00     0.034 A 
HETATM   20 CL   UNL     1      13.411  47.961  45.705  1.00  0.00    -0.084 Cl
HETATM   21  C   UNL     1      15.200  49.411  47.110  1.00  0.00     0.024 A 
HETATM   22  C   UNL     1      16.489  49.707  47.565  1.00  0.00     0.010 A 
ENDBRANCH   8  16
TORSDOF 1
ENDMDL
MODEL 8
REMARK VINA RESULT:      -6.7     11.732     12.591
REMARK  1 active torsions:
REMARK  status: ('A' for Active; 'I' for Inactive)
REMARK    1  A    between atoms: C_8  and  C_9 
ROOT
HETATM    1  C   UNL     1      18.183  47.036  46.983  1.00  0.00     0.073 C 
HETATM    2  C   UNL     1      18.521  47.693  48.272  1.00  0.00     0.062 C 
HETATM    3  N   UNL     1      17.673  47.596  49.302  1.00  0.00    -0.178 NA
HETATM    4  N   UNL     1      18.288  48.257  50.289  1.00  0.00    -0.262 N 
HETATM    5  H   UNL     1      17.825  48.309  51.190  1.00  0.00     0.191 HD
HETATM    6  C   UNL     1      19.432  48.888  49.890  1.00  0.00     0.134 C 
HETATM    7  C   UNL     1      19.694  48.444  48.609  1.00  0.00     0.032 C 
HETATM    8  C   UNL     1      20.919  48.602  47.774  1.00  0.00     0.119 C 
HETATM    9  S   UNL     1      21.677  50.238  47.605  1.00  0.00    -0.141 SA
HETATM   10  C   UNL     1      20.864  51.267  48.860  1.00  0.00     0.136 C 
HETATM   11  C   UNL     1      19.482  51.764  48.446  1.00  0.00     0.031 C 
HETATM   12  C   UNL     1      20.946  50.736  50.290  1.00  0.00     0.236 C 
HETATM   13  O   UNL     1      21.690  51.262  51.124  1.00  0.00    -0.272 OA
HETATM   14  N   UNL     1      20.113  49.740  50.718  1.00  0.00    -0.311 N 
HETATM   15  H   UNL     1      20.036  49.652  51.724  1.00  0.00     0.170 HD
ENDROOT
BRANCH   8  16
HETATM   16  C   UNL     1      21.893  47.532  48.277  1.00  0.00    -0.040 A 
HETATM   17  C   UNL     1      22.936  47.899  49.150  1.00  0.00     0.010 A 
HETATM   18  C   UNL     1      23.868  46.959  49.601  1.00  0.00     0.024 A 
HETATM   19  C   UNL     1      23.766  45.631  49.195  1.00  0.00     0.034 A 
HETATM   20 CL   UNL     1      24.913  44.475  49.747  1.00  0.00    -0.084 Cl
HETATM   21  C   UNL     1      22.740  45.238  48.342  1.00  0.00     0.024 A 
HETATM   22  C   UNL     1      21.814  46.181  47.886  1.00  0.00     0.010 A 
ENDBRANCH   8  16
TORSDOF 1
ENDMDL
MODEL 9
REMARK VINA RESULT:      -6.7     11.111     12.637
REMARK  1 active torsions:
REMARK  status: ('A' for Active; 'I' for Inactive)
REMARK    1  A    between atoms: C_8  and  C_9 
ROOT
HETATM    1  C   UNL     1      18.363  52.377  47.606  1.00  0.00     0.073 C 
HETATM    2  C   UNL     1      18.523  51.044  46.968  1.00  0.00     0.062 C 
HETATM    3  N   UNL     1      18.248  50.900  45.667  1.00  0.00    -0.178 NA
HETATM    4  N   UNL     1      18.526  49.615  45.419  1.00  0.00    -0.262 N 
HETATM    5  H   UNL     1      18.397  49.273  44.473  1.00  0.00     0.191 HD
HETATM    6  C   UNL     1      18.836  48.900  46.542  1.00  0.00     0.134 C 
HETATM    7  C   UNL     1      18.971  49.819  47.562  1.00  0.00     0.032 C 
HETATM    8  C   UNL     1      19.529  49.649  48.935  1.00  0.00     0.119 C 
HETATM    9  S   UNL     1      18.976  48.259  49.955  1.00  0.00    -0.141 SA
HETATM   10  C   UNL     1      18.060  47.175  48.822  1.00  0.00     0.136 C 
HETATM   11  C   UNL     1      16.639  47.649  48.533  1.00  0.00     0.031 C 
HETATM   12  C   UNL     1      18.839  46.717  47.589  1.00  0.00     0.236 C 
HETATM   13  O   UNL     1      19.255  45.558  47.494  1.00  0.00    -0.272 OA
HETATM   14  N   UNL     1      18.994  47.541  46.510  1.00  0.00    -0.311 N 
HETATM   15  H   UNL     1      19.262  47.073  45.652  1.00  0.00     0.170 HD
ENDROOT
BRANCH   8  16
HETATM   16  C   UNL     1      21.050  49.707  48.764  1.00  0.00    -0.040 A 
HETATM   17  C   UNL     1      21.801  48.517  48.824  1.00  0.00     0.010 A 
HETATM   18  C   UNL     1      23.195  48.532  48.710  1.00  0.00     0.024 A 
HETATM   19  C   UNL     1      23.861  49.740  48.523  1.00  0.00     0.034 A 
HETATM   20 CL   UNL     1      25.576  49.760  48.387  1.00  0.00    -0.084 Cl
HETATM   21  C   UNL     1      23.145  50.929  48.449  1.00  0.00     0.024 A 
HETATM   22  C   UNL     1      21.752  50.913  48.571  1.00  0.00     0.010 A 
ENDBRANCH   8  16
TORSDOF 1
ENDMDL
MODEL 10
REMARK VINA RESULT:      -6.6     25.280     26.404
REMARK  1 active torsions:
REMARK  status: ('A' for Active; 'I' for Inactive)
REMARK    1  A    between atoms: C_8  and  C_9 
ROOT
HETATM    1  C   UNL     1      35.829  44.628  65.969  1.00  0.00     0.073 C 
HETATM    2  C   UNL     1      36.889  44.899  64.963  1.00  0.00     0.062 C 
HETATM    3  N   UNL     1      36.645  44.661  63.669  1.00  0.00    -0.178 NA
HETATM    4  N   UNL     1      37.772  45.037  63.054  1.00  0.00    -0.262 N 
HETATM    5  H   UNL     1      37.815  44.953  62.044  1.00  0.00     0.191 HD
HETATM    6  C   UNL     1      38.775  45.377  63.917  1.00  0.00     0.134 C 
HETATM    7  C   UNL     1      38.206  45.424  65.174  1.00  0.00     0.032 C 
HETATM    8  C   UNL     1      38.752  45.967  66.451  1.00  0.00     0.119 C 
HETATM    9  S   UNL     1      40.421  45.497  66.976  1.00  0.00    -0.141 SA
HETATM   10  C   UNL     1      41.161  44.687  65.530  1.00  0.00     0.136 C 
HETATM   11  C   UNL     1      40.714  43.240  65.342  1.00  0.00     0.031 C 
HETATM   12  C   UNL     1      41.169  45.521  64.250  1.00  0.00     0.236 C 
HETATM   13  O   UNL     1      42.214  46.023  63.824  1.00  0.00    -0.272 OA
HETATM   14  N   UNL     1      40.046  45.636  63.480  1.00  0.00    -0.311 N 
HETATM   15  H   UNL     1      40.210  45.955  62.532  1.00  0.00     0.170 HD
ENDROOT
BRANCH   8  16
HETATM   16  C   UNL     1      38.547  47.482  66.369  1.00  0.00    -0.040 A 
HETATM   17  C   UNL     1      37.345  48.046  66.840  1.00  0.00     0.010 A 
HETATM   18  C   UNL     1      37.104  49.420  66.748  1.00  0.00     0.024 A 
HETATM   19  C   UNL     1      38.067  50.257  66.192  1.00  0.00     0.034 A 
HETATM   20 CL   UNL     1      37.770  51.947  66.075  1.00  0.00    -0.084 Cl
HETATM   21  C   UNL     1      39.267  49.730  65.728  1.00  0.00     0.024 A 
HETATM   22  C   UNL     1      39.504  48.354  65.814  1.00  0.00     0.010 A 
ENDBRANCH   8  16
TORSDOF 1
ENDMDL
