MODEL 1
REMARK VINA RESULT:      -9.8      0.000      0.000
REMARK  6 active torsions:
REMARK  status: ('A' for Active; 'I' for Inactive)
REMARK    1  A    between atoms: C_2  and  O_3 
REMARK    2  A    between atoms: C_2  and  C_4 
REMARK    3  A    between atoms: C_6  and  N_7 
REMARK       I    between atoms: N_7  and  C_8 
REMARK    4  A    between atoms: C_8  and  C_9 
REMARK    5  A    between atoms: C_14  and  C_15 
REMARK    6  A    between atoms: C_23  and  C_24 
ROOT
HETATM    1  C   UNL     1      25.240  47.175  50.867  1.00  0.00     0.148 A 
HETATM    2  N   UNL     1      24.860  47.325  52.161  1.00  0.00    -0.165 NA
HETATM    3  N   UNL     1      25.742  46.553  52.827  1.00  0.00    -0.240 N 
HETATM    4  C   UNL     1      26.595  45.860  52.023  1.00  0.00     0.123 A 
HETATM    5  N   UNL     1      27.522  45.039  52.548  1.00  0.00    -0.366 N 
HETATM    6  C   UNL     1      27.293  44.376  53.826  1.00  0.00     0.118 C 
HETATM    7  C   UNL     1      26.302  45.115  54.753  1.00  0.00     0.066 C 
HETATM    8  C   UNL     1      25.801  46.491  54.271  1.00  0.00     0.221 C 
HETATM    9  C   UNL     1      26.315  46.251  50.745  1.00  0.00     0.089 A 
HETATM   10  H   UNL     1      28.116  44.501  51.915  1.00  0.00     0.161 HD
ENDROOT
BRANCH   1  11
HETATM   11  C   UNL     1      24.617  47.915  49.756  1.00  0.00     0.276 C 
HETATM   12  N   UNL     1      23.273  48.153  49.964  1.00  0.00    -0.322 N 
HETATM   13  H   UNL     1      22.912  47.740  50.821  1.00  0.00     0.169 HD
HETATM   14  O   UNL     1      25.280  48.263  48.784  1.00  0.00    -0.266 OA
BRANCH  12  15
HETATM   15  C   UNL     1      22.398  48.916  49.169  1.00  0.00     0.035 A 
HETATM   16  C   UNL     1      21.360  48.363  48.413  1.00  0.00     0.039 A 
HETATM   17  C   UNL     1      20.534  49.168  47.609  1.00  0.00    -0.028 A 
HETATM   18  C   UNL     1      20.765  50.549  47.576  1.00  0.00     0.010 A 
HETATM   19  C   UNL     1      21.791  51.112  48.333  1.00  0.00     0.003 A 
HETATM   20  C   UNL     1      22.606  50.297  49.123  1.00  0.00     0.029 A 
BRANCH  17  21
HETATM   21  C   UNL     1      19.447  48.528  46.773  1.00  0.00     0.147 C 
HETATM   22  C   UNL     1      18.707  49.547  45.919  1.00  0.00     0.044 C 
BRANCH  21  23
HETATM   23  O   UNL     1      18.508  47.857  47.611  1.00  0.00    -0.391 OA
HETATM   24  H   UNL     1      18.228  47.060  47.129  1.00  0.00     0.210 HD
ENDBRANCH  21  23
ENDBRANCH  17  21
ENDBRANCH  12  15
ENDBRANCH   1  11
BRANCH   8  25
HETATM   25  C   UNL     1      26.639  47.633  54.802  1.00  0.00     0.409 C 
HETATM   26  F   UNL     1      25.925  48.776  54.924  1.00  0.00    -0.169 F 
HETATM   27  F   UNL     1      27.087  47.333  56.049  1.00  0.00    -0.169 F 
HETATM   28  F   UNL     1      27.723  47.906  54.052  1.00  0.00    -0.169 F 
ENDBRANCH   8  25
BRANCH   6  29
HETATM   29  C   UNL     1      28.632  44.073  54.477  1.00  0.00    -0.035 A 
HETATM   30  C   UNL     1      29.332  42.884  54.208  1.00  0.00     0.012 A 
HETATM   31  C   UNL     1      30.538  42.601  54.852  1.00  0.00     0.043 A 
HETATM   32  C   UNL     1      31.051  43.504  55.772  1.00  0.00     0.116 A 
HETATM   33  F   UNL     1      32.198  43.224  56.404  1.00  0.00    -0.206 F 
HETATM   34  C   UNL     1      30.385  44.690  56.053  1.00  0.00     0.043 A 
HETATM   35  C   UNL     1      29.182  44.977  55.405  1.00  0.00     0.012 A 
ENDBRANCH   6  29
TORSDOF 6
ENDMDL
MODEL 2
REMARK VINA RESULT:      -9.8      3.184      3.825
REMARK  6 active torsions:
REMARK  status: ('A' for Active; 'I' for Inactive)
REMARK    1  A    between atoms: C_2  and  O_3 
REMARK    2  A    between atoms: C_2  and  C_4 
REMARK    3  A    between atoms: C_6  and  N_7 
REMARK       I    between atoms: N_7  and  C_8 
REMARK    4  A    between atoms: C_8  and  C_9 
REMARK    5  A    between atoms: C_14  and  C_15 
REMARK    6  A    between atoms: C_23  and  C_24 
ROOT
HETATM    1  C   UNL     1      23.837  46.440  49.130  1.00  0.00     0.148 A 
HETATM    2  N   UNL     1      23.993  45.138  48.783  1.00  0.00    -0.165 NA
HETATM    3  N   UNL     1      25.016  44.737  49.564  1.00  0.00    -0.240 N 
HETATM    4  C   UNL     1      25.568  45.730  50.314  1.00  0.00     0.123 A 
HETATM    5  N   UNL     1      26.605  45.480  51.132  1.00  0.00    -0.366 N 
HETATM    6  C   UNL     1      27.553  44.413  50.830  1.00  0.00     0.118 C 
HETATM    7  C   UNL     1      26.973  43.282  49.950  1.00  0.00     0.066 C 
HETATM    8  C   UNL     1      25.467  43.363  49.626  1.00  0.00     0.221 C 
HETATM    9  C   UNL     1      24.819  46.847  50.076  1.00  0.00     0.089 A 
HETATM   10  H   UNL     1      27.024  46.256  51.646  1.00  0.00     0.161 HD
ENDROOT
BRANCH   1  11
HETATM   11  C   UNL     1      22.758  47.290  48.598  1.00  0.00     0.276 C 
HETATM   12  N   UNL     1      22.390  48.292  49.474  1.00  0.00    -0.322 N 
HETATM   13  H   UNL     1      22.882  48.259  50.364  1.00  0.00     0.169 HD
HETATM   14  O   UNL     1      22.285  47.082  47.485  1.00  0.00    -0.266 OA
BRANCH  12  15
HETATM   15  C   UNL     1      21.479  49.340  49.253  1.00  0.00     0.035 A 
HETATM   16  C   UNL     1      20.114  49.252  49.545  1.00  0.00     0.039 A 
HETATM   17  C   UNL     1      19.239  50.319  49.274  1.00  0.00    -0.028 A 
HETATM   18  C   UNL     1      19.757  51.487  48.703  1.00  0.00     0.010 A 
HETATM   19  C   UNL     1      21.118  51.589  48.416  1.00  0.00     0.003 A 
HETATM   20  C   UNL     1      21.973  50.518  48.687  1.00  0.00     0.029 A 
BRANCH  17  21
HETATM   21  C   UNL     1      17.761  50.169  49.566  1.00  0.00     0.147 C 
HETATM   22  C   UNL     1      16.952  49.911  48.302  1.00  0.00     0.044 C 
BRANCH  21  23
HETATM   23  O   UNL     1      17.261  51.343  50.204  1.00  0.00    -0.391 OA
HETATM   24  H   UNL     1      17.497  51.267  51.145  1.00  0.00     0.210 HD
ENDBRANCH  21  23
ENDBRANCH  17  21
ENDBRANCH  12  15
ENDBRANCH   1  11
BRANCH   8  25
HETATM   25  C   UNL     1      24.620  42.586  50.608  1.00  0.00     0.409 C 
HETATM   26  F   UNL     1      23.375  42.350  50.133  1.00  0.00    -0.169 F 
HETATM   27  F   UNL     1      25.176  41.367  50.832  1.00  0.00    -0.169 F 
HETATM   28  F   UNL     1      24.493  43.183  51.808  1.00  0.00    -0.169 F 
ENDBRANCH   8  25
BRANCH   6  29
HETATM   29  C   UNL     1      28.179  43.922  52.124  1.00  0.00    -0.035 A 
HETATM   30  C   UNL     1      27.779  44.424  53.375  1.00  0.00     0.012 A 
HETATM   31  C   UNL     1      28.400  43.996  54.550  1.00  0.00     0.043 A 
HETATM   32  C   UNL     1      29.426  43.065  54.482  1.00  0.00     0.116 A 
HETATM   33  F   UNL     1      30.034  42.668  55.607  1.00  0.00    -0.206 F 
HETATM   34  C   UNL     1      29.838  42.546  53.261  1.00  0.00     0.043 A 
HETATM   35  C   UNL     1      29.214  42.969  52.085  1.00  0.00     0.012 A 
ENDBRANCH   6  29
TORSDOF 6
ENDMDL
MODEL 3
REMARK VINA RESULT:      -9.6      1.999      2.349
REMARK  6 active torsions:
REMARK  status: ('A' for Active; 'I' for Inactive)
REMARK    1  A    between atoms: C_2  and  O_3 
REMARK    2  A    between atoms: C_2  and  C_4 
REMARK    3  A    between atoms: C_6  and  N_7 
REMARK       I    between atoms: N_7  and  C_8 
REMARK    4  A    between atoms: C_8  and  C_9 
REMARK    5  A    between atoms: C_14  and  C_15 
REMARK    6  A    between atoms: C_23  and  C_24 
ROOT
HETATM    1  C   UNL     1      25.121  45.771  50.908  1.00  0.00     0.148 A 
HETATM    2  N   UNL     1      24.701  44.742  51.686  1.00  0.00    -0.165 NA
HETATM    3  N   UNL     1      25.784  44.474  52.443  1.00  0.00    -0.240 N 
HETATM    4  C   UNL     1      26.883  45.213  52.126  1.00  0.00     0.123 A 
HETATM    5  N   UNL     1      28.040  45.045  52.790  1.00  0.00    -0.366 N 
HETATM    6  C   UNL     1      28.382  43.755  53.378  1.00  0.00     0.118 C 
HETATM    7  C   UNL     1      27.161  42.872  53.720  1.00  0.00     0.066 C 
HETATM    8  C   UNL     1      25.771  43.510  53.522  1.00  0.00     0.221 C 
HETATM    9  C   UNL     1      26.489  46.080  51.148  1.00  0.00     0.089 A 
HETATM   10  H   UNL     1      28.857  45.584  52.497  1.00  0.00     0.161 HD
ENDROOT
BRANCH   1  11
HETATM   11  C   UNL     1      24.237  46.477  49.965  1.00  0.00     0.276 C 
HETATM   12  N   UNL     1      24.188  47.837  50.199  1.00  0.00    -0.322 N 
HETATM   13  H   UNL     1      24.725  48.132  51.011  1.00  0.00     0.169 HD
HETATM   14  O   UNL     1      23.644  45.866  49.080  1.00  0.00    -0.266 OA
BRANCH  12  15
HETATM   15  C   UNL     1      23.537  48.823  49.434  1.00  0.00     0.035 A 
HETATM   16  C   UNL     1      22.185  49.145  49.579  1.00  0.00     0.039 A 
HETATM   17  C   UNL     1      21.575  50.117  48.766  1.00  0.00    -0.028 A 
HETATM   18  C   UNL     1      22.349  50.768  47.798  1.00  0.00     0.010 A 
HETATM   19  C   UNL     1      23.701  50.460  47.651  1.00  0.00     0.003 A 
HETATM   20  C   UNL     1      24.290  49.489  48.464  1.00  0.00     0.029 A 
BRANCH  17  21
HETATM   21  C   UNL     1      20.098  50.409  48.925  1.00  0.00     0.147 C 
HETATM   22  C   UNL     1      19.763  51.856  48.596  1.00  0.00     0.044 C 
BRANCH  21  23
HETATM   23  O   UNL     1      19.680  50.129  50.260  1.00  0.00    -0.391 OA
HETATM   24  H   UNL     1      19.307  50.957  50.611  1.00  0.00     0.210 HD
ENDBRANCH  21  23
ENDBRANCH  17  21
ENDBRANCH  12  15
ENDBRANCH   1  11
BRANCH   8  25
HETATM   25  C   UNL     1      25.243  44.155  54.783  1.00  0.00     0.409 C 
HETATM   26  F   UNL     1      23.919  44.421  54.705  1.00  0.00    -0.169 F 
HETATM   27  F   UNL     1      25.397  43.307  55.833  1.00  0.00    -0.169 F 
HETATM   28  F   UNL     1      25.871  45.300  55.112  1.00  0.00    -0.169 F 
ENDBRANCH   8  25
BRANCH   6  29
HETATM   29  C   UNL     1      29.326  43.976  54.549  1.00  0.00    -0.035 A 
HETATM   30  C   UNL     1      30.292  43.021  54.908  1.00  0.00     0.012 A 
HETATM   31  C   UNL     1      31.118  43.219  56.016  1.00  0.00     0.043 A 
HETATM   32  C   UNL     1      30.981  44.374  56.774  1.00  0.00     0.116 A 
HETATM   33  F   UNL     1      31.759  44.556  57.848  1.00  0.00    -0.206 F 
HETATM   34  C   UNL     1      30.039  45.339  56.438  1.00  0.00     0.043 A 
HETATM   35  C   UNL     1      29.217  45.144  55.326  1.00  0.00     0.012 A 
ENDBRANCH   6  29
TORSDOF 6
ENDMDL
MODEL 4
REMARK VINA RESULT:      -9.5      6.747     10.308
REMARK  6 active torsions:
REMARK  status: ('A' for Active; 'I' for Inactive)
REMARK    1  A    between atoms: C_2  and  O_3 
REMARK    2  A    between atoms: C_2  and  C_4 
REMARK    3  A    between atoms: C_6  and  N_7 
REMARK       I    between atoms: N_7  and  C_8 
REMARK    4  A    between atoms: C_8  and  C_9 
REMARK    5  A    between atoms: C_14  and  C_15 
REMARK    6  A    between atoms: C_23  and  C_24 
ROOT
HETATM    1  C   UNL     1      17.036  51.947  49.385  1.00  0.00     0.148 A 
HETATM    2  N   UNL     1      16.992  50.695  48.868  1.00  0.00    -0.165 NA
HETATM    3  N   UNL     1      18.293  50.402  48.671  1.00  0.00    -0.240 N 
HETATM    4  C   UNL     1      19.144  51.427  48.951  1.00  0.00     0.123 A 
HETATM    5  N   UNL     1      20.471  51.284  48.790  1.00  0.00    -0.366 N 
HETATM    6  C   UNL     1      21.006  50.369  47.789  1.00  0.00     0.118 C 
HETATM    7  C   UNL     1      20.054  49.210  47.418  1.00  0.00     0.066 C 
HETATM    8  C   UNL     1      18.750  49.101  48.233  1.00  0.00     0.221 C 
HETATM    9  C   UNL     1      18.369  52.442  49.436  1.00  0.00     0.089 A 
HETATM   10  H   UNL     1      21.076  52.088  48.967  1.00  0.00     0.161 HD
ENDROOT
BRANCH   1  11
HETATM   11  C   UNL     1      15.839  52.666  49.855  1.00  0.00     0.276 C 
HETATM   12  N   UNL     1      16.071  54.012  50.055  1.00  0.00    -0.322 N 
HETATM   13  H   UNL     1      17.037  54.288  49.898  1.00  0.00     0.169 HD
HETATM   14  O   UNL     1      14.776  52.075  50.020  1.00  0.00    -0.266 OA
BRANCH  12  15
HETATM   15  C   UNL     1      15.138  55.008  50.394  1.00  0.00     0.035 A 
HETATM   16  C   UNL     1      14.710  55.254  51.702  1.00  0.00     0.039 A 
HETATM   17  C   UNL     1      13.749  56.241  51.983  1.00  0.00    -0.028 A 
HETATM   18  C   UNL     1      13.220  56.988  50.922  1.00  0.00     0.010 A 
HETATM   19  C   UNL     1      13.646  56.757  49.615  1.00  0.00     0.003 A 
HETATM   20  C   UNL     1      14.598  55.769  49.353  1.00  0.00     0.029 A 
BRANCH  17  21
HETATM   21  C   UNL     1      13.281  56.449  53.407  1.00  0.00     0.147 C 
HETATM   22  C   UNL     1      14.281  57.252  54.226  1.00  0.00     0.044 C 
BRANCH  21  23
HETATM   23  O   UNL     1      13.065  55.192  54.045  1.00  0.00    -0.391 OA
HETATM   24  H   UNL     1      13.932  54.896  54.374  1.00  0.00     0.210 HD
ENDBRANCH  21  23
ENDBRANCH  17  21
ENDBRANCH  12  15
ENDBRANCH   1  11
BRANCH   8  25
HETATM   25  C   UNL     1      18.883  48.175  49.421  1.00  0.00     0.409 C 
HETATM   26  F   UNL     1      19.373  48.810  50.511  1.00  0.00    -0.169 F 
HETATM   27  F   UNL     1      17.660  47.702  49.777  1.00  0.00    -0.169 F 
HETATM   28  F   UNL     1      19.664  47.102  49.189  1.00  0.00    -0.169 F 
ENDBRANCH   8  25
BRANCH   6  29
HETATM   29  C   UNL     1      22.390  49.912  48.221  1.00  0.00    -0.035 A 
HETATM   30  C   UNL     1      23.556  50.535  47.743  1.00  0.00     0.012 A 
HETATM   31  C   UNL     1      24.819  50.070  48.114  1.00  0.00     0.043 A 
HETATM   32  C   UNL     1      24.925  48.977  48.962  1.00  0.00     0.116 A 
HETATM   33  F   UNL     1      26.136  48.519  49.303  1.00  0.00    -0.206 F 
HETATM   34  C   UNL     1      23.790  48.346  49.456  1.00  0.00     0.043 A 
HETATM   35  C   UNL     1      22.525  48.814  49.091  1.00  0.00     0.012 A 
ENDBRANCH   6  29
TORSDOF 6
ENDMDL
MODEL 5
REMARK VINA RESULT:      -9.2      3.587      4.661
REMARK  6 active torsions:
REMARK  status: ('A' for Active; 'I' for Inactive)
REMARK    1  A    between atoms: C_2  and  O_3 
REMARK    2  A    between atoms: C_2  and  C_4 
REMARK    3  A    between atoms: C_6  and  N_7 
REMARK       I    between atoms: N_7  and  C_8 
REMARK    4  A    between atoms: C_8  and  C_9 
REMARK    5  A    between atoms: C_14  and  C_15 
REMARK    6  A    between atoms: C_23  and  C_24 
ROOT
HETATM    1  C   UNL     1      24.931  43.504  51.172  1.00  0.00     0.148 A 
HETATM    2  N   UNL     1      25.999  42.738  50.836  1.00  0.00    -0.165 NA
HETATM    3  N   UNL     1      26.923  43.088  51.754  1.00  0.00    -0.240 N 
HETATM    4  C   UNL     1      26.529  44.089  52.588  1.00  0.00     0.123 A 
HETATM    5  N   UNL     1      27.351  44.551  53.546  1.00  0.00    -0.366 N 
HETATM    6  C   UNL     1      28.799  44.502  53.374  1.00  0.00     0.118 C 
HETATM    7  C   UNL     1      29.283  43.399  52.405  1.00  0.00     0.066 C 
HETATM    8  C   UNL     1      28.208  42.434  51.865  1.00  0.00     0.221 C 
HETATM    9  C   UNL     1      25.235  44.373  52.256  1.00  0.00     0.089 A 
HETATM   10  H   UNL     1      27.041  45.332  54.125  1.00  0.00     0.161 HD
ENDROOT
BRANCH   1  11
HETATM   11  C   UNL     1      23.625  43.401  50.498  1.00  0.00     0.276 C 
HETATM   12  N   UNL     1      23.535  44.217  49.387  1.00  0.00    -0.322 N 
HETATM   13  H   UNL     1      24.358  44.796  49.237  1.00  0.00     0.169 HD
HETATM   14  O   UNL     1      22.757  42.645  50.922  1.00  0.00    -0.266 OA
BRANCH  12  15
HETATM   15  C   UNL     1      22.485  44.292  48.454  1.00  0.00     0.035 A 
HETATM   16  C   UNL     1      21.339  45.073  48.641  1.00  0.00     0.039 A 
HETATM   17  C   UNL     1      20.303  45.087  47.691  1.00  0.00    -0.028 A 
HETATM   18  C   UNL     1      20.434  44.302  46.539  1.00  0.00     0.010 A 
HETATM   19  C   UNL     1      21.576  43.528  46.338  1.00  0.00     0.003 A 
HETATM   20  C   UNL     1      22.595  43.521  47.295  1.00  0.00     0.029 A 
BRANCH  17  21
HETATM   21  C   UNL     1      19.061  45.912  47.949  1.00  0.00     0.147 C 
HETATM   22  C   UNL     1      19.339  47.093  48.869  1.00  0.00     0.044 C 
BRANCH  21  23
HETATM   23  O   UNL     1      18.041  45.102  48.532  1.00  0.00    -0.391 OA
HETATM   24  H   UNL     1      18.490  44.488  49.139  1.00  0.00     0.210 HD
ENDBRANCH  21  23
ENDBRANCH  17  21
ENDBRANCH  12  15
ENDBRANCH   1  11
BRANCH   8  25
HETATM   25  C   UNL     1      28.079  41.182  52.703  1.00  0.00     0.409 C 
HETATM   26  F   UNL     1      27.167  40.321  52.196  1.00  0.00    -0.169 F 
HETATM   27  F   UNL     1      29.262  40.514  52.718  1.00  0.00    -0.169 F 
HETATM   28  F   UNL     1      27.749  41.419  53.987  1.00  0.00    -0.169 F 
ENDBRANCH   8  25
BRANCH   6  29
HETATM   29  C   UNL     1      29.462  44.452  54.740  1.00  0.00    -0.035 A 
HETATM   30  C   UNL     1      29.236  45.447  55.707  1.00  0.00     0.012 A 
HETATM   31  C   UNL     1      29.892  45.410  56.939  1.00  0.00     0.043 A 
HETATM   32  C   UNL     1      30.779  44.379  57.211  1.00  0.00     0.116 A 
HETATM   33  F   UNL     1      31.422  44.353  58.386  1.00  0.00    -0.206 F 
HETATM   34  C   UNL     1      31.017  43.378  56.278  1.00  0.00     0.043 A 
HETATM   35  C   UNL     1      30.357  43.410  55.047  1.00  0.00     0.012 A 
ENDBRANCH   6  29
TORSDOF 6
ENDMDL
MODEL 6
REMARK VINA RESULT:      -9.2      4.006     10.557
REMARK  6 active torsions:
REMARK  status: ('A' for Active; 'I' for Inactive)
REMARK    1  A    between atoms: C_2  and  O_3 
REMARK    2  A    between atoms: C_2  and  C_4 
REMARK    3  A    between atoms: C_6  and  N_7 
REMARK       I    between atoms: N_7  and  C_8 
REMARK    4  A    between atoms: C_8  and  C_9 
REMARK    5  A    between atoms: C_14  and  C_15 
REMARK    6  A    between atoms: C_23  and  C_24 
ROOT
HETATM    1  C   UNL     1      23.939  48.042  49.609  1.00  0.00     0.148 A 
HETATM    2  N   UNL     1      23.636  49.363  49.559  1.00  0.00    -0.165 NA
HETATM    3  N   UNL     1      22.417  49.372  48.983  1.00  0.00    -0.240 N 
HETATM    4  C   UNL     1      21.977  48.146  48.589  1.00  0.00     0.123 A 
HETATM    5  N   UNL     1      20.782  48.003  47.988  1.00  0.00    -0.366 N 
HETATM    6  C   UNL     1      20.214  49.085  47.193  1.00  0.00     0.118 C 
HETATM    7  C   UNL     1      20.717  50.492  47.587  1.00  0.00     0.066 C 
HETATM    8  C   UNL     1      21.629  50.576  48.828  1.00  0.00     0.221 C 
HETATM    9  C   UNL     1      22.927  47.252  48.995  1.00  0.00     0.089 A 
HETATM   10  H   UNL     1      20.503  47.075  47.666  1.00  0.00     0.161 HD
ENDROOT
BRANCH   1  11
HETATM   11  C   UNL     1      25.157  47.521  50.253  1.00  0.00     0.276 C 
HETATM   12  N   UNL     1      24.945  47.141  51.563  1.00  0.00    -0.322 N 
HETATM   13  H   UNL     1      24.001  47.326  51.895  1.00  0.00     0.169 HD
HETATM   14  O   UNL     1      26.214  47.448  49.632  1.00  0.00    -0.266 OA
BRANCH  12  15
HETATM   15  C   UNL     1      25.849  46.508  52.436  1.00  0.00     0.035 A 
HETATM   16  C   UNL     1      26.248  45.175  52.301  1.00  0.00     0.039 A 
HETATM   17  C   UNL     1      27.130  44.581  53.221  1.00  0.00    -0.028 A 
HETATM   18  C   UNL     1      27.611  45.351  54.287  1.00  0.00     0.010 A 
HETATM   19  C   UNL     1      27.226  46.683  54.426  1.00  0.00     0.003 A 
HETATM   20  C   UNL     1      26.346  47.257  53.506  1.00  0.00     0.029 A 
BRANCH  17  21
HETATM   21  C   UNL     1      27.506  43.123  53.065  1.00  0.00     0.147 C 
HETATM   22  C   UNL     1      28.901  42.953  52.479  1.00  0.00     0.044 C 
BRANCH  21  23
HETATM   23  O   UNL     1      26.567  42.457  52.223  1.00  0.00    -0.391 OA
HETATM   24  H   UNL     1      25.842  42.159  52.801  1.00  0.00     0.210 HD
ENDBRANCH  21  23
ENDBRANCH  17  21
ENDBRANCH  12  15
ENDBRANCH   1  11
BRANCH   8  25
HETATM   25  C   UNL     1      20.858  50.855  50.098  1.00  0.00     0.409 C 
HETATM   26  F   UNL     1      21.662  51.272  51.102  1.00  0.00    -0.169 F 
HETATM   27  F   UNL     1      19.967  51.859  49.885  1.00  0.00    -0.169 F 
HETATM   28  F   UNL     1      20.154  49.799  50.549  1.00  0.00    -0.169 F 
ENDBRANCH   8  25
BRANCH   6  29
HETATM   29  C   UNL     1      18.700  48.955  47.185  1.00  0.00    -0.035 A 
HETATM   30  C   UNL     1      17.886  49.760  48.000  1.00  0.00     0.012 A 
HETATM   31  C   UNL     1      16.499  49.594  48.015  1.00  0.00     0.043 A 
HETATM   32  C   UNL     1      15.919  48.618  47.217  1.00  0.00     0.116 A 
HETATM   33  F   UNL     1      14.591  48.446  47.245  1.00  0.00    -0.206 F 
HETATM   34  C   UNL     1      16.697  47.812  46.396  1.00  0.00     0.043 A 
HETATM   35  C   UNL     1      18.084  47.982  46.375  1.00  0.00     0.012 A 
ENDBRANCH   6  29
TORSDOF 6
ENDMDL
MODEL 7
REMARK VINA RESULT:      -9.1      6.683     12.369
REMARK  6 active torsions:
REMARK  status: ('A' for Active; 'I' for Inactive)
REMARK    1  A    between atoms: C_2  and  O_3 
REMARK    2  A    between atoms: C_2  and  C_4 
REMARK    3  A    between atoms: C_6  and  N_7 
REMARK       I    between atoms: N_7  and  C_8 
REMARK    4  A    between atoms: C_8  and  C_9 
REMARK    5  A    between atoms: C_14  and  C_15 
REMARK    6  A    between atoms: C_23  and  C_24 
ROOT
HETATM    1  C   UNL     1      20.762  50.254  49.314  1.00  0.00     0.148 A 
HETATM    2  N   UNL     1      20.024  49.763  48.287  1.00  0.00    -0.165 NA
HETATM    3  N   UNL     1      18.839  50.386  48.441  1.00  0.00    -0.240 N 
HETATM    4  C   UNL     1      18.761  51.171  49.550  1.00  0.00     0.123 A 
HETATM    5  N   UNL     1      17.634  51.845  49.839  1.00  0.00    -0.366 N 
HETATM    6  C   UNL     1      16.333  51.338  49.418  1.00  0.00     0.118 C 
HETATM    7  C   UNL     1      16.385  50.414  48.180  1.00  0.00     0.066 C 
HETATM    8  C   UNL     1      17.755  50.261  47.490  1.00  0.00     0.221 C 
HETATM    9  C   UNL     1      19.995  51.128  50.134  1.00  0.00     0.089 A 
HETATM   10  H   UNL     1      17.595  52.389  50.703  1.00  0.00     0.161 HD
ENDROOT
BRANCH   1  11
HETATM   11  C   UNL     1      22.185  49.928  49.508  1.00  0.00     0.276 C 
HETATM   12  N   UNL     1      22.420  48.568  49.537  1.00  0.00    -0.322 N 
HETATM   13  H   UNL     1      21.575  48.005  49.471  1.00  0.00     0.169 HD
HETATM   14  O   UNL     1      23.025  50.817  49.616  1.00  0.00    -0.266 OA
BRANCH  12  15
HETATM   15  C   UNL     1      23.660  47.906  49.598  1.00  0.00     0.035 A 
HETATM   16  C   UNL     1      24.890  48.558  49.468  1.00  0.00     0.039 A 
HETATM   17  C   UNL     1      26.101  47.844  49.504  1.00  0.00    -0.028 A 
HETATM   18  C   UNL     1      26.060  46.455  49.675  1.00  0.00     0.010 A 
HETATM   19  C   UNL     1      24.839  45.796  49.814  1.00  0.00     0.003 A 
HETATM   20  C   UNL     1      23.645  46.520  49.772  1.00  0.00     0.029 A 
BRANCH  17  21
HETATM   21  C   UNL     1      27.411  48.579  49.318  1.00  0.00     0.147 C 
HETATM   22  C   UNL     1      27.217  49.932  48.647  1.00  0.00     0.044 C 
BRANCH  21  23
HETATM   23  O   UNL     1      28.310  47.798  48.532  1.00  0.00    -0.391 OA
HETATM   24  H   UNL     1      27.794  47.048  48.187  1.00  0.00     0.210 HD
ENDBRANCH  21  23
ENDBRANCH  17  21
ENDBRANCH  12  15
ENDBRANCH   1  11
BRANCH   8  25
HETATM   25  C   UNL     1      17.947  51.243  46.356  1.00  0.00     0.409 C 
HETATM   26  F   UNL     1      18.918  50.850  45.500  1.00  0.00    -0.169 F 
HETATM   27  F   UNL     1      16.807  51.326  45.622  1.00  0.00    -0.169 F 
HETATM   28  F   UNL     1      18.242  52.492  46.763  1.00  0.00    -0.169 F 
ENDBRANCH   8  25
BRANCH   6  29
HETATM   29  C   UNL     1      15.368  52.503  49.274  1.00  0.00    -0.035 A 
HETATM   30  C   UNL     1      15.061  53.056  48.019  1.00  0.00     0.012 A 
HETATM   31  C   UNL     1      14.209  54.157  47.910  1.00  0.00     0.043 A 
HETATM   32  C   UNL     1      13.660  54.714  49.056  1.00  0.00     0.116 A 
HETATM   33  F   UNL     1      12.858  55.781  48.954  1.00  0.00    -0.206 F 
HETATM   34  C   UNL     1      13.940  54.184  50.310  1.00  0.00     0.043 A 
HETATM   35  C   UNL     1      14.787  53.078  50.419  1.00  0.00     0.012 A 
ENDBRANCH   6  29
TORSDOF 6
ENDMDL
MODEL 8
REMARK VINA RESULT:      -9.1      4.415     11.028
REMARK  6 active torsions:
REMARK  status: ('A' for Active; 'I' for Inactive)
REMARK    1  A    between atoms: C_2  and  O_3 
REMARK    2  A    between atoms: C_2  and  C_4 
REMARK    3  A    between atoms: C_6  and  N_7 
REMARK       I    between atoms: N_7  and  C_8 
REMARK    4  A    between atoms: C_8  and  C_9 
REMARK    5  A    between atoms: C_14  and  C_15 
REMARK    6  A    between atoms: C_23  and  C_24 
ROOT
HETATM    1  C   UNL     1      22.012  47.022  48.603  1.00  0.00     0.148 A 
HETATM    2  N   UNL     1      22.340  48.169  47.958  1.00  0.00    -0.165 NA
HETATM    3  N   UNL     1      21.172  48.841  47.922  1.00  0.00    -0.240 N 
HETATM    4  C   UNL     1      20.115  48.148  48.427  1.00  0.00     0.123 A 
HETATM    5  N   UNL     1      18.883  48.688  48.445  1.00  0.00    -0.366 N 
HETATM    6  C   UNL     1      18.484  49.669  47.443  1.00  0.00     0.118 C 
HETATM    7  C   UNL     1      19.662  50.453  46.820  1.00  0.00     0.066 C 
HETATM    8  C   UNL     1      21.058  50.194  47.423  1.00  0.00     0.221 C 
HETATM    9  C   UNL     1      20.621  46.970  48.897  1.00  0.00     0.089 A 
HETATM   10  H   UNL     1      18.105  48.124  48.790  1.00  0.00     0.161 HD
ENDROOT
BRANCH   1  11
HETATM   11  C   UNL     1      23.002  45.993  48.966  1.00  0.00     0.276 C 
HETATM   12  N   UNL     1      23.986  46.475  49.805  1.00  0.00    -0.322 N 
HETATM   13  H   UNL     1      23.906  47.470  50.001  1.00  0.00     0.169 HD
HETATM   14  O   UNL     1      22.900  44.845  48.542  1.00  0.00    -0.266 OA
BRANCH  12  15
HETATM   15  C   UNL     1      25.019  45.752  50.430  1.00  0.00     0.035 A 
HETATM   16  C   UNL     1      24.992  45.373  51.775  1.00  0.00     0.039 A 
HETATM   17  C   UNL     1      26.066  44.679  52.359  1.00  0.00    -0.028 A 
HETATM   18  C   UNL     1      27.178  44.366  51.567  1.00  0.00     0.010 A 
HETATM   19  C   UNL     1      27.211  44.732  50.222  1.00  0.00     0.003 A 
HETATM   20  C   UNL     1      26.137  45.425  49.658  1.00  0.00     0.029 A 
BRANCH  17  21
HETATM   21  C   UNL     1      26.018  44.322  53.829  1.00  0.00     0.147 C 
HETATM   22  C   UNL     1      27.112  43.336  54.215  1.00  0.00     0.044 C 
BRANCH  21  23
HETATM   23  O   UNL     1      24.750  43.759  54.161  1.00  0.00    -0.391 OA
HETATM   24  H   UNL     1      24.827  42.800  54.013  1.00  0.00     0.210 HD
ENDBRANCH  21  23
ENDBRANCH  17  21
ENDBRANCH  12  15
ENDBRANCH   1  11
BRANCH   8  25
HETATM   25  C   UNL     1      21.410  51.178  48.515  1.00  0.00     0.409 C 
HETATM   26  F   UNL     1      20.595  52.258  48.511  1.00  0.00    -0.169 F 
HETATM   27  F   UNL     1      21.255  50.592  49.731  1.00  0.00    -0.169 F 
HETATM   28  F   UNL     1      22.679  51.624  48.456  1.00  0.00    -0.169 F 
ENDBRANCH   8  25
BRANCH   6  29
HETATM   29  C   UNL     1      17.395  50.557  48.021  1.00  0.00    -0.035 A 
HETATM   30  C   UNL     1      16.237  50.875  47.291  1.00  0.00     0.012 A 
HETATM   31  C   UNL     1      15.269  51.732  47.820  1.00  0.00     0.043 A 
HETATM   32  C   UNL     1      15.455  52.278  49.081  1.00  0.00     0.116 A 
HETATM   33  F   UNL     1      14.536  53.114  49.581  1.00  0.00    -0.206 F 
HETATM   34  C   UNL     1      16.586  51.976  49.829  1.00  0.00     0.043 A 
HETATM   35  C   UNL     1      17.552  51.115  49.304  1.00  0.00     0.012 A 
ENDBRANCH   6  29
TORSDOF 6
ENDMDL
MODEL 9
REMARK VINA RESULT:      -9.0      6.741     10.677
REMARK  6 active torsions:
REMARK  status: ('A' for Active; 'I' for Inactive)
REMARK    1  A    between atoms: C_2  and  O_3 
REMARK    2  A    between atoms: C_2  and  C_4 
REMARK    3  A    between atoms: C_6  and  N_7 
REMARK       I    between atoms: N_7  and  C_8 
REMARK    4  A    between atoms: C_8  and  C_9 
REMARK    5  A    between atoms: C_14  and  C_15 
REMARK    6  A    between atoms: C_23  and  C_24 
ROOT
HETATM    1  C   UNL     1      27.134  42.426  51.497  1.00  0.00     0.148 A 
HETATM    2  N   UNL     1      27.062  41.073  51.551  1.00  0.00    -0.165 NA
HETATM    3  N   UNL     1      27.171  40.712  50.257  1.00  0.00    -0.240 N 
HETATM    4  C   UNL     1      27.220  41.758  49.388  1.00  0.00     0.123 A 
HETATM    5  N   UNL     1      27.317  41.550  48.064  1.00  0.00    -0.366 N 
HETATM    6  C   UNL     1      26.769  40.342  47.457  1.00  0.00     0.118 C 
HETATM    7  C   UNL     1      26.667  39.140  48.422  1.00  0.00     0.066 C 
HETATM    8  C   UNL     1      27.265  39.332  49.830  1.00  0.00     0.221 C 
HETATM    9  C   UNL     1      27.218  42.889  50.155  1.00  0.00     0.089 A 
HETATM   10  H   UNL     1      27.306  42.357  47.437  1.00  0.00     0.161 HD
ENDROOT
BRANCH   1  11
HETATM   11  C   UNL     1      27.152  43.278  52.699  1.00  0.00     0.276 C 
HETATM   12  N   UNL     1      28.424  43.460  53.203  1.00  0.00    -0.322 N 
HETATM   13  H   UNL     1      29.141  42.940  52.701  1.00  0.00     0.169 HD
HETATM   14  O   UNL     1      26.113  43.754  53.147  1.00  0.00    -0.266 OA
BRANCH  12  15
HETATM   15  C   UNL     1      28.822  44.292  54.265  1.00  0.00     0.035 A 
HETATM   16  C   UNL     1      29.886  43.995  55.122  1.00  0.00     0.039 A 
HETATM   17  C   UNL     1      30.222  44.847  56.189  1.00  0.00    -0.028 A 
HETATM   18  C   UNL     1      29.470  46.011  56.386  1.00  0.00     0.010 A 
HETATM   19  C   UNL     1      28.413  46.321  55.531  1.00  0.00     0.003 A 
HETATM   20  C   UNL     1      28.089  45.462  54.478  1.00  0.00     0.029 A 
BRANCH  17  21
HETATM   21  C   UNL     1      31.355  44.470  57.121  1.00  0.00     0.147 C 
HETATM   22  C   UNL     1      31.553  42.963  57.200  1.00  0.00     0.044 C 
BRANCH  21  23
HETATM   23  O   UNL     1      31.105  44.973  58.432  1.00  0.00    -0.391 OA
HETATM   24  H   UNL     1      31.545  45.839  58.484  1.00  0.00     0.210 HD
ENDBRANCH  21  23
ENDBRANCH  17  21
ENDBRANCH  12  15
ENDBRANCH   1  11
BRANCH   8  25
HETATM   25  C   UNL     1      28.699  38.861  49.920  1.00  0.00     0.409 C 
HETATM   26  F   UNL     1      28.820  37.541  49.649  1.00  0.00    -0.169 F 
HETATM   27  F   UNL     1      29.455  39.507  48.995  1.00  0.00    -0.169 F 
HETATM   28  F   UNL     1      29.271  39.086  51.118  1.00  0.00    -0.169 F 
ENDBRANCH   8  25
BRANCH   6  29
HETATM   29  C   UNL     1      27.532  40.038  46.178  1.00  0.00    -0.035 A 
HETATM   30  C   UNL     1      27.981  41.061  45.325  1.00  0.00     0.012 A 
HETATM   31  C   UNL     1      28.638  40.760  44.130  1.00  0.00     0.043 A 
HETATM   32  C   UNL     1      28.848  39.434  43.779  1.00  0.00     0.116 A 
HETATM   33  F   UNL     1      29.461  39.145  42.625  1.00  0.00    -0.206 F 
HETATM   34  C   UNL     1      28.422  38.402  44.606  1.00  0.00     0.043 A 
HETATM   35  C   UNL     1      27.770  38.702  45.805  1.00  0.00     0.012 A 
ENDBRANCH   6  29
TORSDOF 6
ENDMDL
MODEL 10
REMARK VINA RESULT:      -8.9     17.996     19.636
REMARK  6 active torsions:
REMARK  status: ('A' for Active; 'I' for Inactive)
REMARK    1  A    between atoms: C_2  and  O_3 
REMARK    2  A    between atoms: C_2  and  C_4 
REMARK    3  A    between atoms: C_6  and  N_7 
REMARK       I    between atoms: N_7  and  C_8 
REMARK    4  A    between atoms: C_8  and  C_9 
REMARK    5  A    between atoms: C_14  and  C_15 
REMARK    6  A    between atoms: C_23  and  C_24 
ROOT
HETATM    1  C   UNL     1      38.740  47.242  64.958  1.00  0.00     0.148 A 
HETATM    2  N   UNL     1      37.563  46.612  64.716  1.00  0.00    -0.165 NA
HETATM    3  N   UNL     1      37.952  45.374  64.351  1.00  0.00    -0.240 N 
HETATM    4  C   UNL     1      39.301  45.215  64.264  1.00  0.00     0.123 A 
HETATM    5  N   UNL     1      39.834  44.036  63.899  1.00  0.00    -0.366 N 
HETATM    6  C   UNL     1      39.105  43.129  63.020  1.00  0.00     0.118 C 
HETATM    7  C   UNL     1      37.570  43.302  63.065  1.00  0.00     0.066 C 
HETATM    8  C   UNL     1      37.017  44.297  64.106  1.00  0.00     0.221 C 
HETATM    9  C   UNL     1      39.849  46.399  64.669  1.00  0.00     0.089 A 
HETATM   10  H   UNL     1      40.848  43.965  63.801  1.00  0.00     0.161 HD
ENDROOT
BRANCH   1  11
HETATM   11  C   UNL     1      38.823  48.616  65.483  1.00  0.00     0.276 C 
HETATM   12  N   UNL     1      37.709  48.973  66.215  1.00  0.00    -0.322 N 
HETATM   13  H   UNL     1      36.987  48.257  66.237  1.00  0.00     0.169 HD
HETATM   14  O   UNL     1      39.810  49.313  65.265  1.00  0.00    -0.266 OA
BRANCH  12  15
HETATM   15  C   UNL     1      37.498  50.157  66.944  1.00  0.00     0.035 A 
HETATM   16  C   UNL     1      37.842  51.428  66.471  1.00  0.00     0.039 A 
HETATM   17  C   UNL     1      37.640  52.578  67.255  1.00  0.00    -0.028 A 
HETATM   18  C   UNL     1      37.081  52.434  68.531  1.00  0.00     0.010 A 
HETATM   19  C   UNL     1      36.726  51.174  69.008  1.00  0.00     0.003 A 
HETATM   20  C   UNL     1      36.938  50.041  68.219  1.00  0.00     0.029 A 
BRANCH  17  21
HETATM   21  C   UNL     1      38.063  53.930  66.724  1.00  0.00     0.147 C 
HETATM   22  C   UNL     1      37.471  55.074  67.536  1.00  0.00     0.044 C 
BRANCH  21  23
HETATM   23  O   UNL     1      37.665  54.075  65.362  1.00  0.00    -0.391 OA
HETATM   24  H   UNL     1      38.381  53.696  64.824  1.00  0.00     0.210 HD
ENDBRANCH  21  23
ENDBRANCH  17  21
ENDBRANCH  12  15
ENDBRANCH   1  11
BRANCH   8  25
HETATM   25  C   UNL     1      36.650  43.626  65.410  1.00  0.00     0.409 C 
HETATM   26  F   UNL     1      35.381  43.907  65.789  1.00  0.00    -0.169 F 
HETATM   27  F   UNL     1      36.711  42.276  65.267  1.00  0.00    -0.169 F 
HETATM   28  F   UNL     1      37.462  43.947  66.435  1.00  0.00    -0.169 F 
ENDBRANCH   8  25
BRANCH   6  29
HETATM   29  C   UNL     1      39.569  41.705  63.279  1.00  0.00    -0.035 A 
HETATM   30  C   UNL     1      39.179  40.640  62.449  1.00  0.00     0.012 A 
HETATM   31  C   UNL     1      39.575  39.331  62.730  1.00  0.00     0.043 A 
HETATM   32  C   UNL     1      40.362  39.079  63.845  1.00  0.00     0.116 A 
HETATM   33  F   UNL     1      40.727  37.821  64.126  1.00  0.00    -0.206 F 
HETATM   34  C   UNL     1      40.768  40.113  64.679  1.00  0.00     0.043 A 
HETATM   35  C   UNL     1      40.377  41.423  64.395  1.00  0.00     0.012 A 
ENDBRANCH   6  29
TORSDOF 6
ENDMDL
