MODEL 1
REMARK VINA RESULT:     -10.7      0.000      0.000
REMARK  2 active torsions:
REMARK  status: ('A' for Active; 'I' for Inactive)
REMARK    1  A    between atoms: N_4  and  C_5 
REMARK    2  A    between atoms: C_15  and  C_16 
REMARK       I    between atoms: C_16  and  N_17 
ROOT
HETATM    1  C   UNL     1      23.211  43.327  50.141  1.00  0.00     0.073 C 
HETATM    2  C   UNL     1      23.602  44.757  50.134  1.00  0.00     0.069 C 
HETATM    3  N   UNL     1      23.206  45.567  49.140  1.00  0.00    -0.170 NA
HETATM    4  N   UNL     1      23.678  46.806  49.477  1.00  0.00    -0.216 N 
HETATM    5  C   UNL     1      24.554  46.701  50.544  1.00  0.00     0.145 C 
HETATM    6  C   UNL     1      24.438  45.428  51.047  1.00  0.00     0.087 C 
HETATM    7  N   UNL     1      25.422  47.609  51.051  1.00  0.00    -0.349 N 
HETATM    8  C   UNL     1      26.233  47.210  52.099  1.00  0.00     0.111 C 
HETATM    9  C   UNL     1      26.177  45.999  52.702  1.00  0.00     0.099 C 
HETATM   10  C   UNL     1      25.143  45.014  52.244  1.00  0.00     0.205 C 
HETATM   11  O   UNL     1      24.904  43.961  52.823  1.00  0.00    -0.286 OA
HETATM   12  H   UNL     1      25.667  48.482  50.585  1.00  0.00     0.167 HD
ENDROOT
BRANCH   9  13
HETATM   13  C   UNL     1      27.101  45.807  53.848  1.00  0.00     0.264 C 
HETATM   14  N   UNL     1      27.939  44.704  53.866  1.00  0.00    -0.309 N 
HETATM   15  C   UNL     1      28.026  43.565  52.906  1.00  0.00     0.093 C 
HETATM   16  C   UNL     1      28.968  44.513  54.828  1.00  0.00     0.044 A 
HETATM   17  C   UNL     1      28.665  43.987  51.580  1.00  0.00     0.033 C 
HETATM   18  C   UNL     1      28.870  42.473  53.600  1.00  0.00     0.066 C 
HETATM   19  C   UNL     1      29.557  43.257  54.668  1.00  0.00    -0.029 A 
HETATM   20  C   UNL     1      30.597  42.830  55.481  1.00  0.00     0.009 A 
HETATM   21  C   UNL     1      31.069  43.700  56.463  1.00  0.00     0.001 A 
HETATM   22  C   UNL     1      30.489  44.966  56.625  1.00  0.00     0.002 A 
HETATM   23  C   UNL     1      29.428  45.375  55.810  1.00  0.00     0.030 A 
HETATM   24  O   UNL     1      27.119  46.704  54.697  1.00  0.00    -0.267 OA
ENDBRANCH   9  13
BRANCH   4  25
HETATM   25  C   UNL     1      23.218  47.961  48.785  1.00  0.00     0.060 A 
HETATM   26  C   UNL     1      24.065  49.049  48.534  1.00  0.00     0.031 A 
HETATM   27  C   UNL     1      23.574  50.188  47.887  1.00  0.00     0.002 A 
HETATM   28  C   UNL     1      22.239  50.249  47.493  1.00  0.00     0.000 A 
HETATM   29  C   UNL     1      21.387  49.178  47.753  1.00  0.00     0.002 A 
HETATM   30  C   UNL     1      21.869  48.042  48.404  1.00  0.00     0.031 A 
ENDBRANCH   4  25
TORSDOF 2
ENDMDL
MODEL 2
REMARK VINA RESULT:     -10.7      2.263      3.939
REMARK  2 active torsions:
REMARK  status: ('A' for Active; 'I' for Inactive)
REMARK    1  A    between atoms: N_4  and  C_5 
REMARK    2  A    between atoms: C_15  and  C_16 
REMARK       I    between atoms: C_16  and  N_17 
ROOT
HETATM    1  C   UNL     1      27.244  50.207  48.664  1.00  0.00     0.073 C 
HETATM    2  C   UNL     1      25.963  49.505  48.920  1.00  0.00     0.069 C 
HETATM    3  N   UNL     1      24.807  50.186  48.949  1.00  0.00    -0.170 NA
HETATM    4  N   UNL     1      23.837  49.239  49.138  1.00  0.00    -0.216 N 
HETATM    5  C   UNL     1      24.422  48.026  49.458  1.00  0.00     0.145 C 
HETATM    6  C   UNL     1      25.769  48.142  49.218  1.00  0.00     0.087 C 
HETATM    7  N   UNL     1      23.864  46.893  49.948  1.00  0.00    -0.349 N 
HETATM    8  C   UNL     1      24.705  45.833  50.237  1.00  0.00     0.111 C 
HETATM    9  C   UNL     1      26.038  45.819  50.004  1.00  0.00     0.099 C 
HETATM   10  C   UNL     1      26.668  47.012  49.349  1.00  0.00     0.205 C 
HETATM   11  O   UNL     1      27.826  47.037  48.951  1.00  0.00    -0.286 OA
HETATM   12  H   UNL     1      22.913  46.841  50.313  1.00  0.00     0.167 HD
ENDROOT
BRANCH   9  13
HETATM   13  C   UNL     1      26.737  44.553  50.338  1.00  0.00     0.264 C 
HETATM   14  N   UNL     1      27.155  44.330  51.640  1.00  0.00    -0.309 N 
HETATM   15  C   UNL     1      27.084  45.236  52.824  1.00  0.00     0.093 C 
HETATM   16  C   UNL     1      27.685  43.094  52.098  1.00  0.00     0.044 A 
HETATM   17  C   UNL     1      25.651  45.380  53.344  1.00  0.00     0.033 C 
HETATM   18  C   UNL     1      28.000  44.617  53.902  1.00  0.00     0.066 C 
HETATM   19  C   UNL     1      28.134  43.212  53.414  1.00  0.00    -0.029 A 
HETATM   20  C   UNL     1      28.687  42.138  54.096  1.00  0.00     0.009 A 
HETATM   21  C   UNL     1      28.769  40.910  53.442  1.00  0.00     0.001 A 
HETATM   22  C   UNL     1      28.313  40.780  52.123  1.00  0.00     0.002 A 
HETATM   23  C   UNL     1      27.774  41.877  51.441  1.00  0.00     0.030 A 
HETATM   24  O   UNL     1      26.837  43.723  49.429  1.00  0.00    -0.267 OA
ENDBRANCH   9  13
BRANCH   4  25
HETATM   25  C   UNL     1      22.466  49.572  48.953  1.00  0.00     0.060 A 
HETATM   26  C   UNL     1      21.673  48.905  48.010  1.00  0.00     0.031 A 
HETATM   27  C   UNL     1      20.339  49.281  47.822  1.00  0.00     0.002 A 
HETATM   28  C   UNL     1      19.793  50.323  48.568  1.00  0.00     0.000 A 
HETATM   29  C   UNL     1      20.579  51.001  49.496  1.00  0.00     0.002 A 
HETATM   30  C   UNL     1      21.913  50.635  49.683  1.00  0.00     0.031 A 
ENDBRANCH   4  25
TORSDOF 2
ENDMDL
MODEL 3
REMARK VINA RESULT:     -10.6      1.785      2.846
REMARK  2 active torsions:
REMARK  status: ('A' for Active; 'I' for Inactive)
REMARK    1  A    between atoms: N_4  and  C_5 
REMARK    2  A    between atoms: C_15  and  C_16 
REMARK       I    between atoms: C_16  and  N_17 
ROOT
HETATM    1  C   UNL     1      21.785  44.079  47.925  1.00  0.00     0.073 C 
HETATM    2  C   UNL     1      22.289  45.384  48.415  1.00  0.00     0.069 C 
HETATM    3  N   UNL     1      21.662  46.524  48.085  1.00  0.00    -0.170 NA
HETATM    4  N   UNL     1      22.339  47.511  48.748  1.00  0.00    -0.216 N 
HETATM    5  C   UNL     1      23.508  47.000  49.284  1.00  0.00     0.145 C 
HETATM    6  C   UNL     1      23.444  45.631  49.180  1.00  0.00     0.087 C 
HETATM    7  N   UNL     1      24.580  47.642  49.807  1.00  0.00    -0.349 N 
HETATM    8  C   UNL     1      25.654  46.873  50.221  1.00  0.00     0.111 C 
HETATM    9  C   UNL     1      25.686  45.520  50.206  1.00  0.00     0.099 C 
HETATM   10  C   UNL     1      24.468  44.775  49.747  1.00  0.00     0.205 C 
HETATM   11  O   UNL     1      24.336  43.561  49.845  1.00  0.00    -0.286 OA
HETATM   12  H   UNL     1      24.738  48.645  49.721  1.00  0.00     0.167 HD
ENDROOT
BRANCH   9  13
HETATM   13  C   UNL     1      26.919  44.899  50.752  1.00  0.00     0.264 C 
HETATM   14  N   UNL     1      27.146  44.930  52.118  1.00  0.00    -0.309 N 
HETATM   15  C   UNL     1      26.349  45.585  53.196  1.00  0.00     0.093 C 
HETATM   16  C   UNL     1      28.205  44.230  52.757  1.00  0.00     0.044 A 
HETATM   17  C   UNL     1      25.037  44.843  53.465  1.00  0.00     0.033 C 
HETATM   18  C   UNL     1      27.243  45.595  54.455  1.00  0.00     0.066 C 
HETATM   19  C   UNL     1      28.256  44.553  54.114  1.00  0.00    -0.029 A 
HETATM   20  C   UNL     1      29.199  43.993  54.963  1.00  0.00     0.009 A 
HETATM   21  C   UNL     1      30.098  43.067  54.435  1.00  0.00     0.001 A 
HETATM   22  C   UNL     1      30.049  42.730  53.076  1.00  0.00     0.002 A 
HETATM   23  C   UNL     1      29.104  43.318  52.227  1.00  0.00     0.030 A 
HETATM   24  O   UNL     1      27.645  44.313  49.944  1.00  0.00    -0.267 OA
ENDBRANCH   9  13
BRANCH   4  25
HETATM   25  C   UNL     1      21.787  48.819  48.842  1.00  0.00     0.060 A 
HETATM   26  C   UNL     1      20.518  49.039  49.393  1.00  0.00     0.031 A 
HETATM   27  C   UNL     1      19.985  50.332  49.435  1.00  0.00     0.002 A 
HETATM   28  C   UNL     1      20.710  51.406  48.924  1.00  0.00     0.000 A 
HETATM   29  C   UNL     1      21.966  51.193  48.360  1.00  0.00     0.002 A 
HETATM   30  C   UNL     1      22.501  49.904  48.310  1.00  0.00     0.031 A 
ENDBRANCH   4  25
TORSDOF 2
ENDMDL
MODEL 4
REMARK VINA RESULT:     -10.3      1.746      8.486
REMARK  2 active torsions:
REMARK  status: ('A' for Active; 'I' for Inactive)
REMARK    1  A    between atoms: N_4  and  C_5 
REMARK    2  A    between atoms: C_15  and  C_16 
REMARK       I    between atoms: C_16  and  N_17 
ROOT
HETATM    1  C   UNL     1      28.340  41.495  51.265  1.00  0.00     0.073 C 
HETATM    2  C   UNL     1      28.381  42.597  52.257  1.00  0.00     0.069 C 
HETATM    3  N   UNL     1      29.064  42.455  53.403  1.00  0.00    -0.170 NA
HETATM    4  N   UNL     1      28.950  43.661  54.040  1.00  0.00    -0.216 N 
HETATM    5  C   UNL     1      28.009  44.445  53.395  1.00  0.00     0.145 C 
HETATM    6  C   UNL     1      27.715  43.836  52.199  1.00  0.00     0.087 C 
HETATM    7  N   UNL     1      27.409  45.592  53.795  1.00  0.00    -0.349 N 
HETATM    8  C   UNL     1      26.447  46.140  52.965  1.00  0.00     0.111 C 
HETATM    9  C   UNL     1      26.107  45.652  51.749  1.00  0.00     0.099 C 
HETATM   10  C   UNL     1      26.839  44.453  51.223  1.00  0.00     0.205 C 
HETATM   11  O   UNL     1      26.721  44.033  50.079  1.00  0.00    -0.286 OA
HETATM   12  H   UNL     1      27.461  45.958  54.745  1.00  0.00     0.167 HD
ENDROOT
BRANCH   9  13
HETATM   13  C   UNL     1      25.090  46.434  51.003  1.00  0.00     0.264 C 
HETATM   14  N   UNL     1      25.495  47.500  50.217  1.00  0.00    -0.309 N 
HETATM   15  C   UNL     1      26.859  48.079  50.037  1.00  0.00     0.093 C 
HETATM   16  C   UNL     1      24.628  48.208  49.341  1.00  0.00     0.044 A 
HETATM   17  C   UNL     1      27.760  47.164  49.203  1.00  0.00     0.033 C 
HETATM   18  C   UNL     1      26.665  49.444  49.340  1.00  0.00     0.066 C 
HETATM   19  C   UNL     1      25.288  49.304  48.782  1.00  0.00    -0.029 A 
HETATM   20  C   UNL     1      24.659  50.153  47.883  1.00  0.00     0.009 A 
HETATM   21  C   UNL     1      23.342  49.877  47.522  1.00  0.00     0.001 A 
HETATM   22  C   UNL     1      22.674  48.774  48.072  1.00  0.00     0.002 A 
HETATM   23  C   UNL     1      23.315  47.937  48.993  1.00  0.00     0.030 A 
HETATM   24  O   UNL     1      23.925  46.030  51.071  1.00  0.00    -0.267 OA
ENDBRANCH   9  13
BRANCH   4  25
HETATM   25  C   UNL     1      29.772  43.959  55.162  1.00  0.00     0.060 A 
HETATM   26  C   UNL     1      30.723  43.045  55.635  1.00  0.00     0.031 A 
HETATM   27  C   UNL     1      31.489  43.349  56.766  1.00  0.00     0.002 A 
HETATM   28  C   UNL     1      31.307  44.560  57.430  1.00  0.00     0.000 A 
HETATM   29  C   UNL     1      30.353  45.468  56.975  1.00  0.00     0.002 A 
HETATM   30  C   UNL     1      29.581  45.167  55.852  1.00  0.00     0.031 A 
ENDBRANCH   4  25
TORSDOF 2
ENDMDL
MODEL 5
REMARK VINA RESULT:     -10.0      2.222      3.786
REMARK  2 active torsions:
REMARK  status: ('A' for Active; 'I' for Inactive)
REMARK    1  A    between atoms: N_4  and  C_5 
REMARK    2  A    between atoms: C_15  and  C_16 
REMARK       I    between atoms: C_16  and  N_17 
ROOT
HETATM    1  C   UNL     1      24.468  49.596  48.755  1.00  0.00     0.073 C 
HETATM    2  C   UNL     1      23.758  48.303  48.901  1.00  0.00     0.069 C 
HETATM    3  N   UNL     1      22.431  48.230  48.715  1.00  0.00    -0.170 NA
HETATM    4  N   UNL     1      22.122  46.905  48.858  1.00  0.00    -0.216 N 
HETATM    5  C   UNL     1      23.214  46.219  49.361  1.00  0.00     0.145 C 
HETATM    6  C   UNL     1      24.296  47.062  49.293  1.00  0.00     0.087 C 
HETATM    7  N   UNL     1      23.296  44.967  49.873  1.00  0.00    -0.349 N 
HETATM    8  C   UNL     1      24.520  44.552  50.366  1.00  0.00     0.111 C 
HETATM    9  C   UNL     1      25.661  45.278  50.314  1.00  0.00     0.099 C 
HETATM   10  C   UNL     1      25.631  46.619  49.643  1.00  0.00     0.205 C 
HETATM   11  O   UNL     1      26.634  47.281  49.402  1.00  0.00    -0.286 OA
HETATM   12  H   UNL     1      22.485  44.398  50.113  1.00  0.00     0.167 HD
ENDROOT
BRANCH   9  13
HETATM   13  C   UNL     1      26.874  44.612  50.850  1.00  0.00     0.264 C 
HETATM   14  N   UNL     1      27.231  44.813  52.174  1.00  0.00    -0.309 N 
HETATM   15  C   UNL     1      26.605  45.700  53.198  1.00  0.00     0.093 C 
HETATM   16  C   UNL     1      28.272  44.101  52.827  1.00  0.00     0.044 A 
HETATM   17  C   UNL     1      25.258  45.152  53.679  1.00  0.00     0.033 C 
HETATM   18  C   UNL     1      27.610  45.793  54.367  1.00  0.00     0.066 C 
HETATM   19  C   UNL     1      28.481  44.608  54.111  1.00  0.00    -0.029 A 
HETATM   20  C   UNL     1      29.441  44.076  54.959  1.00  0.00     0.009 A 
HETATM   21  C   UNL     1      30.192  42.992  54.510  1.00  0.00     0.001 A 
HETATM   22  C   UNL     1      29.984  42.470  53.226  1.00  0.00     0.002 A 
HETATM   23  C   UNL     1      29.025  43.029  52.374  1.00  0.00     0.030 A 
HETATM   24  O   UNL     1      27.462  43.840  50.087  1.00  0.00    -0.267 OA
ENDBRANCH   9  13
BRANCH   4  25
HETATM   25  C   UNL     1      20.843  46.421  48.464  1.00  0.00     0.060 A 
HETATM   26  C   UNL     1      20.708  45.284  47.657  1.00  0.00     0.031 A 
HETATM   27  C   UNL     1      19.440  44.856  47.252  1.00  0.00     0.002 A 
HETATM   28  C   UNL     1      18.303  45.561  47.644  1.00  0.00     0.000 A 
HETATM   29  C   UNL     1      18.430  46.701  48.433  1.00  0.00     0.002 A 
HETATM   30  C   UNL     1      19.694  47.138  48.835  1.00  0.00     0.031 A 
ENDBRANCH   4  25
TORSDOF 2
ENDMDL
MODEL 6
REMARK VINA RESULT:      -9.9      1.890      8.551
REMARK  2 active torsions:
REMARK  status: ('A' for Active; 'I' for Inactive)
REMARK    1  A    between atoms: N_4  and  C_5 
REMARK    2  A    between atoms: C_15  and  C_16 
REMARK       I    between atoms: C_16  and  N_17 
ROOT
HETATM    1  C   UNL     1      28.768  40.491  51.654  1.00  0.00     0.073 C 
HETATM    2  C   UNL     1      28.520  41.686  52.495  1.00  0.00     0.069 C 
HETATM    3  N   UNL     1      29.224  41.884  53.620  1.00  0.00    -0.170 NA
HETATM    4  N   UNL     1      28.795  43.091  54.103  1.00  0.00    -0.216 N 
HETATM    5  C   UNL     1      27.674  43.505  53.405  1.00  0.00     0.145 C 
HETATM    6  C   UNL     1      27.546  42.685  52.310  1.00  0.00     0.087 C 
HETATM    7  N   UNL     1      26.792  44.495  53.682  1.00  0.00    -0.349 N 
HETATM    8  C   UNL     1      25.712  44.652  52.831  1.00  0.00     0.111 C 
HETATM    9  C   UNL     1      25.507  43.934  51.702  1.00  0.00     0.099 C 
HETATM   10  C   UNL     1      26.530  42.913  51.301  1.00  0.00     0.205 C 
HETATM   11  O   UNL     1      26.521  42.328  50.225  1.00  0.00    -0.286 OA
HETATM   12  H   UNL     1      26.751  44.985  54.575  1.00  0.00     0.167 HD
ENDROOT
BRANCH   9  13
HETATM   13  C   UNL     1      24.312  44.313  50.907  1.00  0.00     0.264 C 
HETATM   14  N   UNL     1      24.268  45.556  50.296  1.00  0.00    -0.309 N 
HETATM   15  C   UNL     1      25.248  46.679  50.365  1.00  0.00     0.093 C 
HETATM   16  C   UNL     1      23.251  45.951  49.386  1.00  0.00     0.044 A 
HETATM   17  C   UNL     1      26.522  46.373  49.574  1.00  0.00     0.033 C 
HETATM   18  C   UNL     1      24.529  47.920  49.791  1.00  0.00     0.066 C 
HETATM   19  C   UNL     1      23.403  47.294  49.038  1.00  0.00    -0.029 A 
HETATM   20  C   UNL     1      22.538  47.921  48.152  1.00  0.00     0.009 A 
HETATM   21  C   UNL     1      21.510  47.169  47.588  1.00  0.00     0.001 A 
HETATM   22  C   UNL     1      21.354  45.818  47.926  1.00  0.00     0.002 A 
HETATM   23  C   UNL     1      22.222  45.204  48.835  1.00  0.00     0.030 A 
HETATM   24  O   UNL     1      23.443  43.446  50.772  1.00  0.00    -0.267 OA
ENDBRANCH   9  13
BRANCH   4  25
HETATM   25  C   UNL     1      29.516  43.743  55.143  1.00  0.00     0.060 A 
HETATM   26  C   UNL     1      29.171  45.031  55.574  1.00  0.00     0.031 A 
HETATM   27  C   UNL     1      29.923  45.663  56.569  1.00  0.00     0.002 A 
HETATM   28  C   UNL     1      31.021  45.019  57.134  1.00  0.00     0.000 A 
HETATM   29  C   UNL     1      31.380  43.745  56.700  1.00  0.00     0.002 A 
HETATM   30  C   UNL     1      30.638  43.111  55.702  1.00  0.00     0.031 A 
ENDBRANCH   4  25
TORSDOF 2
ENDMDL
MODEL 7
REMARK VINA RESULT:      -9.9      2.162      3.371
REMARK  2 active torsions:
REMARK  status: ('A' for Active; 'I' for Inactive)
REMARK    1  A    between atoms: N_4  and  C_5 
REMARK    2  A    between atoms: C_15  and  C_16 
REMARK       I    between atoms: C_16  and  N_17 
ROOT
HETATM    1  C   UNL     1      24.191  49.528  48.595  1.00  0.00     0.073 C 
HETATM    2  C   UNL     1      23.738  48.128  48.780  1.00  0.00     0.069 C 
HETATM    3  N   UNL     1      22.699  47.651  48.078  1.00  0.00    -0.170 NA
HETATM    4  N   UNL     1      22.597  46.335  48.439  1.00  0.00    -0.216 N 
HETATM    5  C   UNL     1      23.415  46.081  49.526  1.00  0.00     0.145 C 
HETATM    6  C   UNL     1      24.230  47.174  49.691  1.00  0.00     0.087 C 
HETATM    7  N   UNL     1      23.459  45.007  50.351  1.00  0.00    -0.349 N 
HETATM    8  C   UNL     1      24.349  45.045  51.410  1.00  0.00     0.111 C 
HETATM    9  C   UNL     1      25.228  46.047  51.646  1.00  0.00     0.099 C 
HETATM   10  C   UNL     1      25.288  47.194  50.682  1.00  0.00     0.205 C 
HETATM   11  O   UNL     1      26.149  48.064  50.715  1.00  0.00    -0.286 OA
HETATM   12  H   UNL     1      22.747  44.278  50.372  1.00  0.00     0.167 HD
ENDROOT
BRANCH   9  13
HETATM   13  C   UNL     1      26.130  45.851  52.808  1.00  0.00     0.264 C 
HETATM   14  N   UNL     1      27.036  44.803  52.796  1.00  0.00    -0.309 N 
HETATM   15  C   UNL     1      27.222  43.725  51.781  1.00  0.00     0.093 C 
HETATM   16  C   UNL     1      28.048  44.624  53.778  1.00  0.00     0.044 A 
HETATM   17  C   UNL     1      27.869  44.256  50.500  1.00  0.00     0.033 C 
HETATM   18  C   UNL     1      28.114  42.652  52.444  1.00  0.00     0.066 C 
HETATM   19  C   UNL     1      28.720  43.418  53.572  1.00  0.00    -0.029 A 
HETATM   20  C   UNL     1      29.762  43.014  54.394  1.00  0.00     0.009 A 
HETATM   21  C   UNL     1      30.150  43.858  55.433  1.00  0.00     0.001 A 
HETATM   22  C   UNL     1      29.487  45.074  55.642  1.00  0.00     0.002 A 
HETATM   23  C   UNL     1      28.425  45.460  54.817  1.00  0.00     0.030 A 
HETATM   24  O   UNL     1      26.068  46.700  53.703  1.00  0.00    -0.267 OA
ENDBRANCH   9  13
BRANCH   4  25
HETATM   25  C   UNL     1      21.771  45.449  47.692  1.00  0.00     0.060 A 
HETATM   26  C   UNL     1      20.373  45.527  47.752  1.00  0.00     0.031 A 
HETATM   27  C   UNL     1      19.587  44.616  47.038  1.00  0.00     0.002 A 
HETATM   28  C   UNL     1      20.189  43.624  46.267  1.00  0.00     0.000 A 
HETATM   29  C   UNL     1      21.577  43.530  46.214  1.00  0.00     0.002 A 
HETATM   30  C   UNL     1      22.368  44.432  46.930  1.00  0.00     0.031 A 
ENDBRANCH   4  25
TORSDOF 2
ENDMDL
MODEL 8
REMARK VINA RESULT:      -9.8      4.038      6.687
REMARK  2 active torsions:
REMARK  status: ('A' for Active; 'I' for Inactive)
REMARK    1  A    between atoms: N_4  and  C_5 
REMARK    2  A    between atoms: C_15  and  C_16 
REMARK       I    between atoms: C_16  and  N_17 
ROOT
HETATM    1  C   UNL     1      25.366  43.727  49.185  1.00  0.00     0.073 C 
HETATM    2  C   UNL     1      26.031  42.444  49.516  1.00  0.00     0.069 C 
HETATM    3  N   UNL     1      25.599  41.294  48.975  1.00  0.00    -0.170 NA
HETATM    4  N   UNL     1      26.462  40.336  49.434  1.00  0.00    -0.216 N 
HETATM    5  C   UNL     1      27.263  40.864  50.432  1.00  0.00     0.145 C 
HETATM    6  C   UNL     1      27.084  42.226  50.425  1.00  0.00     0.087 C 
HETATM    7  N   UNL     1      28.078  40.240  51.316  1.00  0.00    -0.349 N 
HETATM    8  C   UNL     1      28.724  41.021  52.258  1.00  0.00     0.111 C 
HETATM    9  C   UNL     1      28.656  42.371  52.321  1.00  0.00     0.099 C 
HETATM   10  C   UNL     1      27.860  43.102  51.281  1.00  0.00     0.205 C 
HETATM   11  O   UNL     1      27.865  44.320  51.153  1.00  0.00    -0.286 OA
HETATM   12  H   UNL     1      28.082  39.232  51.470  1.00  0.00     0.167 HD
ENDROOT
BRANCH   9  13
HETATM   13  C   UNL     1      29.479  43.008  53.379  1.00  0.00     0.264 C 
HETATM   14  N   UNL     1      28.890  43.918  54.242  1.00  0.00    -0.309 N 
HETATM   15  C   UNL     1      27.498  44.456  54.244  1.00  0.00     0.093 C 
HETATM   16  C   UNL     1      29.543  44.460  55.382  1.00  0.00     0.044 A 
HETATM   17  C   UNL     1      26.484  43.408  54.710  1.00  0.00     0.033 C 
HETATM   18  C   UNL     1      27.503  45.676  55.192  1.00  0.00     0.066 C 
HETATM   19  C   UNL     1      28.748  45.439  55.981  1.00  0.00    -0.029 A 
HETATM   20  C   UNL     1      29.158  46.115  57.120  1.00  0.00     0.009 A 
HETATM   21  C   UNL     1      30.388  45.779  57.683  1.00  0.00     0.001 A 
HETATM   22  C   UNL     1      31.189  44.791  57.094  1.00  0.00     0.002 A 
HETATM   23  C   UNL     1      30.771  44.131  55.933  1.00  0.00     0.030 A 
HETATM   24  O   UNL     1      30.648  42.622  53.475  1.00  0.00    -0.267 OA
ENDBRANCH   9  13
BRANCH   4  25
HETATM   25  C   UNL     1      26.467  39.038  48.851  1.00  0.00     0.060 A 
HETATM   26  C   UNL     1      26.833  37.906  49.590  1.00  0.00     0.031 A 
HETATM   27  C   UNL     1      26.868  36.648  48.979  1.00  0.00     0.002 A 
HETATM   28  C   UNL     1      26.543  36.515  47.631  1.00  0.00     0.000 A 
HETATM   29  C   UNL     1      26.193  37.638  46.885  1.00  0.00     0.002 A 
HETATM   30  C   UNL     1      26.163  38.897  47.487  1.00  0.00     0.031 A 
ENDBRANCH   4  25
TORSDOF 2
ENDMDL
MODEL 9
REMARK VINA RESULT:      -9.6      3.419     10.085
REMARK  2 active torsions:
REMARK  status: ('A' for Active; 'I' for Inactive)
REMARK    1  A    between atoms: N_4  and  C_5 
REMARK    2  A    between atoms: C_15  and  C_16 
REMARK       I    between atoms: C_16  and  N_17 
ROOT
HETATM    1  C   UNL     1      26.503  50.159  48.072  1.00  0.00     0.073 C 
HETATM    2  C   UNL     1      25.871  49.073  48.860  1.00  0.00     0.069 C 
HETATM    3  N   UNL     1      26.620  48.262  49.623  1.00  0.00    -0.170 NA
HETATM    4  N   UNL     1      25.727  47.436  50.251  1.00  0.00    -0.216 N 
HETATM    5  C   UNL     1      24.471  47.590  49.690  1.00  0.00     0.145 C 
HETATM    6  C   UNL     1      24.514  48.700  48.882  1.00  0.00     0.087 C 
HETATM    7  N   UNL     1      23.358  46.829  49.826  1.00  0.00    -0.349 N 
HETATM    8  C   UNL     1      22.241  47.186  49.092  1.00  0.00     0.111 C 
HETATM    9  C   UNL     1      22.154  48.279  48.298  1.00  0.00     0.099 C 
HETATM   10  C   UNL     1      23.328  49.209  48.222  1.00  0.00     0.205 C 
HETATM   11  O   UNL     1      23.296  50.300  47.665  1.00  0.00    -0.286 OA
HETATM   12  H   UNL     1      23.351  45.906  50.257  1.00  0.00     0.167 HD
ENDROOT
BRANCH   9  13
HETATM   13  C   UNL     1      20.837  48.501  47.650  1.00  0.00     0.264 C 
HETATM   14  N   UNL     1      19.849  49.190  48.335  1.00  0.00    -0.309 N 
HETATM   15  C   UNL     1      19.858  49.717  49.731  1.00  0.00     0.093 C 
HETATM   16  C   UNL     1      18.619  49.594  47.750  1.00  0.00     0.044 A 
HETATM   17  C   UNL     1      20.763  50.943  49.870  1.00  0.00     0.033 C 
HETATM   18  C   UNL     1      18.395  50.072  50.073  1.00  0.00     0.066 C 
HETATM   19  C   UNL     1      17.779  50.152  48.715  1.00  0.00    -0.029 A 
HETATM   20  C   UNL     1      16.519  50.635  48.395  1.00  0.00     0.009 A 
HETATM   21  C   UNL     1      16.106  50.574  47.065  1.00  0.00     0.001 A 
HETATM   22  C   UNL     1      16.946  50.023  46.088  1.00  0.00     0.002 A 
HETATM   23  C   UNL     1      18.207  49.523  46.429  1.00  0.00     0.030 A 
HETATM   24  O   UNL     1      20.727  48.116  46.482  1.00  0.00    -0.267 OA
ENDBRANCH   9  13
BRANCH   4  25
HETATM   25  C   UNL     1      26.147  46.623  51.340  1.00  0.00     0.060 A 
HETATM   26  C   UNL     1      26.547  45.294  51.149  1.00  0.00     0.031 A 
HETATM   27  C   UNL     1      26.916  44.506  52.244  1.00  0.00     0.002 A 
HETATM   28  C   UNL     1      26.883  45.037  53.532  1.00  0.00     0.000 A 
HETATM   29  C   UNL     1      26.473  46.353  53.732  1.00  0.00     0.002 A 
HETATM   30  C   UNL     1      26.096  47.142  52.644  1.00  0.00     0.031 A 
ENDBRANCH   4  25
TORSDOF 2
ENDMDL
MODEL 10
REMARK VINA RESULT:      -9.6      2.500      3.968
REMARK  2 active torsions:
REMARK  status: ('A' for Active; 'I' for Inactive)
REMARK    1  A    between atoms: N_4  and  C_5 
REMARK    2  A    between atoms: C_15  and  C_16 
REMARK       I    between atoms: C_16  and  N_17 
ROOT
HETATM    1  C   UNL     1      23.623  48.647  49.419  1.00  0.00     0.073 C 
HETATM    2  C   UNL     1      23.331  47.216  49.159  1.00  0.00     0.069 C 
HETATM    3  N   UNL     1      22.137  46.842  48.677  1.00  0.00    -0.170 NA
HETATM    4  N   UNL     1      22.231  45.489  48.497  1.00  0.00    -0.216 N 
HETATM    5  C   UNL     1      23.390  45.016  49.088  1.00  0.00     0.145 C 
HETATM    6  C   UNL     1      24.158  46.106  49.418  1.00  0.00     0.087 C 
HETATM    7  N   UNL     1      23.773  43.745  49.360  1.00  0.00    -0.349 N 
HETATM    8  C   UNL     1      24.975  43.562  50.022  1.00  0.00     0.111 C 
HETATM    9  C   UNL     1      25.831  44.555  50.358  1.00  0.00     0.099 C 
HETATM   10  C   UNL     1      25.494  45.962  49.962  1.00  0.00     0.205 C 
HETATM   11  O   UNL     1      26.269  46.904  50.075  1.00  0.00    -0.286 OA
HETATM   12  H   UNL     1      23.149  42.940  49.305  1.00  0.00     0.167 HD
ENDROOT
BRANCH   9  13
HETATM   13  C   UNL     1      27.092  44.124  51.011  1.00  0.00     0.264 C 
HETATM   14  N   UNL     1      27.361  44.535  52.307  1.00  0.00    -0.309 N 
HETATM   15  C   UNL     1      26.584  45.456  53.188  1.00  0.00     0.093 C 
HETATM   16  C   UNL     1      28.453  44.052  53.077  1.00  0.00     0.044 A 
HETATM   17  C   UNL     1      25.297  44.804  53.698  1.00  0.00     0.033 C 
HETATM   18  C   UNL     1      27.516  45.825  54.363  1.00  0.00     0.066 C 
HETATM   19  C   UNL     1      28.539  44.740  54.288  1.00  0.00    -0.029 A 
HETATM   20  C   UNL     1      29.519  44.448  55.225  1.00  0.00     0.009 A 
HETATM   21  C   UNL     1      30.419  43.422  54.944  1.00  0.00     0.001 A 
HETATM   22  C   UNL     1      30.335  42.720  53.733  1.00  0.00     0.002 A 
HETATM   23  C   UNL     1      29.353  43.038  52.789  1.00  0.00     0.030 A 
HETATM   24  O   UNL     1      27.805  43.345  50.372  1.00  0.00    -0.267 OA
ENDBRANCH   9  13
BRANCH   4  25
HETATM   25  C   UNL     1      21.239  44.795  47.749  1.00  0.00     0.060 A 
HETATM   26  C   UNL     1      21.577  43.745  46.884  1.00  0.00     0.031 A 
HETATM   27  C   UNL     1      20.586  43.109  46.131  1.00  0.00     0.002 A 
HETATM   28  C   UNL     1      19.257  43.517  46.232  1.00  0.00     0.000 A 
HETATM   29  C   UNL     1      18.916  44.570  47.077  1.00  0.00     0.002 A 
HETATM   30  C   UNL     1      19.902  45.214  47.826  1.00  0.00     0.031 A 
ENDBRANCH   4  25
TORSDOF 2
ENDMDL
