MODEL 1
REMARK VINA RESULT:     -10.1      0.000      0.000
REMARK  6 active torsions:
REMARK  status: ('A' for Active; 'I' for Inactive)
REMARK    1  A    between atoms: C_2  and  C_3 
REMARK    2  A    between atoms: C_3  and  C_4 
REMARK       I    between atoms: C_4  and  N_5 
REMARK    3  A    between atoms: N_5  and  C_6 
REMARK    4  A    between atoms: C_8  and  C_9 
REMARK    5  A    between atoms: C_9  and  N_10 
REMARK       I    between atoms: N_10  and  C_11 
REMARK    6  A    between atoms: C_11  and  C_12 
ROOT
HETATM    1  C   UNL     1      25.925  46.645  50.490  1.00  0.00     0.161 C 
ENDROOT
BRANCH   1   2
HETATM    2  C   UNL     1      25.770  47.892  49.662  1.00  0.00    -0.038 A 
HETATM    3  C   UNL     1      24.485  48.370  49.345  1.00  0.00     0.038 A 
HETATM    4  C   UNL     1      24.318  49.537  48.597  1.00  0.00     0.035 A 
HETATM    5  C   UNL     1      25.455  50.228  48.159  1.00  0.00     0.029 A 
HETATM    6  C   UNL     1      26.735  49.748  48.445  1.00  0.00     0.003 A 
HETATM    7  C   UNL     1      26.892  48.581  49.190  1.00  0.00     0.009 A 
BRANCH   4   8
HETATM    8  N   UNL     1      23.062  50.087  48.264  1.00  0.00    -0.327 N 
HETATM    9  C   UNL     1      22.183  50.748  49.102  1.00  0.00     0.226 C 
HETATM   10  O   UNL     1      22.340  50.946  50.303  1.00  0.00    -0.273 OA
HETATM   11  H   UNL     1      22.762  49.936  47.310  1.00  0.00     0.169 HD
BRANCH   9  12
HETATM   12  C   UNL     1      20.927  51.276  48.404  1.00  0.00     0.074 C 
HETATM   13  C   UNL     1      20.460  50.272  47.350  1.00  0.00     0.020 C 
BRANCH  12  14
HETATM   14  C   UNL     1      19.783  51.632  49.366  1.00  0.00     0.009 C 
HETATM   15  C   UNL     1      18.699  52.479  48.712  1.00  0.00     0.006 C 
ENDBRANCH  12  14
ENDBRANCH   9  12
ENDBRANCH   4   8
ENDBRANCH   1   2
BRANCH   1  16
HETATM   16  N   UNL     1      26.349  46.944  51.829  1.00  0.00    -0.351 N 
HETATM   17  C   UNL     1      25.929  46.181  52.896  1.00  0.00     0.273 C 
HETATM   18  O   UNL     1      25.074  45.306  52.797  1.00  0.00    -0.266 OA
HETATM   19  H   UNL     1      27.141  47.556  52.004  1.00  0.00     0.163 HD
BRANCH  17  20
HETATM   20  C   UNL     1      26.623  46.501  54.154  1.00  0.00     0.157 A 
HETATM   21  N   UNL     1      26.230  47.530  54.937  1.00  0.00    -0.168 NA
HETATM   22  N   UNL     1      27.098  47.503  55.963  1.00  0.00    -0.277 N 
HETATM   23  H   UNL     1      26.999  48.197  56.693  1.00  0.00     0.189 HD
HETATM   24  C   UNL     1      28.040  46.515  55.883  1.00  0.00     0.063 A 
HETATM   25  C   UNL     1      27.757  45.835  54.706  1.00  0.00     0.029 A 
HETATM   26  C   UNL     1      29.098  46.172  56.728  1.00  0.00     0.032 A 
HETATM   27  C   UNL     1      28.575  44.748  54.337  1.00  0.00     0.023 A 
HETATM   28  C   UNL     1      29.652  44.379  55.163  1.00  0.00    -0.061 A 
HETATM   29  C   UNL     1      29.900  45.090  56.343  1.00  0.00     0.009 A 
HETATM   30  C   UNL     1      30.528  43.229  54.758  1.00  0.00     0.048 C 
ENDBRANCH  17  20
ENDBRANCH   1  16
TORSDOF 6
ENDMDL
MODEL 2
REMARK VINA RESULT:      -9.8      1.725      2.488
REMARK  6 active torsions:
REMARK  status: ('A' for Active; 'I' for Inactive)
REMARK    1  A    between atoms: C_2  and  C_3 
REMARK    2  A    between atoms: C_3  and  C_4 
REMARK       I    between atoms: C_4  and  N_5 
REMARK    3  A    between atoms: N_5  and  C_6 
REMARK    4  A    between atoms: C_8  and  C_9 
REMARK    5  A    between atoms: C_9  and  N_10 
REMARK       I    between atoms: N_10  and  C_11 
REMARK    6  A    between atoms: C_11  and  C_12 
ROOT
HETATM    1  C   UNL     1      24.759  45.439  50.627  1.00  0.00     0.161 C 
ENDROOT
BRANCH   1   2
HETATM    2  C   UNL     1      24.918  46.798  50.000  1.00  0.00    -0.038 A 
HETATM    3  C   UNL     1      23.784  47.508  49.565  1.00  0.00     0.038 A 
HETATM    4  C   UNL     1      23.906  48.780  49.003  1.00  0.00     0.035 A 
HETATM    5  C   UNL     1      25.182  49.341  48.871  1.00  0.00     0.029 A 
HETATM    6  C   UNL     1      26.317  48.634  49.275  1.00  0.00     0.003 A 
HETATM    7  C   UNL     1      26.186  47.364  49.833  1.00  0.00     0.009 A 
BRANCH   4   8
HETATM    8  N   UNL     1      22.812  49.558  48.567  1.00  0.00    -0.327 N 
HETATM    9  C   UNL     1      22.162  50.560  49.264  1.00  0.00     0.226 C 
HETATM   10  O   UNL     1      22.416  50.927  50.408  1.00  0.00    -0.273 OA
HETATM   11  H   UNL     1      22.443  49.316  47.658  1.00  0.00     0.169 HD
BRANCH   9  12
HETATM   12  C   UNL     1      21.046  51.251  48.475  1.00  0.00     0.074 C 
HETATM   13  C   UNL     1      20.594  50.353  47.324  1.00  0.00     0.020 C 
BRANCH  12  14
HETATM   14  C   UNL     1      19.850  51.682  49.337  1.00  0.00     0.009 C 
HETATM   15  C   UNL     1      18.803  52.462  48.552  1.00  0.00     0.006 C 
ENDBRANCH  12  14
ENDBRANCH   9  12
ENDBRANCH   4   8
ENDBRANCH   1   2
BRANCH   1  16
HETATM   16  N   UNL     1      25.998  44.953  51.166  1.00  0.00    -0.351 N 
HETATM   17  C   UNL     1      26.035  44.259  52.355  1.00  0.00     0.273 C 
HETATM   18  O   UNL     1      25.058  44.137  53.087  1.00  0.00    -0.266 OA
HETATM   19  H   UNL     1      26.833  44.891  50.589  1.00  0.00     0.163 HD
BRANCH  17  20
HETATM   20  C   UNL     1      27.348  43.662  52.646  1.00  0.00     0.157 A 
HETATM   21  N   UNL     1      27.850  42.657  51.894  1.00  0.00    -0.168 NA
HETATM   22  N   UNL     1      29.033  42.385  52.470  1.00  0.00    -0.277 N 
HETATM   23  H   UNL     1      29.603  41.649  52.071  1.00  0.00     0.189 HD
HETATM   24  C   UNL     1      29.323  43.155  53.562  1.00  0.00     0.063 A 
HETATM   25  C   UNL     1      28.236  44.007  53.707  1.00  0.00     0.029 A 
HETATM   26  C   UNL     1      30.425  43.170  54.420  1.00  0.00     0.032 A 
HETATM   27  C   UNL     1      28.237  44.932  54.770  1.00  0.00     0.023 A 
HETATM   28  C   UNL     1      29.328  44.971  55.656  1.00  0.00    -0.061 A 
HETATM   29  C   UNL     1      30.405  44.095  55.472  1.00  0.00     0.009 A 
HETATM   30  C   UNL     1      29.317  45.949  56.794  1.00  0.00     0.048 C 
ENDBRANCH  17  20
ENDBRANCH   1  16
TORSDOF 6
ENDMDL
MODEL 3
REMARK VINA RESULT:      -9.1      1.911      2.256
REMARK  6 active torsions:
REMARK  status: ('A' for Active; 'I' for Inactive)
REMARK    1  A    between atoms: C_2  and  C_3 
REMARK    2  A    between atoms: C_3  and  C_4 
REMARK       I    between atoms: C_4  and  N_5 
REMARK    3  A    between atoms: N_5  and  C_6 
REMARK    4  A    between atoms: C_8  and  C_9 
REMARK    5  A    between atoms: C_9  and  N_10 
REMARK       I    between atoms: N_10  and  C_11 
REMARK    6  A    between atoms: C_11  and  C_12 
ROOT
HETATM    1  C   UNL     1      25.774  47.439  49.783  1.00  0.00     0.161 C 
ENDROOT
BRANCH   1   2
HETATM    2  C   UNL     1      24.703  48.383  49.310  1.00  0.00    -0.038 A 
HETATM    3  C   UNL     1      23.360  48.158  49.665  1.00  0.00     0.038 A 
HETATM    4  C   UNL     1      22.353  49.034  49.256  1.00  0.00     0.035 A 
HETATM    5  C   UNL     1      22.699  50.145  48.476  1.00  0.00     0.029 A 
HETATM    6  C   UNL     1      24.025  50.363  48.095  1.00  0.00     0.003 A 
HETATM    7  C   UNL     1      25.023  49.482  48.506  1.00  0.00     0.009 A 
BRANCH   4   8
HETATM    8  N   UNL     1      20.992  48.884  49.595  1.00  0.00    -0.327 N 
HETATM    9  C   UNL     1      20.061  48.055  48.996  1.00  0.00     0.226 C 
HETATM   10  O   UNL     1      20.263  47.318  48.035  1.00  0.00    -0.273 OA
HETATM   11  H   UNL     1      20.660  49.490  50.333  1.00  0.00     0.169 HD
BRANCH   9  12
HETATM   12  C   UNL     1      18.677  48.089  49.650  1.00  0.00     0.074 C 
HETATM   13  C   UNL     1      18.750  48.845  50.977  1.00  0.00     0.020 C 
BRANCH  12  14
HETATM   14  C   UNL     1      17.577  48.669  48.748  1.00  0.00     0.009 C 
HETATM   15  C   UNL     1      17.898  50.071  48.248  1.00  0.00     0.006 C 
ENDBRANCH  12  14
ENDBRANCH   9  12
ENDBRANCH   4   8
ENDBRANCH   1   2
BRANCH   1  16
HETATM   16  N   UNL     1      26.067  47.621  51.177  1.00  0.00    -0.351 N 
HETATM   17  C   UNL     1      25.632  46.717  52.121  1.00  0.00     0.273 C 
HETATM   18  O   UNL     1      24.863  45.796  51.860  1.00  0.00    -0.266 OA
HETATM   19  H   UNL     1      26.789  48.268  51.482  1.00  0.00     0.163 HD
BRANCH  17  20
HETATM   20  C   UNL     1      26.197  46.949  53.460  1.00  0.00     0.157 A 
HETATM   21  N   UNL     1      25.784  47.977  54.234  1.00  0.00    -0.168 NA
HETATM   22  N   UNL     1      26.528  47.858  55.348  1.00  0.00    -0.277 N 
HETATM   23  H   UNL     1      26.391  48.534  56.089  1.00  0.00     0.189 HD
HETATM   24  C   UNL     1      27.407  46.812  55.335  1.00  0.00     0.063 A 
HETATM   25  C   UNL     1      27.217  46.190  54.108  1.00  0.00     0.029 A 
HETATM   26  C   UNL     1      28.338  46.371  56.278  1.00  0.00     0.032 A 
HETATM   27  C   UNL     1      28.000  45.062  53.790  1.00  0.00     0.023 A 
HETATM   28  C   UNL     1      28.951  44.595  54.715  1.00  0.00    -0.061 A 
HETATM   29  C   UNL     1      29.108  45.250  55.943  1.00  0.00     0.009 A 
HETATM   30  C   UNL     1      29.791  43.401  54.365  1.00  0.00     0.048 C 
ENDBRANCH  17  20
ENDBRANCH   1  16
TORSDOF 6
ENDMDL
MODEL 4
REMARK VINA RESULT:      -8.8      2.516     10.400
REMARK  6 active torsions:
REMARK  status: ('A' for Active; 'I' for Inactive)
REMARK    1  A    between atoms: C_2  and  C_3 
REMARK    2  A    between atoms: C_3  and  C_4 
REMARK       I    between atoms: C_4  and  N_5 
REMARK    3  A    between atoms: N_5  and  C_6 
REMARK    4  A    between atoms: C_8  and  C_9 
REMARK    5  A    between atoms: C_9  and  N_10 
REMARK       I    between atoms: N_10  and  C_11 
REMARK    6  A    between atoms: C_11  and  C_12 
ROOT
HETATM    1  C   UNL     1      24.809  47.137  50.893  1.00  0.00     0.161 C 
ENDROOT
BRANCH   1   2
HETATM    2  C   UNL     1      25.159  45.701  51.172  1.00  0.00    -0.038 A 
HETATM    3  C   UNL     1      26.377  45.383  51.799  1.00  0.00     0.038 A 
HETATM    4  C   UNL     1      26.712  44.058  52.088  1.00  0.00     0.035 A 
HETATM    5  C   UNL     1      25.815  43.042  51.736  1.00  0.00     0.029 A 
HETATM    6  C   UNL     1      24.614  43.344  51.088  1.00  0.00     0.003 A 
HETATM    7  C   UNL     1      24.290  44.668  50.803  1.00  0.00     0.009 A 
BRANCH   4   8
HETATM    8  N   UNL     1      27.903  43.669  52.736  1.00  0.00    -0.327 N 
HETATM    9  C   UNL     1      28.192  43.750  54.086  1.00  0.00     0.226 C 
HETATM   10  O   UNL     1      27.457  44.208  54.957  1.00  0.00    -0.273 OA
HETATM   11  H   UNL     1      28.638  43.336  52.128  1.00  0.00     0.169 HD
BRANCH   9  12
HETATM   12  C   UNL     1      29.561  43.182  54.470  1.00  0.00     0.074 C 
HETATM   13  C   UNL     1      30.355  42.847  53.208  1.00  0.00     0.020 C 
BRANCH  12  14
HETATM   14  C   UNL     1      30.373  44.094  55.403  1.00  0.00     0.009 C 
HETATM   15  C   UNL     1      31.167  43.320  56.447  1.00  0.00     0.006 C 
ENDBRANCH  12  14
ENDBRANCH   9  12
ENDBRANCH   4   8
ENDBRANCH   1   2
BRANCH   1  16
HETATM   16  N   UNL     1      23.646  47.250  50.059  1.00  0.00    -0.351 N 
HETATM   17  C   UNL     1      23.456  48.344  49.244  1.00  0.00     0.273 C 
HETATM   18  O   UNL     1      24.177  49.337  49.281  1.00  0.00    -0.266 OA
HETATM   19  H   UNL     1      23.061  46.442  49.861  1.00  0.00     0.163 HD
BRANCH  17  20
HETATM   20  C   UNL     1      22.326  48.194  48.313  1.00  0.00     0.157 A 
HETATM   21  N   UNL     1      22.201  47.105  47.522  1.00  0.00    -0.168 NA
HETATM   22  N   UNL     1      21.076  47.341  46.826  1.00  0.00    -0.277 N 
HETATM   23  H   UNL     1      20.773  46.646  46.154  1.00  0.00     0.189 HD
HETATM   24  C   UNL     1      20.467  48.530  47.118  1.00  0.00     0.063 A 
HETATM   25  C   UNL     1      21.263  49.117  48.093  1.00  0.00     0.029 A 
HETATM   26  C   UNL     1      19.310  49.128  46.613  1.00  0.00     0.032 A 
HETATM   27  C   UNL     1      20.893  50.380  48.599  1.00  0.00     0.023 A 
HETATM   28  C   UNL     1      19.736  51.012  48.109  1.00  0.00    -0.061 A 
HETATM   29  C   UNL     1      18.961  50.383  47.127  1.00  0.00     0.009 A 
HETATM   30  C   UNL     1      19.355  52.363  48.643  1.00  0.00     0.048 C 
ENDBRANCH  17  20
ENDBRANCH   1  16
TORSDOF 6
ENDMDL
MODEL 5
REMARK VINA RESULT:      -8.6      2.321      3.408
REMARK  6 active torsions:
REMARK  status: ('A' for Active; 'I' for Inactive)
REMARK    1  A    between atoms: C_2  and  C_3 
REMARK    2  A    between atoms: C_3  and  C_4 
REMARK       I    between atoms: C_4  and  N_5 
REMARK    3  A    between atoms: N_5  and  C_6 
REMARK    4  A    between atoms: C_8  and  C_9 
REMARK    5  A    between atoms: C_9  and  N_10 
REMARK       I    between atoms: N_10  and  C_11 
REMARK    6  A    between atoms: C_11  and  C_12 
ROOT
HETATM    1  C   UNL     1      27.101  44.253  51.044  1.00  0.00     0.161 C 
ENDROOT
BRANCH   1   2
HETATM    2  C   UNL     1      25.664  44.261  50.601  1.00  0.00    -0.038 A 
HETATM    3  C   UNL     1      25.091  45.439  50.088  1.00  0.00     0.038 A 
HETATM    4  C   UNL     1      23.766  45.462  49.651  1.00  0.00     0.035 A 
HETATM    5  C   UNL     1      23.005  44.289  49.735  1.00  0.00     0.029 A 
HETATM    6  C   UNL     1      23.555  43.120  50.267  1.00  0.00     0.003 A 
HETATM    7  C   UNL     1      24.878  43.107  50.704  1.00  0.00     0.009 A 
BRANCH   4   8
HETATM    8  N   UNL     1      23.135  46.599  49.104  1.00  0.00    -0.327 N 
HETATM    9  C   UNL     1      23.388  47.926  49.400  1.00  0.00     0.226 C 
HETATM   10  O   UNL     1      24.199  48.341  50.224  1.00  0.00    -0.273 OA
HETATM   11  H   UNL     1      22.384  46.408  48.455  1.00  0.00     0.169 HD
BRANCH   9  12
HETATM   12  C   UNL     1      22.564  48.921  48.579  1.00  0.00     0.074 C 
HETATM   13  C   UNL     1      21.274  48.254  48.100  1.00  0.00     0.020 C 
BRANCH  12  14
HETATM   14  C   UNL     1      22.260  50.235  49.315  1.00  0.00     0.009 C 
HETATM   15  C   UNL     1      21.336  51.156  48.529  1.00  0.00     0.006 C 
ENDBRANCH  12  14
ENDBRANCH   9  12
ENDBRANCH   4   8
ENDBRANCH   1   2
BRANCH   1  16
HETATM   16  N   UNL     1      27.267  44.875  52.327  1.00  0.00    -0.351 N 
HETATM   17  C   UNL     1      27.826  44.191  53.384  1.00  0.00     0.273 C 
HETATM   18  O   UNL     1      28.081  42.990  53.342  1.00  0.00    -0.266 OA
HETATM   19  H   UNL     1      27.207  45.884  52.434  1.00  0.00     0.163 HD
BRANCH  17  20
HETATM   20  C   UNL     1      28.108  45.041  54.551  1.00  0.00     0.157 A 
HETATM   21  N   UNL     1      27.387  46.156  54.805  1.00  0.00    -0.168 NA
HETATM   22  N   UNL     1      27.945  46.651  55.923  1.00  0.00    -0.277 N 
HETATM   23  H   UNL     1      27.562  47.504  56.312  1.00  0.00     0.189 HD
HETATM   24  C   UNL     1      28.995  45.920  56.406  1.00  0.00     0.063 A 
HETATM   25  C   UNL     1      29.130  44.853  55.527  1.00  0.00     0.029 A 
HETATM   26  C   UNL     1      29.823  46.107  57.515  1.00  0.00     0.032 A 
HETATM   27  C   UNL     1      30.153  43.911  55.759  1.00  0.00     0.023 A 
HETATM   28  C   UNL     1      31.008  44.071  56.863  1.00  0.00    -0.061 A 
HETATM   29  C   UNL     1      30.834  45.161  57.725  1.00  0.00     0.009 A 
HETATM   30  C   UNL     1      32.104  43.072  57.096  1.00  0.00     0.048 C 
ENDBRANCH  17  20
ENDBRANCH   1  16
TORSDOF 6
ENDMDL
MODEL 6
REMARK VINA RESULT:      -8.4      2.758      3.999
REMARK  6 active torsions:
REMARK  status: ('A' for Active; 'I' for Inactive)
REMARK    1  A    between atoms: C_2  and  C_3 
REMARK    2  A    between atoms: C_3  and  C_4 
REMARK       I    between atoms: C_4  and  N_5 
REMARK    3  A    between atoms: N_5  and  C_6 
REMARK    4  A    between atoms: C_8  and  C_9 
REMARK    5  A    between atoms: C_9  and  N_10 
REMARK       I    between atoms: N_10  and  C_11 
REMARK    6  A    between atoms: C_11  and  C_12 
ROOT
HETATM    1  C   UNL     1      23.926  47.780  49.395  1.00  0.00     0.161 C 
ENDROOT
BRANCH   1   2
HETATM    2  C   UNL     1      22.485  47.848  48.969  1.00  0.00    -0.038 A 
HETATM    3  C   UNL     1      21.755  49.037  49.146  1.00  0.00     0.038 A 
HETATM    4  C   UNL     1      20.423  49.129  48.737  1.00  0.00     0.035 A 
HETATM    5  C   UNL     1      19.817  48.012  48.150  1.00  0.00     0.029 A 
HETATM    6  C   UNL     1      20.524  46.817  47.994  1.00  0.00     0.003 A 
HETATM    7  C   UNL     1      21.852  46.734  48.407  1.00  0.00     0.009 A 
BRANCH   4   8
HETATM    8  N   UNL     1      19.639  50.296  48.861  1.00  0.00    -0.327 N 
HETATM    9  C   UNL     1      18.778  50.626  49.891  1.00  0.00     0.226 C 
HETATM   10  O   UNL     1      18.527  49.934  50.874  1.00  0.00    -0.273 OA
HETATM   11  H   UNL     1      19.688  50.935  48.079  1.00  0.00     0.169 HD
BRANCH   9  12
HETATM   12  C   UNL     1      18.123  52.003  49.745  1.00  0.00     0.074 C 
HETATM   13  C   UNL     1      18.638  52.690  48.480  1.00  0.00     0.020 C 
BRANCH  12  14
HETATM   14  C   UNL     1      16.587  51.966  49.761  1.00  0.00     0.009 C 
HETATM   15  C   UNL     1      16.003  51.093  48.657  1.00  0.00     0.006 C 
ENDBRANCH  12  14
ENDBRANCH   9  12
ENDBRANCH   4   8
ENDBRANCH   1   2
BRANCH   1  16
HETATM   16  N   UNL     1      24.176  46.657  50.255  1.00  0.00    -0.351 N 
HETATM   17  C   UNL     1      25.344  45.933  50.162  1.00  0.00     0.273 C 
HETATM   18  O   UNL     1      26.166  46.104  49.266  1.00  0.00    -0.266 OA
HETATM   19  H   UNL     1      23.629  46.511  51.099  1.00  0.00     0.163 HD
BRANCH  17  20
HETATM   20  C   UNL     1      25.519  44.959  51.250  1.00  0.00     0.157 A 
HETATM   21  N   UNL     1      25.033  43.701  51.159  1.00  0.00    -0.168 NA
HETATM   22  N   UNL     1      25.379  43.138  52.329  1.00  0.00    -0.277 N 
HETATM   23  H   UNL     1      25.115  42.174  52.493  1.00  0.00     0.189 HD
HETATM   24  C   UNL     1      26.058  43.966  53.179  1.00  0.00     0.063 A 
HETATM   25  C   UNL     1      26.169  45.173  52.501  1.00  0.00     0.029 A 
HETATM   26  C   UNL     1      26.570  43.760  54.462  1.00  0.00     0.032 A 
HETATM   27  C   UNL     1      26.826  46.248  53.134  1.00  0.00     0.023 A 
HETATM   28  C   UNL     1      27.348  46.076  54.429  1.00  0.00    -0.061 A 
HETATM   29  C   UNL     1      27.216  44.841  55.075  1.00  0.00     0.009 A 
HETATM   30  C   UNL     1      28.034  47.229  55.103  1.00  0.00     0.048 C 
ENDBRANCH  17  20
ENDBRANCH   1  16
TORSDOF 6
ENDMDL
MODEL 7
REMARK VINA RESULT:      -8.3      4.540      7.683
REMARK  6 active torsions:
REMARK  status: ('A' for Active; 'I' for Inactive)
REMARK    1  A    between atoms: C_2  and  C_3 
REMARK    2  A    between atoms: C_3  and  C_4 
REMARK       I    between atoms: C_4  and  N_5 
REMARK    3  A    between atoms: N_5  and  C_6 
REMARK    4  A    between atoms: C_8  and  C_9 
REMARK    5  A    between atoms: C_9  and  N_10 
REMARK       I    between atoms: N_10  and  C_11 
REMARK    6  A    between atoms: C_11  and  C_12 
ROOT
HETATM    1  C   UNL     1      24.641  45.363  51.506  1.00  0.00     0.161 C 
ENDROOT
BRANCH   1   2
HETATM    2  C   UNL     1      24.556  44.071  50.740  1.00  0.00    -0.038 A 
HETATM    3  C   UNL     1      25.679  43.226  50.659  1.00  0.00     0.038 A 
HETATM    4  C   UNL     1      25.615  42.012  49.972  1.00  0.00     0.035 A 
HETATM    5  C   UNL     1      24.412  41.646  49.356  1.00  0.00     0.029 A 
HETATM    6  C   UNL     1      23.299  42.489  49.407  1.00  0.00     0.003 A 
HETATM    7  C   UNL     1      23.373  43.700  50.093  1.00  0.00     0.009 A 
BRANCH   4   8
HETATM    8  N   UNL     1      26.692  41.106  49.871  1.00  0.00    -0.327 N 
HETATM    9  C   UNL     1      27.633  41.026  48.861  1.00  0.00     0.226 C 
HETATM   10  O   UNL     1      27.671  41.725  47.852  1.00  0.00    -0.273 OA
HETATM   11  H   UNL     1      26.746  40.413  50.605  1.00  0.00     0.169 HD
BRANCH   9  12
HETATM   12  C   UNL     1      28.710  39.962  49.089  1.00  0.00     0.074 C 
HETATM   13  C   UNL     1      28.634  39.448  50.527  1.00  0.00     0.020 C 
BRANCH  12  14
HETATM   14  C   UNL     1      28.657  38.798  48.088  1.00  0.00     0.009 C 
HETATM   15  C   UNL     1      27.746  37.665  48.543  1.00  0.00     0.006 C 
ENDBRANCH  12  14
ENDBRANCH   9  12
ENDBRANCH   4   8
ENDBRANCH   1   2
BRANCH   1  16
HETATM   16  N   UNL     1      25.756  45.374  52.410  1.00  0.00    -0.351 N 
HETATM   17  C   UNL     1      26.086  46.506  53.122  1.00  0.00     0.273 C 
HETATM   18  O   UNL     1      25.553  47.595  52.929  1.00  0.00    -0.266 OA
HETATM   19  H   UNL     1      26.179  44.508  52.733  1.00  0.00     0.163 HD
BRANCH  17  20
HETATM   20  C   UNL     1      27.117  46.276  54.147  1.00  0.00     0.157 A 
HETATM   21  N   UNL     1      27.275  47.118  55.192  1.00  0.00    -0.168 NA
HETATM   22  N   UNL     1      28.299  46.585  55.881  1.00  0.00    -0.277 N 
HETATM   23  H   UNL     1      28.604  47.054  56.725  1.00  0.00     0.189 HD
HETATM   24  C   UNL     1      28.820  45.446  55.333  1.00  0.00     0.063 A 
HETATM   25  C   UNL     1      28.066  45.213  54.191  1.00  0.00     0.029 A 
HETATM   26  C   UNL     1      29.872  44.620  55.736  1.00  0.00     0.032 A 
HETATM   27  C   UNL     1      28.374  44.093  53.392  1.00  0.00     0.023 A 
HETATM   28  C   UNL     1      29.431  43.243  53.766  1.00  0.00    -0.061 A 
HETATM   29  C   UNL     1      30.164  43.514  54.927  1.00  0.00     0.009 A 
HETATM   30  C   UNL     1      29.763  42.060  52.903  1.00  0.00     0.048 C 
ENDBRANCH  17  20
ENDBRANCH   1  16
TORSDOF 6
ENDMDL
MODEL 8
REMARK VINA RESULT:      -8.2      5.052      9.308
REMARK  6 active torsions:
REMARK  status: ('A' for Active; 'I' for Inactive)
REMARK    1  A    between atoms: C_2  and  C_3 
REMARK    2  A    between atoms: C_3  and  C_4 
REMARK       I    between atoms: C_4  and  N_5 
REMARK    3  A    between atoms: N_5  and  C_6 
REMARK    4  A    between atoms: C_8  and  C_9 
REMARK    5  A    between atoms: C_9  and  N_10 
REMARK       I    between atoms: N_10  and  C_11 
REMARK    6  A    between atoms: C_11  and  C_12 
ROOT
HETATM    1  C   UNL     1      25.836  45.331  52.170  1.00  0.00     0.161 C 
ENDROOT
BRANCH   1   2
HETATM    2  C   UNL     1      26.275  46.172  53.338  1.00  0.00    -0.038 A 
HETATM    3  C   UNL     1      27.300  45.716  54.187  1.00  0.00     0.038 A 
HETATM    4  C   UNL     1      27.739  46.490  55.263  1.00  0.00     0.035 A 
HETATM    5  C   UNL     1      27.138  47.734  55.490  1.00  0.00     0.029 A 
HETATM    6  C   UNL     1      26.101  48.185  54.669  1.00  0.00     0.003 A 
HETATM    7  C   UNL     1      25.668  47.405  53.600  1.00  0.00     0.009 A 
BRANCH   4   8
HETATM    8  N   UNL     1      28.776  46.106  56.139  1.00  0.00    -0.327 N 
HETATM    9  C   UNL     1      29.756  45.156  55.919  1.00  0.00     0.226 C 
HETATM   10  O   UNL     1      29.872  44.456  54.917  1.00  0.00    -0.273 OA
HETATM   11  H   UNL     1      28.765  46.554  57.046  1.00  0.00     0.169 HD
BRANCH   9  12
HETATM   12  C   UNL     1      30.772  45.026  57.057  1.00  0.00     0.074 C 
HETATM   13  C   UNL     1      30.366  45.933  58.219  1.00  0.00     0.020 C 
BRANCH  12  14
HETATM   14  C   UNL     1      30.987  43.583  57.538  1.00  0.00     0.009 C 
HETATM   15  C   UNL     1      32.299  42.984  57.050  1.00  0.00     0.006 C 
ENDBRANCH  12  14
ENDBRANCH   9  12
ENDBRANCH   4   8
ENDBRANCH   1   2
BRANCH   1  16
HETATM   16  N   UNL     1      26.524  44.071  52.132  1.00  0.00    -0.351 N 
HETATM   17  C   UNL     1      26.013  43.001  51.432  1.00  0.00     0.273 C 
HETATM   18  O   UNL     1      24.894  43.006  50.926  1.00  0.00    -0.266 OA
HETATM   19  H   UNL     1      27.500  43.998  52.405  1.00  0.00     0.163 HD
BRANCH  17  20
HETATM   20  C   UNL     1      26.945  41.867  51.330  1.00  0.00     0.157 A 
HETATM   21  N   UNL     1      27.468  41.280  52.429  1.00  0.00    -0.168 NA
HETATM   22  N   UNL     1      28.261  40.316  51.931  1.00  0.00    -0.277 N 
HETATM   23  H   UNL     1      28.770  39.730  52.582  1.00  0.00     0.189 HD
HETATM   24  C   UNL     1      28.286  40.250  50.566  1.00  0.00     0.063 A 
HETATM   25  C   UNL     1      27.431  41.256  50.136  1.00  0.00     0.029 A 
HETATM   26  C   UNL     1      28.979  39.410  49.690  1.00  0.00     0.032 A 
HETATM   27  C   UNL     1      27.251  41.448  48.751  1.00  0.00     0.023 A 
HETATM   28  C   UNL     1      27.936  40.623  47.842  1.00  0.00    -0.061 A 
HETATM   29  C   UNL     1      28.788  39.618  48.318  1.00  0.00     0.009 A 
HETATM   30  C   UNL     1      27.751  40.841  46.368  1.00  0.00     0.048 C 
ENDBRANCH  17  20
ENDBRANCH   1  16
TORSDOF 6
ENDMDL
MODEL 9
REMARK VINA RESULT:      -8.2      2.792      9.666
REMARK  6 active torsions:
REMARK  status: ('A' for Active; 'I' for Inactive)
REMARK    1  A    between atoms: C_2  and  C_3 
REMARK    2  A    between atoms: C_3  and  C_4 
REMARK       I    between atoms: C_4  and  N_5 
REMARK    3  A    between atoms: N_5  and  C_6 
REMARK    4  A    between atoms: C_8  and  C_9 
REMARK    5  A    between atoms: C_9  and  N_10 
REMARK       I    between atoms: N_10  and  C_11 
REMARK    6  A    between atoms: C_11  and  C_12 
ROOT
HETATM    1  C   UNL     1      25.428  47.359  49.728  1.00  0.00     0.161 C 
ENDROOT
BRANCH   1   2
HETATM    2  C   UNL     1      25.267  45.938  50.193  1.00  0.00    -0.038 A 
HETATM    3  C   UNL     1      26.341  45.275  50.815  1.00  0.00     0.038 A 
HETATM    4  C   UNL     1      26.206  43.964  51.274  1.00  0.00     0.035 A 
HETATM    5  C   UNL     1      24.980  43.309  51.101  1.00  0.00     0.029 A 
HETATM    6  C   UNL     1      23.915  43.948  50.461  1.00  0.00     0.003 A 
HETATM    7  C   UNL     1      24.059  45.256  50.004  1.00  0.00     0.009 A 
BRANCH   4   8
HETATM    8  N   UNL     1      27.231  43.247  51.927  1.00  0.00    -0.327 N 
HETATM    9  C   UNL     1      27.489  43.195  53.285  1.00  0.00     0.226 C 
HETATM   10  O   UNL     1      26.874  43.798  54.161  1.00  0.00    -0.273 OA
HETATM   11  H   UNL     1      27.871  42.754  51.319  1.00  0.00     0.169 HD
BRANCH   9  12
HETATM   12  C   UNL     1      28.647  42.270  53.669  1.00  0.00     0.074 C 
HETATM   13  C   UNL     1      28.648  41.039  52.764  1.00  0.00     0.020 C 
BRANCH  12  14
HETATM   14  C   UNL     1      30.021  42.957  53.662  1.00  0.00     0.009 C 
HETATM   15  C   UNL     1      30.496  43.349  55.055  1.00  0.00     0.006 C 
ENDBRANCH  12  14
ENDBRANCH   9  12
ENDBRANCH   4   8
ENDBRANCH   1   2
BRANCH   1  16
HETATM   16  N   UNL     1      24.268  48.152  50.025  1.00  0.00    -0.351 N 
HETATM   17  C   UNL     1      23.703  48.974  49.074  1.00  0.00     0.273 C 
HETATM   18  O   UNL     1      24.224  49.189  47.984  1.00  0.00    -0.266 OA
HETATM   19  H   UNL     1      23.694  47.957  50.841  1.00  0.00     0.163 HD
BRANCH  17  20
HETATM   20  C   UNL     1      22.410  49.544  49.484  1.00  0.00     0.157 A 
HETATM   21  N   UNL     1      22.332  50.731  50.125  1.00  0.00    -0.168 NA
HETATM   22  N   UNL     1      21.015  50.897  50.334  1.00  0.00    -0.277 N 
HETATM   23  H   UNL     1      20.707  51.737  50.810  1.00  0.00     0.189 HD
HETATM   24  C   UNL     1      20.233  49.877  49.868  1.00  0.00     0.063 A 
HETATM   25  C   UNL     1      21.119  48.969  49.302  1.00  0.00     0.029 A 
HETATM   26  C   UNL     1      18.851  49.678  49.901  1.00  0.00     0.032 A 
HETATM   27  C   UNL     1      20.605  47.785  48.735  1.00  0.00     0.023 A 
HETATM   28  C   UNL     1      19.218  47.551  48.755  1.00  0.00    -0.061 A 
HETATM   29  C   UNL     1      18.361  48.495  49.334  1.00  0.00     0.009 A 
HETATM   30  C   UNL     1      18.679  46.282  48.161  1.00  0.00     0.048 C 
ENDBRANCH  17  20
ENDBRANCH   1  16
TORSDOF 6
ENDMDL
MODEL 10
REMARK VINA RESULT:      -8.1      5.481      8.110
REMARK  6 active torsions:
REMARK  status: ('A' for Active; 'I' for Inactive)
REMARK    1  A    between atoms: C_2  and  C_3 
REMARK    2  A    between atoms: C_3  and  C_4 
REMARK       I    between atoms: C_4  and  N_5 
REMARK    3  A    between atoms: N_5  and  C_6 
REMARK    4  A    between atoms: C_8  and  C_9 
REMARK    5  A    between atoms: C_9  and  N_10 
REMARK       I    between atoms: N_10  and  C_11 
REMARK    6  A    between atoms: C_11  and  C_12 
ROOT
HETATM    1  C   UNL     1      25.370  43.733  51.261  1.00  0.00     0.161 C 
ENDROOT
BRANCH   1   2
HETATM    2  C   UNL     1      26.287  42.590  50.917  1.00  0.00    -0.038 A 
HETATM    3  C   UNL     1      26.142  41.917  49.690  1.00  0.00     0.038 A 
HETATM    4  C   UNL     1      26.996  40.869  49.341  1.00  0.00     0.035 A 
HETATM    5  C   UNL     1      28.004  40.491  50.237  1.00  0.00     0.029 A 
HETATM    6  C   UNL     1      28.141  41.136  51.469  1.00  0.00     0.003 A 
HETATM    7  C   UNL     1      27.282  42.178  51.810  1.00  0.00     0.009 A 
BRANCH   4   8
HETATM    8  N   UNL     1      26.924  40.166  48.120  1.00  0.00    -0.327 N 
HETATM    9  C   UNL     1      27.659  40.397  46.971  1.00  0.00     0.226 C 
HETATM   10  O   UNL     1      28.491  41.285  46.812  1.00  0.00    -0.273 OA
HETATM   11  H   UNL     1      26.220  39.442  48.078  1.00  0.00     0.169 HD
BRANCH   9  12
HETATM   12  C   UNL     1      27.377  39.407  45.837  1.00  0.00     0.074 C 
HETATM   13  C   UNL     1      28.345  39.657  44.680  1.00  0.00     0.020 C 
BRANCH  12  14
HETATM   14  C   UNL     1      27.413  37.934  46.272  1.00  0.00     0.009 C 
HETATM   15  C   UNL     1      28.798  37.480  46.716  1.00  0.00     0.006 C 
ENDBRANCH  12  14
ENDBRANCH   9  12
ENDBRANCH   4   8
ENDBRANCH   1   2
BRANCH   1  16
HETATM   16  N   UNL     1      25.987  44.656  52.171  1.00  0.00    -0.351 N 
HETATM   17  C   UNL     1      25.547  44.778  53.470  1.00  0.00     0.273 C 
HETATM   18  O   UNL     1      24.532  44.226  53.886  1.00  0.00    -0.266 OA
HETATM   19  H   UNL     1      26.897  45.061  51.971  1.00  0.00     0.163 HD
BRANCH  17  20
HETATM   20  C   UNL     1      26.422  45.610  54.311  1.00  0.00     0.157 A 
HETATM   21  N   UNL     1      26.052  46.848  54.708  1.00  0.00    -0.168 NA
HETATM   22  N   UNL     1      27.099  47.278  55.433  1.00  0.00    -0.277 N 
HETATM   23  H   UNL     1      27.051  48.203  55.843  1.00  0.00     0.189 HD
HETATM   24  C   UNL     1      28.132  46.387  55.522  1.00  0.00     0.063 A 
HETATM   25  C   UNL     1      27.721  45.278  54.796  1.00  0.00     0.029 A 
HETATM   26  C   UNL     1      29.371  46.465  56.163  1.00  0.00     0.032 A 
HETATM   27  C   UNL     1      28.592  44.174  54.693  1.00  0.00     0.023 A 
HETATM   28  C   UNL     1      29.848  44.220  55.322  1.00  0.00    -0.061 A 
HETATM   29  C   UNL     1      30.222  45.358  56.047  1.00  0.00     0.009 A 
HETATM   30  C   UNL     1      30.776  43.046  55.197  1.00  0.00     0.048 C 
ENDBRANCH  17  20
ENDBRANCH   1  16
TORSDOF 6
ENDMDL
