MODEL 1
REMARK VINA RESULT:     -10.1      0.000      0.000
REMARK  7 active torsions:
REMARK  status: ('A' for Active; 'I' for Inactive)
REMARK    1  A    between atoms: C_2  and  N_3 
REMARK    2  A    between atoms: C_5  and  C_6 
REMARK    3  A    between atoms: C_6  and  N_7 
REMARK       I    between atoms: N_7  and  C_8 
REMARK    4  A    between atoms: C_8  and  C_9 
REMARK    5  A    between atoms: N_15  and  C_16 
REMARK    6  A    between atoms: C_16  and  C_17 
REMARK       I    between atoms: C_17  and  N_18 
REMARK    7  A    between atoms: N_18  and  C_19 
ROOT
HETATM    1  C   UNL     1      24.255  46.025  49.650  1.00  0.00     0.081 A 
HETATM    2  S   UNL     1      23.350  44.572  49.775  1.00  0.00    -0.063 SA
HETATM    3  C   UNL     1      24.730  43.643  50.101  1.00  0.00     0.116 A 
HETATM    4  C   UNL     1      25.878  44.403  50.092  1.00  0.00     0.075 A 
HETATM    5  C   UNL     1      27.125  43.727  50.434  1.00  0.00     0.262 A 
HETATM    6  O   UNL     1      28.208  44.304  50.474  1.00  0.00    -0.267 OA
HETATM    7  N   UNL     1      26.976  42.374  50.732  1.00  0.00    -0.299 N 
HETATM    8  C   UNL     1      25.741  41.754  50.694  1.00  0.00     0.214 A 
HETATM    9  N   UNL     1      24.625  42.319  50.366  1.00  0.00    -0.235 NA
HETATM   10  C   UNL     1      25.625  45.790  49.766  1.00  0.00    -0.021 A 
HETATM   11  C   UNL     1      26.679  46.848  49.654  1.00  0.00     0.051 C 
ENDROOT
BRANCH   1  12
HETATM   12  C   UNL     1      23.563  47.293  49.439  1.00  0.00     0.259 C 
HETATM   13  N   UNL     1      22.582  47.284  48.465  1.00  0.00    -0.354 N 
HETATM   14  H   UNL     1      22.402  46.372  48.052  1.00  0.00     0.162 HD
HETATM   15  O   UNL     1      23.818  48.328  50.055  1.00  0.00    -0.267 OA
BRANCH  13  16
HETATM   16  C   UNL     1      21.566  48.308  48.232  1.00  0.00     0.156 C 
BRANCH  16  17
HETATM   17  C   UNL     1      20.262  48.245  49.046  1.00  0.00     0.206 C 
HETATM   18  N   UNL     1      20.082  49.336  50.094  1.00  0.00    -0.066 N 
HETATM   19  H   UNL     1      20.685  49.013  50.880  1.00  0.00     0.280 HD
HETATM   20  C   UNL     1      18.622  49.240  50.486  1.00  0.00     0.235 C 
HETATM   21  C   UNL     1      17.924  48.560  49.309  1.00  0.00     0.030 C 
HETATM   22  C   UNL     1      18.986  48.364  48.236  1.00  0.00     0.036 C 
BRANCH  18  23
HETATM   23  C   UNL     1      20.517  50.733  49.732  1.00  0.00     0.231 C 
HETATM   24  C   UNL     1      19.342  51.690  49.842  1.00  0.00     0.034 C 
ENDBRANCH  18  23
ENDBRANCH  16  17
ENDBRANCH  13  16
ENDBRANCH   1  12
BRANCH   7  25
HETATM   25  C   UNL     1      28.119  41.664  51.284  1.00  0.00     0.236 C 
BRANCH  25  26
HETATM   26  C   UNL     1      28.287  42.056  52.759  1.00  0.00     0.240 C 
HETATM   27  N   UNL     1      29.171  43.111  52.935  1.00  0.00    -0.326 N 
HETATM   28  H   UNL     1      29.632  43.479  52.111  1.00  0.00     0.169 HD
HETATM   29  O   UNL     1      27.722  41.435  53.654  1.00  0.00    -0.271 OA
BRANCH  27  30
HETATM   30  C   UNL     1      29.527  43.724  54.157  1.00  0.00     0.036 A 
HETATM   31  C   UNL     1      30.547  43.267  54.995  1.00  0.00     0.053 A 
HETATM   32  C   UNL     1      30.833  43.928  56.196  1.00  0.00     0.042 A 
HETATM   33 CL   UNL     1      32.098  43.286  57.186  1.00  0.00    -0.084 Cl
HETATM   34  C   UNL     1      30.111  45.066  56.582  1.00  0.00    -0.040 A 
HETATM   35  C   UNL     1      30.395  45.792  57.866  1.00  0.00     0.050 C 
HETATM   36  C   UNL     1      29.086  45.518  55.741  1.00  0.00     0.011 A 
HETATM   37  C   UNL     1      28.795  44.852  54.545  1.00  0.00     0.030 A 
ENDBRANCH  27  30
ENDBRANCH  25  26
ENDBRANCH   7  25
TORSDOF 7
ENDMDL
MODEL 2
REMARK VINA RESULT:      -9.8      1.301      1.758
REMARK  7 active torsions:
REMARK  status: ('A' for Active; 'I' for Inactive)
REMARK    1  A    between atoms: C_2  and  N_3 
REMARK    2  A    between atoms: C_5  and  C_6 
REMARK    3  A    between atoms: C_6  and  N_7 
REMARK       I    between atoms: N_7  and  C_8 
REMARK    4  A    between atoms: C_8  and  C_9 
REMARK    5  A    between atoms: N_15  and  C_16 
REMARK    6  A    between atoms: C_16  and  C_17 
REMARK       I    between atoms: C_17  and  N_18 
REMARK    7  A    between atoms: N_18  and  C_19 
ROOT
HETATM    1  C   UNL     1      23.800  47.076  49.139  1.00  0.00     0.081 A 
HETATM    2  S   UNL     1      22.833  45.660  49.065  1.00  0.00    -0.063 SA
HETATM    3  C   UNL     1      24.091  44.672  49.626  1.00  0.00     0.116 A 
HETATM    4  C   UNL     1      25.248  45.385  49.846  1.00  0.00     0.075 A 
HETATM    5  C   UNL     1      26.383  44.654  50.402  1.00  0.00     0.262 A 
HETATM    6  O   UNL     1      27.460  45.186  50.655  1.00  0.00    -0.267 OA
HETATM    7  N   UNL     1      26.129  43.305  50.642  1.00  0.00    -0.299 N 
HETATM    8  C   UNL     1      24.902  42.736  50.361  1.00  0.00     0.214 A 
HETATM    9  N   UNL     1      23.889  43.350  49.841  1.00  0.00    -0.235 NA
HETATM   10  C   UNL     1      25.113  46.784  49.505  1.00  0.00    -0.021 A 
HETATM   11  C   UNL     1      26.210  47.800  49.612  1.00  0.00     0.051 C 
ENDROOT
BRANCH   1  12
HETATM   12  C   UNL     1      23.208  48.374  48.826  1.00  0.00     0.259 C 
HETATM   13  N   UNL     1      22.150  48.758  49.629  1.00  0.00    -0.354 N 
HETATM   14  H   UNL     1      21.946  48.120  50.396  1.00  0.00     0.162 HD
HETATM   15  O   UNL     1      23.588  49.102  47.909  1.00  0.00    -0.267 OA
BRANCH  13  16
HETATM   16  C   UNL     1      21.554  50.088  49.722  1.00  0.00     0.156 C 
BRANCH  16  17
HETATM   17  C   UNL     1      20.408  50.446  48.759  1.00  0.00     0.206 C 
HETATM   18  N   UNL     1      19.044  49.864  49.107  1.00  0.00    -0.066 N 
HETATM   19  H   UNL     1      19.117  48.876  48.782  1.00  0.00     0.280 HD
HETATM   20  C   UNL     1      18.077  50.629  48.227  1.00  0.00     0.235 C 
HETATM   21  C   UNL     1      18.785  51.937  47.878  1.00  0.00     0.030 C 
HETATM   22  C   UNL     1      20.104  51.927  48.637  1.00  0.00     0.036 C 
BRANCH  18  23
HETATM   23  C   UNL     1      18.644  49.836  50.560  1.00  0.00     0.231 C 
HETATM   24  C   UNL     1      18.543  48.399  51.044  1.00  0.00     0.034 C 
ENDBRANCH  18  23
ENDBRANCH  16  17
ENDBRANCH  13  16
ENDBRANCH   1  12
BRANCH   7  25
HETATM   25  C   UNL     1      27.122  42.543  51.384  1.00  0.00     0.236 C 
BRANCH  25  26
HETATM   26  C   UNL     1      27.313  43.184  52.766  1.00  0.00     0.240 C 
HETATM   27  N   UNL     1      28.647  43.409  53.072  1.00  0.00    -0.326 N 
HETATM   28  H   UNL     1      29.340  43.104  52.399  1.00  0.00     0.169 HD
HETATM   29  O   UNL     1      26.358  43.402  53.507  1.00  0.00    -0.271 OA
BRANCH  27  30
HETATM   30  C   UNL     1      29.160  44.001  54.248  1.00  0.00     0.036 A 
HETATM   31  C   UNL     1      30.185  43.450  55.019  1.00  0.00     0.053 A 
HETATM   32  C   UNL     1      30.632  44.098  56.179  1.00  0.00     0.042 A 
HETATM   33 CL   UNL     1      31.892  43.339  57.089  1.00  0.00    -0.084 Cl
HETATM   34  C   UNL     1      30.068  45.314  56.587  1.00  0.00    -0.040 A 
HETATM   35  C   UNL     1      30.526  46.028  57.827  1.00  0.00     0.050 C 
HETATM   36  C   UNL     1      29.036  45.860  55.813  1.00  0.00     0.011 A 
HETATM   37  C   UNL     1      28.585  45.209  54.660  1.00  0.00     0.030 A 
ENDBRANCH  27  30
ENDBRANCH  25  26
ENDBRANCH   7  25
TORSDOF 7
ENDMDL
MODEL 3
REMARK VINA RESULT:      -9.7      1.824      2.394
REMARK  7 active torsions:
REMARK  status: ('A' for Active; 'I' for Inactive)
REMARK    1  A    between atoms: C_2  and  N_3 
REMARK    2  A    between atoms: C_5  and  C_6 
REMARK    3  A    between atoms: C_6  and  N_7 
REMARK       I    between atoms: N_7  and  C_8 
REMARK    4  A    between atoms: C_8  and  C_9 
REMARK    5  A    between atoms: N_15  and  C_16 
REMARK    6  A    between atoms: C_16  and  C_17 
REMARK       I    between atoms: C_17  and  N_18 
REMARK    7  A    between atoms: N_18  and  C_19 
ROOT
HETATM    1  C   UNL     1      22.926  46.626  49.096  1.00  0.00     0.081 A 
HETATM    2  S   UNL     1      24.105  47.699  49.732  1.00  0.00    -0.063 SA
HETATM    3  C   UNL     1      24.985  46.439  50.447  1.00  0.00     0.116 A 
HETATM    4  C   UNL     1      24.393  45.213  50.241  1.00  0.00     0.075 A 
HETATM    5  C   UNL     1      25.099  44.040  50.747  1.00  0.00     0.262 A 
HETATM    6  O   UNL     1      24.676  42.896  50.609  1.00  0.00    -0.267 OA
HETATM    7  N   UNL     1      26.305  44.331  51.380  1.00  0.00    -0.299 N 
HETATM    8  C   UNL     1      26.764  45.628  51.508  1.00  0.00     0.214 A 
HETATM    9  N   UNL     1      26.147  46.689  51.097  1.00  0.00    -0.235 NA
HETATM   10  C   UNL     1      23.151  45.312  49.505  1.00  0.00    -0.021 A 
HETATM   11  C   UNL     1      22.270  44.152  49.155  1.00  0.00     0.051 C 
ENDROOT
BRANCH   1  12
HETATM   12  C   UNL     1      21.857  47.146  48.248  1.00  0.00     0.259 C 
HETATM   13  N   UNL     1      20.640  47.345  48.872  1.00  0.00    -0.354 N 
HETATM   14  H   UNL     1      20.645  47.172  49.876  1.00  0.00     0.162 HD
HETATM   15  O   UNL     1      21.987  47.390  47.048  1.00  0.00    -0.267 OA
BRANCH  13  16
HETATM   16  C   UNL     1      19.497  48.091  48.353  1.00  0.00     0.156 C 
BRANCH  16  17
HETATM   17  C   UNL     1      18.975  49.289  49.165  1.00  0.00     0.206 C 
HETATM   18  N   UNL     1      19.942  50.454  49.324  1.00  0.00    -0.066 N 
HETATM   19  H   UNL     1      20.589  50.125  50.072  1.00  0.00     0.280 HD
HETATM   20  C   UNL     1      19.081  51.586  49.844  1.00  0.00     0.235 C 
HETATM   21  C   UNL     1      17.653  51.244  49.423  1.00  0.00     0.030 C 
HETATM   22  C   UNL     1      17.744  49.969  48.597  1.00  0.00     0.036 C 
BRANCH  18  23
HETATM   23  C   UNL     1      20.783  50.835  48.133  1.00  0.00     0.231 C 
HETATM   24  C   UNL     1      22.238  50.975  48.545  1.00  0.00     0.034 C 
ENDBRANCH  18  23
ENDBRANCH  16  17
ENDBRANCH  13  16
ENDBRANCH   1  12
BRANCH   7  25
HETATM   25  C   UNL     1      27.179  43.223  51.732  1.00  0.00     0.236 C 
BRANCH  25  26
HETATM   26  C   UNL     1      27.552  43.331  53.218  1.00  0.00     0.240 C 
HETATM   27  N   UNL     1      28.683  44.105  53.430  1.00  0.00    -0.326 N 
HETATM   28  H   UNL     1      29.158  44.475  52.615  1.00  0.00     0.169 HD
HETATM   29  O   UNL     1      26.917  42.732  54.081  1.00  0.00    -0.271 OA
BRANCH  27  30
HETATM   30  C   UNL     1      29.274  44.420  54.675  1.00  0.00     0.036 A 
HETATM   31  C   UNL     1      30.328  43.703  55.244  1.00  0.00     0.053 A 
HETATM   32  C   UNL     1      30.854  44.076  56.488  1.00  0.00     0.042 A 
HETATM   33 CL   UNL     1      32.145  43.124  57.134  1.00  0.00    -0.084 Cl
HETATM   34  C   UNL     1      30.341  45.179  57.185  1.00  0.00    -0.040 A 
HETATM   35  C   UNL     1      30.884  45.599  58.522  1.00  0.00     0.050 C 
HETATM   36  C   UNL     1      29.281  45.891  56.611  1.00  0.00     0.011 A 
HETATM   37  C   UNL     1      28.751  45.514  55.373  1.00  0.00     0.030 A 
ENDBRANCH  27  30
ENDBRANCH  25  26
ENDBRANCH   7  25
TORSDOF 7
ENDMDL
MODEL 4
REMARK VINA RESULT:      -9.7      2.103      2.919
REMARK  7 active torsions:
REMARK  status: ('A' for Active; 'I' for Inactive)
REMARK    1  A    between atoms: C_2  and  N_3 
REMARK    2  A    between atoms: C_5  and  C_6 
REMARK    3  A    between atoms: C_6  and  N_7 
REMARK       I    between atoms: N_7  and  C_8 
REMARK    4  A    between atoms: C_8  and  C_9 
REMARK    5  A    between atoms: N_15  and  C_16 
REMARK    6  A    between atoms: C_16  and  C_17 
REMARK       I    between atoms: C_17  and  N_18 
REMARK    7  A    between atoms: N_18  and  C_19 
ROOT
HETATM    1  C   UNL     1      22.568  46.600  48.423  1.00  0.00     0.081 A 
HETATM    2  S   UNL     1      23.512  47.789  49.223  1.00  0.00    -0.063 SA
HETATM    3  C   UNL     1      24.418  46.625  50.059  1.00  0.00     0.116 A 
HETATM    4  C   UNL     1      24.007  45.344  49.769  1.00  0.00     0.075 A 
HETATM    5  C   UNL     1      24.762  44.250  50.372  1.00  0.00     0.262 A 
HETATM    6  O   UNL     1      24.498  43.068  50.174  1.00  0.00    -0.267 OA
HETATM    7  N   UNL     1      25.823  44.666  51.175  1.00  0.00    -0.299 N 
HETATM    8  C   UNL     1      26.106  46.005  51.368  1.00  0.00     0.214 A 
HETATM    9  N   UNL     1      25.437  46.995  50.872  1.00  0.00    -0.235 NA
HETATM   10  C   UNL     1      22.881  45.313  48.860  1.00  0.00    -0.021 A 
HETATM   11  C   UNL     1      22.199  44.066  48.385  1.00  0.00     0.051 C 
ENDROOT
BRANCH   1  12
HETATM   12  C   UNL     1      21.581  47.008  47.427  1.00  0.00     0.259 C 
HETATM   13  N   UNL     1      20.541  47.786  47.900  1.00  0.00    -0.354 N 
HETATM   14  H   UNL     1      20.617  48.046  48.882  1.00  0.00     0.162 HD
HETATM   15  O   UNL     1      21.629  46.691  46.238  1.00  0.00    -0.267 OA
BRANCH  13  16
HETATM   16  C   UNL     1      19.580  48.547  47.106  1.00  0.00     0.156 C 
BRANCH  16  17
HETATM   17  C   UNL     1      19.508  50.071  47.307  1.00  0.00     0.206 C 
HETATM   18  N   UNL     1      18.131  50.633  47.635  1.00  0.00    -0.066 N 
HETATM   19  H   UNL     1      17.655  50.650  46.708  1.00  0.00     0.280 HD
HETATM   20  C   UNL     1      18.407  52.047  48.104  1.00  0.00     0.235 C 
HETATM   21  C   UNL     1      19.861  52.049  48.571  1.00  0.00     0.030 C 
HETATM   22  C   UNL     1      20.355  50.616  48.441  1.00  0.00     0.036 C 
BRANCH  18  23
HETATM   23  C   UNL     1      17.259  49.844  48.578  1.00  0.00     0.231 C 
HETATM   24  C   UNL     1      15.839  49.778  48.043  1.00  0.00     0.034 C 
ENDBRANCH  18  23
ENDBRANCH  16  17
ENDBRANCH  13  16
ENDBRANCH   1  12
BRANCH   7  25
HETATM   25  C   UNL     1      26.757  43.658  51.650  1.00  0.00     0.236 C 
BRANCH  25  26
HETATM   26  C   UNL     1      27.078  43.930  53.127  1.00  0.00     0.240 C 
HETATM   27  N   UNL     1      28.407  44.267  53.333  1.00  0.00    -0.326 N 
HETATM   28  H   UNL     1      29.023  44.262  52.528  1.00  0.00     0.169 HD
HETATM   29  O   UNL     1      26.226  43.794  54.001  1.00  0.00    -0.271 OA
BRANCH  27  30
HETATM   30  C   UNL     1      29.018  44.597  54.564  1.00  0.00     0.036 A 
HETATM   31  C   UNL     1      30.065  43.872  55.137  1.00  0.00     0.053 A 
HETATM   32  C   UNL     1      30.612  44.262  56.367  1.00  0.00     0.042 A 
HETATM   33 CL   UNL     1      31.892  43.299  57.019  1.00  0.00    -0.084 Cl
HETATM   34  C   UNL     1      30.127  45.388  57.046  1.00  0.00    -0.040 A 
HETATM   35  C   UNL     1      30.693  45.826  58.367  1.00  0.00     0.050 C 
HETATM   36  C   UNL     1      29.074  46.108  56.469  1.00  0.00     0.011 A 
HETATM   37  C   UNL     1      28.523  45.714  55.245  1.00  0.00     0.030 A 
ENDBRANCH  27  30
ENDBRANCH  25  26
ENDBRANCH   7  25
TORSDOF 7
ENDMDL
MODEL 5
REMARK VINA RESULT:      -9.0      2.797      4.546
REMARK  7 active torsions:
REMARK  status: ('A' for Active; 'I' for Inactive)
REMARK    1  A    between atoms: C_2  and  N_3 
REMARK    2  A    between atoms: C_5  and  C_6 
REMARK    3  A    between atoms: C_6  and  N_7 
REMARK       I    between atoms: N_7  and  C_8 
REMARK    4  A    between atoms: C_8  and  C_9 
REMARK    5  A    between atoms: N_15  and  C_16 
REMARK    6  A    between atoms: C_16  and  C_17 
REMARK       I    between atoms: C_17  and  N_18 
REMARK    7  A    between atoms: N_18  and  C_19 
ROOT
HETATM    1  C   UNL     1      21.552  49.505  48.377  1.00  0.00     0.081 A 
HETATM    2  S   UNL     1      23.046  50.182  48.884  1.00  0.00    -0.063 SA
HETATM    3  C   UNL     1      23.714  48.661  49.224  1.00  0.00     0.116 A 
HETATM    4  C   UNL     1      22.821  47.641  48.988  1.00  0.00     0.075 A 
HETATM    5  C   UNL     1      23.306  46.277  49.173  1.00  0.00     0.262 A 
HETATM    6  O   UNL     1      22.607  45.287  48.978  1.00  0.00    -0.267 OA
HETATM    7  N   UNL     1      24.640  46.196  49.569  1.00  0.00    -0.299 N 
HETATM    8  C   UNL     1      25.408  47.327  49.767  1.00  0.00     0.214 A 
HETATM    9  N   UNL     1      24.998  48.548  49.640  1.00  0.00    -0.235 NA
HETATM   10  C   UNL     1      21.528  48.122  48.552  1.00  0.00    -0.021 A 
HETATM   11  C   UNL     1      20.349  47.250  48.246  1.00  0.00     0.051 C 
ENDROOT
BRANCH   1  12
HETATM   12  C   UNL     1      20.505  50.376  47.851  1.00  0.00     0.259 C 
HETATM   13  N   UNL     1      20.096  51.395  48.690  1.00  0.00    -0.354 N 
HETATM   14  H   UNL     1      20.623  51.467  49.559  1.00  0.00     0.162 HD
HETATM   15  O   UNL     1      19.985  50.236  46.743  1.00  0.00    -0.267 OA
BRANCH  13  16
HETATM   16  C   UNL     1      19.280  52.553  48.335  1.00  0.00     0.156 C 
BRANCH  16  17
HETATM   17  C   UNL     1      17.797  52.558  48.746  1.00  0.00     0.206 C 
HETATM   18  N   UNL     1      16.794  52.686  47.607  1.00  0.00    -0.066 N 
HETATM   19  H   UNL     1      16.819  53.703  47.381  1.00  0.00     0.280 HD
HETATM   20  C   UNL     1      15.465  52.328  48.239  1.00  0.00     0.235 C 
HETATM   21  C   UNL     1      15.807  51.484  49.466  1.00  0.00     0.030 C 
HETATM   22  C   UNL     1      17.318  51.308  49.457  1.00  0.00     0.036 C 
BRANCH  18  23
HETATM   23  C   UNL     1      17.079  51.931  46.334  1.00  0.00     0.231 C 
HETATM   24  C   UNL     1      16.935  52.855  45.137  1.00  0.00     0.034 C 
ENDBRANCH  18  23
ENDBRANCH  16  17
ENDBRANCH  13  16
ENDBRANCH   1  12
BRANCH   7  25
HETATM   25  C   UNL     1      25.273  44.887  49.578  1.00  0.00     0.236 C 
BRANCH  25  26
HETATM   26  C   UNL     1      26.522  44.941  50.470  1.00  0.00     0.240 C 
HETATM   27  N   UNL     1      26.212  44.995  51.822  1.00  0.00    -0.326 N 
HETATM   28  H   UNL     1      25.232  45.033  52.077  1.00  0.00     0.169 HD
HETATM   29  O   UNL     1      27.650  44.986  49.989  1.00  0.00    -0.271 OA
BRANCH  27  30
HETATM   30  C   UNL     1      27.124  45.030  52.900  1.00  0.00     0.036 A 
HETATM   31  C   UNL     1      28.110  44.067  53.123  1.00  0.00     0.053 A 
HETATM   32  C   UNL     1      28.972  44.171  54.223  1.00  0.00     0.042 A 
HETATM   33 CL   UNL     1      30.153  42.926  54.440  1.00  0.00    -0.084 Cl
HETATM   34  C   UNL     1      28.870  45.244  55.119  1.00  0.00    -0.040 A 
HETATM   35  C   UNL     1      29.779  45.378  56.307  1.00  0.00     0.050 C 
HETATM   36  C   UNL     1      27.876  46.204  54.893  1.00  0.00     0.011 A 
HETATM   37  C   UNL     1      27.011  46.096  53.800  1.00  0.00     0.030 A 
ENDBRANCH  27  30
ENDBRANCH  25  26
ENDBRANCH   7  25
TORSDOF 7
ENDMDL
MODEL 6
REMARK VINA RESULT:      -9.0      2.675      4.301
REMARK  7 active torsions:
REMARK  status: ('A' for Active; 'I' for Inactive)
REMARK    1  A    between atoms: C_2  and  N_3 
REMARK    2  A    between atoms: C_5  and  C_6 
REMARK    3  A    between atoms: C_6  and  N_7 
REMARK       I    between atoms: N_7  and  C_8 
REMARK    4  A    between atoms: C_8  and  C_9 
REMARK    5  A    between atoms: N_15  and  C_16 
REMARK    6  A    between atoms: C_16  and  C_17 
REMARK       I    between atoms: C_17  and  N_18 
REMARK    7  A    between atoms: N_18  and  C_19 
ROOT
HETATM    1  C   UNL     1      20.520  47.457  47.838  1.00  0.00     0.081 A 
HETATM    2  S   UNL     1      21.876  48.385  48.334  1.00  0.00    -0.063 SA
HETATM    3  C   UNL     1      22.722  47.015  48.865  1.00  0.00     0.116 A 
HETATM    4  C   UNL     1      21.991  45.860  48.702  1.00  0.00     0.075 A 
HETATM    5  C   UNL     1      22.644  44.604  49.054  1.00  0.00     0.262 A 
HETATM    6  O   UNL     1      22.097  43.511  48.937  1.00  0.00    -0.267 OA
HETATM    7  N   UNL     1      23.951  44.752  49.515  1.00  0.00    -0.299 N 
HETATM    8  C   UNL     1      24.547  45.994  49.622  1.00  0.00     0.214 A 
HETATM    9  N   UNL     1      23.984  47.125  49.346  1.00  0.00    -0.235 NA
HETATM   10  C   UNL     1      20.672  46.109  48.160  1.00  0.00    -0.021 A 
HETATM   11  C   UNL     1      19.642  45.053  47.899  1.00  0.00     0.051 C 
ENDROOT
BRANCH   1  12
HETATM   12  C   UNL     1      19.397  48.114  47.175  1.00  0.00     0.259 C 
HETATM   13  N   UNL     1      18.396  48.575  48.009  1.00  0.00    -0.354 N 
HETATM   14  H   UNL     1      18.588  48.466  49.003  1.00  0.00     0.162 HD
HETATM   15  O   UNL     1      19.304  48.255  45.955  1.00  0.00    -0.267 OA
BRANCH  13  16
HETATM   16  C   UNL     1      17.311  49.488  47.660  1.00  0.00     0.156 C 
BRANCH  16  17
HETATM   17  C   UNL     1      16.813  50.476  48.728  1.00  0.00     0.206 C 
HETATM   18  N   UNL     1      17.829  51.506  49.205  1.00  0.00    -0.066 N 
HETATM   19  H   UNL     1      18.424  50.964  49.867  1.00  0.00     0.280 HD
HETATM   20  C   UNL     1      17.002  52.523  49.964  1.00  0.00     0.235 C 
HETATM   21  C   UNL     1      15.580  52.381  49.425  1.00  0.00     0.030 C 
HETATM   22  C   UNL     1      15.645  51.349  48.310  1.00  0.00     0.036 C 
BRANCH  18  23
HETATM   23  C   UNL     1      18.740  52.120  48.173  1.00  0.00     0.231 C 
HETATM   24  C   UNL     1      20.191  51.827  48.520  1.00  0.00     0.034 C 
ENDBRANCH  18  23
ENDBRANCH  16  17
ENDBRANCH  13  16
ENDBRANCH   1  12
BRANCH   7  25
HETATM   25  C   UNL     1      24.753  43.552  49.693  1.00  0.00     0.236 C 
BRANCH  25  26
HETATM   26  C   UNL     1      25.408  43.590  51.082  1.00  0.00     0.240 C 
HETATM   27  N   UNL     1      26.792  43.508  51.024  1.00  0.00    -0.326 N 
HETATM   28  H   UNL     1      27.217  43.395  50.111  1.00  0.00     0.169 HD
HETATM   29  O   UNL     1      24.732  43.631  52.106  1.00  0.00    -0.271 OA
BRANCH  27  30
HETATM   30  C   UNL     1      27.689  43.539  52.115  1.00  0.00     0.036 A 
HETATM   31  C   UNL     1      27.660  44.501  53.126  1.00  0.00     0.053 A 
HETATM   32  C   UNL     1      28.593  44.465  54.171  1.00  0.00     0.042 A 
HETATM   33 CL   UNL     1      28.502  45.705  55.374  1.00  0.00    -0.084 Cl
HETATM   34  C   UNL     1      29.569  43.462  54.231  1.00  0.00    -0.040 A 
HETATM   35  C   UNL     1      30.583  43.402  55.338  1.00  0.00     0.050 C 
HETATM   36  C   UNL     1      29.597  42.502  53.211  1.00  0.00     0.011 A 
HETATM   37  C   UNL     1      28.671  42.543  52.164  1.00  0.00     0.030 A 
ENDBRANCH  27  30
ENDBRANCH  25  26
ENDBRANCH   7  25
TORSDOF 7
ENDMDL
MODEL 7
REMARK VINA RESULT:      -8.8      4.356      7.445
REMARK  7 active torsions:
REMARK  status: ('A' for Active; 'I' for Inactive)
REMARK    1  A    between atoms: C_2  and  N_3 
REMARK    2  A    between atoms: C_5  and  C_6 
REMARK    3  A    between atoms: C_6  and  N_7 
REMARK       I    between atoms: N_7  and  C_8 
REMARK    4  A    between atoms: C_8  and  C_9 
REMARK    5  A    between atoms: N_15  and  C_16 
REMARK    6  A    between atoms: C_16  and  C_17 
REMARK       I    between atoms: C_17  and  N_18 
REMARK    7  A    between atoms: N_18  and  C_19 
ROOT
HETATM    1  C   UNL     1      18.242  50.566  49.256  1.00  0.00     0.081 A 
HETATM    2  S   UNL     1      19.512  51.675  49.581  1.00  0.00    -0.063 SA
HETATM    3  C   UNL     1      20.698  50.467  49.496  1.00  0.00     0.116 A 
HETATM    4  C   UNL     1      20.155  49.225  49.252  1.00  0.00     0.075 A 
HETATM    5  C   UNL     1      21.086  48.115  49.082  1.00  0.00     0.262 A 
HETATM    6  O   UNL     1      20.720  46.967  48.845  1.00  0.00    -0.267 OA
HETATM    7  N   UNL     1      22.428  48.474  49.190  1.00  0.00    -0.299 N 
HETATM    8  C   UNL     1      22.812  49.778  49.442  1.00  0.00     0.214 A 
HETATM    9  N   UNL     1      22.011  50.776  49.627  1.00  0.00    -0.235 NA
HETATM   10  C   UNL     1      18.711  49.256  49.172  1.00  0.00    -0.021 A 
HETATM   11  C   UNL     1      17.842  48.057  48.943  1.00  0.00     0.051 C 
ENDROOT
BRANCH   1  12
HETATM   12  C   UNL     1      16.874  51.055  49.113  1.00  0.00     0.259 C 
HETATM   13  N   UNL     1      16.519  52.094  49.954  1.00  0.00    -0.354 N 
HETATM   14  H   UNL     1      17.277  52.449  50.533  1.00  0.00     0.162 HD
HETATM   15  O   UNL     1      16.055  50.590  48.320  1.00  0.00    -0.267 OA
BRANCH  13  16
HETATM   16  C   UNL     1      15.335  52.943  49.851  1.00  0.00     0.156 C 
BRANCH  16  17
HETATM   17  C   UNL     1      15.406  54.370  50.420  1.00  0.00     0.206 C 
HETATM   18  N   UNL     1      15.088  55.492  49.440  1.00  0.00    -0.066 N 
HETATM   19  H   UNL     1      15.967  55.581  48.887  1.00  0.00     0.280 HD
HETATM   20  C   UNL     1      14.900  56.712  50.317  1.00  0.00     0.235 C 
HETATM   21  C   UNL     1      14.544  56.173  51.701  1.00  0.00     0.030 C 
HETATM   22  C   UNL     1      14.450  54.661  51.561  1.00  0.00     0.036 C 
BRANCH  18  23
HETATM   23  C   UNL     1      13.959  55.271  48.466  1.00  0.00     0.231 C 
HETATM   24  C   UNL     1      13.563  56.589  47.820  1.00  0.00     0.034 C 
ENDBRANCH  18  23
ENDBRANCH  16  17
ENDBRANCH  13  16
ENDBRANCH   1  12
BRANCH   7  25
HETATM   25  C   UNL     1      23.433  47.486  48.833  1.00  0.00     0.236 C 
BRANCH  25  26
HETATM   26  C   UNL     1      24.576  47.541  49.857  1.00  0.00     0.240 C 
HETATM   27  N   UNL     1      24.430  46.609  50.874  1.00  0.00    -0.326 N 
HETATM   28  H   UNL     1      23.595  46.033  50.865  1.00  0.00     0.169 HD
HETATM   29  O   UNL     1      25.471  48.377  49.771  1.00  0.00    -0.271 OA
BRANCH  27  30
HETATM   30  C   UNL     1      25.313  46.385  51.954  1.00  0.00     0.036 A 
HETATM   31  C   UNL     1      25.484  47.269  53.021  1.00  0.00     0.053 A 
HETATM   32  C   UNL     1      26.387  46.977  54.051  1.00  0.00     0.042 A 
HETATM   33 CL   UNL     1      26.555  48.133  55.326  1.00  0.00    -0.084 Cl
HETATM   34  C   UNL     1      27.134  45.790  54.039  1.00  0.00    -0.040 A 
HETATM   35  C   UNL     1      28.111  45.454  55.129  1.00  0.00     0.050 C 
HETATM   36  C   UNL     1      26.962  44.910  52.963  1.00  0.00     0.011 A 
HETATM   37  C   UNL     1      26.066  45.206  51.931  1.00  0.00     0.030 A 
ENDBRANCH  27  30
ENDBRANCH  25  26
ENDBRANCH   7  25
TORSDOF 7
ENDMDL
MODEL 8
REMARK VINA RESULT:      -8.6      2.553      3.561
REMARK  7 active torsions:
REMARK  status: ('A' for Active; 'I' for Inactive)
REMARK    1  A    between atoms: C_2  and  N_3 
REMARK    2  A    between atoms: C_5  and  C_6 
REMARK    3  A    between atoms: C_6  and  N_7 
REMARK       I    between atoms: N_7  and  C_8 
REMARK    4  A    between atoms: C_8  and  C_9 
REMARK    5  A    between atoms: N_15  and  C_16 
REMARK    6  A    between atoms: C_16  and  C_17 
REMARK       I    between atoms: C_17  and  N_18 
REMARK    7  A    between atoms: N_18  and  C_19 
ROOT
HETATM    1  C   UNL     1      22.868  48.668  48.506  1.00  0.00     0.081 A 
HETATM    2  S   UNL     1      24.265  49.313  49.266  1.00  0.00    -0.063 SA
HETATM    3  C   UNL     1      24.733  47.801  49.873  1.00  0.00     0.116 A 
HETATM    4  C   UNL     1      23.839  46.810  49.537  1.00  0.00     0.075 A 
HETATM    5  C   UNL     1      24.174  45.448  49.940  1.00  0.00     0.262 A 
HETATM    6  O   UNL     1      23.461  44.482  49.684  1.00  0.00    -0.267 OA
HETATM    7  N   UNL     1      25.383  45.337  50.623  1.00  0.00    -0.299 N 
HETATM    8  C   UNL     1      26.173  46.441  50.885  1.00  0.00     0.214 A 
HETATM    9  N   UNL     1      25.889  47.662  50.567  1.00  0.00    -0.235 NA
HETATM   10  C   UNL     1      22.707  47.313  48.789  1.00  0.00    -0.021 A 
HETATM   11  C   UNL     1      21.559  46.477  48.311  1.00  0.00     0.051 C 
ENDROOT
BRANCH   1  12
HETATM   12  C   UNL     1      22.022  49.535  47.690  1.00  0.00     0.259 C 
HETATM   13  N   UNL     1      20.660  49.381  47.868  1.00  0.00    -0.354 N 
HETATM   14  H   UNL     1      20.399  48.726  48.602  1.00  0.00     0.162 HD
HETATM   15  O   UNL     1      22.454  50.352  46.876  1.00  0.00    -0.267 OA
BRANCH  13  16
HETATM   16  C   UNL     1      19.605  50.277  47.400  1.00  0.00     0.156 C 
BRANCH  16  17
HETATM   17  C   UNL     1      18.171  50.046  47.906  1.00  0.00     0.206 C 
HETATM   18  N   UNL     1      17.068  50.728  47.107  1.00  0.00    -0.066 N 
HETATM   19  H   UNL     1      17.112  51.716  47.436  1.00  0.00     0.280 HD
HETATM   20  C   UNL     1      15.793  50.074  47.597  1.00  0.00     0.235 C 
HETATM   21  C   UNL     1      16.218  48.723  48.171  1.00  0.00     0.030 C 
HETATM   22  C   UNL     1      17.712  48.600  47.916  1.00  0.00     0.036 C 
BRANCH  18  23
HETATM   23  C   UNL     1      17.198  50.743  45.605  1.00  0.00     0.231 C 
HETATM   24  C   UNL     1      17.347  52.172  45.110  1.00  0.00     0.034 C 
ENDBRANCH  18  23
ENDBRANCH  16  17
ENDBRANCH  13  16
ENDBRANCH   1  12
BRANCH   7  25
HETATM   25  C   UNL     1      25.903  44.004  50.883  1.00  0.00     0.236 C 
BRANCH  25  26
HETATM   26  C   UNL     1      26.488  43.963  52.303  1.00  0.00     0.240 C 
HETATM   27  N   UNL     1      27.875  43.970  52.310  1.00  0.00    -0.326 N 
HETATM   28  H   UNL     1      28.349  43.959  51.414  1.00  0.00     0.169 HD
HETATM   29  O   UNL     1      25.764  43.878  53.290  1.00  0.00    -0.271 OA
BRANCH  27  30
HETATM   30  C   UNL     1      28.718  43.961  53.445  1.00  0.00     0.036 A 
HETATM   31  C   UNL     1      28.619  44.871  54.499  1.00  0.00     0.053 A 
HETATM   32  C   UNL     1      29.500  44.799  55.587  1.00  0.00     0.042 A 
HETATM   33 CL   UNL     1      29.325  45.976  56.842  1.00  0.00    -0.084 Cl
HETATM   34  C   UNL     1      30.492  43.811  55.646  1.00  0.00    -0.040 A 
HETATM   35  C   UNL     1      31.451  43.714  56.799  1.00  0.00     0.050 C 
HETATM   36  C   UNL     1      30.589  42.904  54.583  1.00  0.00     0.011 A 
HETATM   37  C   UNL     1      29.715  42.981  53.494  1.00  0.00     0.030 A 
ENDBRANCH  27  30
ENDBRANCH  25  26
ENDBRANCH   7  25
TORSDOF 7
ENDMDL
MODEL 9
REMARK VINA RESULT:      -8.4      2.165      2.899
REMARK  7 active torsions:
REMARK  status: ('A' for Active; 'I' for Inactive)
REMARK    1  A    between atoms: C_2  and  N_3 
REMARK    2  A    between atoms: C_5  and  C_6 
REMARK    3  A    between atoms: C_6  and  N_7 
REMARK       I    between atoms: N_7  and  C_8 
REMARK    4  A    between atoms: C_8  and  C_9 
REMARK    5  A    between atoms: N_15  and  C_16 
REMARK    6  A    between atoms: C_16  and  C_17 
REMARK       I    between atoms: C_17  and  N_18 
REMARK    7  A    between atoms: N_18  and  C_19 
ROOT
HETATM    1  C   UNL     1      22.867  44.964  47.550  1.00  0.00     0.081 A 
HETATM    2  S   UNL     1      23.044  43.542  46.605  1.00  0.00    -0.063 SA
HETATM    3  C   UNL     1      24.004  42.784  47.779  1.00  0.00     0.116 A 
HETATM    4  C   UNL     1      24.221  43.593  48.871  1.00  0.00     0.075 A 
HETATM    5  C   UNL     1      24.973  43.021  49.983  1.00  0.00     0.262 A 
HETATM    6  O   UNL     1      25.215  43.641  51.015  1.00  0.00    -0.267 OA
HETATM    7  N   UNL     1      25.373  41.701  49.782  1.00  0.00    -0.299 N 
HETATM    8  C   UNL     1      25.073  41.022  48.616  1.00  0.00     0.214 A 
HETATM    9  N   UNL     1      24.435  41.512  47.602  1.00  0.00    -0.235 NA
HETATM   10  C   UNL     1      23.614  44.899  48.725  1.00  0.00    -0.021 A 
HETATM   11  C   UNL     1      23.704  46.001  49.736  1.00  0.00     0.051 C 
ENDROOT
BRANCH   1  12
HETATM   12  C   UNL     1      22.013  46.049  47.073  1.00  0.00     0.259 C 
HETATM   13  N   UNL     1      21.264  46.690  48.041  1.00  0.00    -0.354 N 
HETATM   14  H   UNL     1      21.444  46.379  48.994  1.00  0.00     0.162 HD
HETATM   15  O   UNL     1      21.928  46.390  45.893  1.00  0.00    -0.267 OA
BRANCH  13  16
HETATM   16  C   UNL     1      20.545  47.955  47.903  1.00  0.00     0.156 C 
BRANCH  16  17
HETATM   17  C   UNL     1      20.653  48.986  49.039  1.00  0.00     0.206 C 
HETATM   18  N   UNL     1      21.997  49.691  49.170  1.00  0.00    -0.066 N 
HETATM   19  H   UNL     1      22.592  48.981  49.648  1.00  0.00     0.280 HD
HETATM   20  C   UNL     1      21.722  50.851  50.104  1.00  0.00     0.235 C 
HETATM   21  C   UNL     1      20.220  51.111  50.004  1.00  0.00     0.030 C 
HETATM   22  C   UNL     1      19.688  50.152  48.949  1.00  0.00     0.036 C 
BRANCH  18  23
HETATM   23  C   UNL     1      22.703  50.094  47.901  1.00  0.00     0.231 C 
HETATM   24  C   UNL     1      24.181  49.754  47.996  1.00  0.00     0.034 C 
ENDBRANCH  18  23
ENDBRANCH  16  17
ENDBRANCH  13  16
ENDBRANCH   1  12
BRANCH   7  25
HETATM   25  C   UNL     1      25.943  40.979  50.908  1.00  0.00     0.236 C 
BRANCH  25  26
HETATM   26  C   UNL     1      27.139  41.770  51.456  1.00  0.00     0.240 C 
HETATM   27  N   UNL     1      26.967  42.155  52.778  1.00  0.00    -0.326 N 
HETATM   28  H   UNL     1      26.086  41.923  53.222  1.00  0.00     0.169 HD
HETATM   29  O   UNL     1      28.098  42.054  50.744  1.00  0.00    -0.271 OA
BRANCH  27  30
HETATM   30  C   UNL     1      27.883  42.871  53.579  1.00  0.00     0.036 A 
HETATM   31  C   UNL     1      27.726  44.210  53.943  1.00  0.00     0.053 A 
HETATM   32  C   UNL     1      28.687  44.851  54.736  1.00  0.00     0.042 A 
HETATM   33 CL   UNL     1      28.428  46.516  55.126  1.00  0.00    -0.084 Cl
HETATM   34  C   UNL     1      29.822  44.164  55.189  1.00  0.00    -0.040 A 
HETATM   35  C   UNL     1      30.869  44.827  56.037  1.00  0.00     0.050 C 
HETATM   36  C   UNL     1      29.977  42.823  54.816  1.00  0.00     0.011 A 
HETATM   37  C   UNL     1      29.022  42.186  54.018  1.00  0.00     0.030 A 
ENDBRANCH  27  30
ENDBRANCH  25  26
ENDBRANCH   7  25
TORSDOF 7
ENDMDL
MODEL 10
REMARK VINA RESULT:      -8.2      5.856     13.272
REMARK  7 active torsions:
REMARK  status: ('A' for Active; 'I' for Inactive)
REMARK    1  A    between atoms: C_2  and  N_3 
REMARK    2  A    between atoms: C_5  and  C_6 
REMARK    3  A    between atoms: C_6  and  N_7 
REMARK       I    between atoms: N_7  and  C_8 
REMARK    4  A    between atoms: C_8  and  C_9 
REMARK    5  A    between atoms: N_15  and  C_16 
REMARK    6  A    between atoms: C_16  and  C_17 
REMARK       I    between atoms: C_17  and  N_18 
REMARK    7  A    between atoms: N_18  and  C_19 
ROOT
HETATM    1  C   UNL     1      21.870  48.891  48.863  1.00  0.00     0.081 A 
HETATM    2  S   UNL     1      20.603  47.733  48.844  1.00  0.00    -0.063 SA
HETATM    3  C   UNL     1      19.409  48.921  48.647  1.00  0.00     0.116 A 
HETATM    4  C   UNL     1      19.942  50.190  48.621  1.00  0.00     0.075 A 
HETATM    5  C   UNL     1      19.019  51.294  48.381  1.00  0.00     0.262 A 
HETATM    6  O   UNL     1      19.381  52.466  48.320  1.00  0.00    -0.267 OA
HETATM    7  N   UNL     1      17.694  50.900  48.203  1.00  0.00    -0.299 N 
HETATM    8  C   UNL     1      17.318  49.572  48.261  1.00  0.00     0.214 A 
HETATM    9  N   UNL     1      18.107  48.575  48.502  1.00  0.00    -0.235 NA
HETATM   10  C   UNL     1      21.377  50.194  48.810  1.00  0.00    -0.021 A 
HETATM   11  C   UNL     1      22.229  51.426  48.857  1.00  0.00     0.051 C 
ENDROOT
BRANCH   1  12
HETATM   12  C   UNL     1      23.258  48.444  48.935  1.00  0.00     0.259 C 
HETATM   13  N   UNL     1      23.627  47.829  50.117  1.00  0.00    -0.354 N 
HETATM   14  H   UNL     1      22.867  47.693  50.781  1.00  0.00     0.162 HD
HETATM   15  O   UNL     1      24.080  48.599  48.032  1.00  0.00    -0.267 OA
BRANCH  13  16
HETATM   16  C   UNL     1      24.843  47.057  50.365  1.00  0.00     0.156 C 
BRANCH  16  17
HETATM   17  C   UNL     1      25.036  46.420  51.751  1.00  0.00     0.206 C 
HETATM   18  N   UNL     1      25.530  44.979  51.756  1.00  0.00    -0.066 N 
HETATM   19  H   UNL     1      24.671  44.432  51.534  1.00  0.00     0.280 HD
HETATM   20  C   UNL     1      25.946  44.732  53.192  1.00  0.00     0.235 C 
HETATM   21  C   UNL     1      26.226  46.113  53.782  1.00  0.00     0.030 C 
HETATM   22  C   UNL     1      26.048  47.109  52.646  1.00  0.00     0.036 C 
BRANCH  18  23
HETATM   23  C   UNL     1      26.584  44.597  50.749  1.00  0.00     0.231 C 
HETATM   24  C   UNL     1      27.716  43.853  51.437  1.00  0.00     0.034 C 
ENDBRANCH  18  23
ENDBRANCH  16  17
ENDBRANCH  13  16
ENDBRANCH   1  12
BRANCH   7  25
HETATM   25  C   UNL     1      16.737  51.899  47.754  1.00  0.00     0.236 C 
BRANCH  25  26
HETATM   26  C   UNL     1      16.131  52.597  48.980  1.00  0.00     0.240 C 
HETATM   27  N   UNL     1      15.359  53.700  48.641  1.00  0.00    -0.326 N 
HETATM   28  H   UNL     1      15.307  53.951  47.660  1.00  0.00     0.169 HD
HETATM   29  O   UNL     1      16.378  52.216  50.120  1.00  0.00    -0.271 OA
BRANCH  27  30
HETATM   30  C   UNL     1      14.649  54.542  49.525  1.00  0.00     0.036 A 
HETATM   31  C   UNL     1      15.204  55.652  50.165  1.00  0.00     0.053 A 
HETATM   32  C   UNL     1      14.432  56.433  51.034  1.00  0.00     0.042 A 
HETATM   33 CL   UNL     1      15.199  57.779  51.803  1.00  0.00    -0.084 Cl
HETATM   34  C   UNL     1      13.086  56.125  51.277  1.00  0.00    -0.040 A 
HETATM   35  C   UNL     1      12.237  56.944  52.207  1.00  0.00     0.050 C 
HETATM   36  C   UNL     1      12.536  55.007  50.637  1.00  0.00     0.011 A 
HETATM   37  C   UNL     1      13.309  54.223  49.775  1.00  0.00     0.030 A 
ENDBRANCH  27  30
ENDBRANCH  25  26
ENDBRANCH   7  25
TORSDOF 7
ENDMDL
