MODEL 1
REMARK VINA RESULT:      -8.7      0.000      0.000
REMARK  6 active torsions:
REMARK  status: ('A' for Active; 'I' for Inactive)
REMARK    1  A    between atoms: C_2  and  O_3 
REMARK    2  A    between atoms: O_3  and  C_4 
REMARK    3  A    between atoms: C_5  and  O_6 
REMARK    4  A    between atoms: C_9  and  C_10 
REMARK    5  A    between atoms: C_19  and  C_20 
REMARK    6  A    between atoms: C_22  and  O_23 
ROOT
HETATM    1  C   UNL     1      27.527  43.528  50.508  1.00  0.00     0.156 A 
HETATM    2  N   UNL     1      27.231  42.367  49.648  1.00  0.00    -0.343 N 
HETATM    3  C   UNL     1      27.100  41.164  50.334  1.00  0.00     0.271 A 
HETATM    4  O   UNL     1      26.861  40.068  49.867  1.00  0.00    -0.266 OA
HETATM    5  C   UNL     1      27.292  41.535  51.683  1.00  0.00     0.128 A 
HETATM    6  C   UNL     1      27.523  42.871  51.831  1.00  0.00     0.034 A 
HETATM    7  N   UNL     1      27.289  40.979  52.903  1.00  0.00    -0.272 N 
HETATM    8  H   UNL     1      27.141  40.010  53.168  1.00  0.00     0.189 HD
HETATM    9  N   UNL     1      27.501  41.906  53.869  1.00  0.00    -0.173 NA
HETATM   10  C   UNL     1      27.654  43.084  53.213  1.00  0.00     0.098 A 
HETATM   11  H   UNL     1      27.107  42.418  48.648  1.00  0.00     0.163 HD
ENDROOT
BRANCH   1  12
HETATM   12  C   UNL     1      26.449  44.581  50.463  1.00  0.00    -0.028 A 
HETATM   13  C   UNL     1      25.075  44.269  50.434  1.00  0.00     0.012 A 
HETATM   14  C   UNL     1      24.108  45.276  50.356  1.00  0.00     0.040 A 
HETATM   15  C   UNL     1      24.505  46.603  50.298  1.00  0.00     0.099 A 
HETATM   16  C   UNL     1      25.855  46.935  50.358  1.00  0.00     0.102 A 
HETATM   17  C   UNL     1      26.824  45.935  50.414  1.00  0.00     0.049 A 
BRANCH  15  18
HETATM   18  O   UNL     1      23.546  47.564  50.157  1.00  0.00    -0.358 OA
HETATM   19  H   UNL     1      22.821  47.307  50.756  1.00  0.00     0.218 HD
ENDBRANCH  15  18
BRANCH  16  20
HETATM   20  O   UNL     1      26.261  48.242  50.299  1.00  0.00    -0.349 OA
BRANCH  20  21
HETATM   21  C   UNL     1      27.136  48.448  49.179  1.00  0.00     0.171 C 
HETATM   22  C   UNL     1      26.709  49.724  48.478  1.00  0.00     0.034 C 
ENDBRANCH  20  21
ENDBRANCH  16  20
ENDBRANCH   1  12
BRANCH  10  23
HETATM   23  C   UNL     1      27.883  44.334  53.939  1.00  0.00    -0.002 A 
HETATM   24  C   UNL     1      29.034  44.479  54.733  1.00  0.00     0.050 A 
HETATM   25  C   UNL     1      29.264  45.653  55.452  1.00  0.00     0.069 A 
HETATM   26  C   UNL     1      28.335  46.693  55.376  1.00  0.00     0.037 A 
HETATM   27  C   UNL     1      27.195  46.570  54.584  1.00  0.00     0.004 A 
HETATM   28  C   UNL     1      26.971  45.395  53.864  1.00  0.00     0.014 A 
BRANCH  25  29
HETATM   29  O   UNL     1      30.340  45.904  56.259  1.00  0.00    -0.356 OA
HETATM   30  C   UNL     1      30.106  45.887  57.662  1.00  0.00     0.210 C 
ENDBRANCH  25  29
ENDBRANCH  10  23
TORSDOF 6
ENDMDL
MODEL 2
REMARK VINA RESULT:      -8.4      1.625      5.429
REMARK  6 active torsions:
REMARK  status: ('A' for Active; 'I' for Inactive)
REMARK    1  A    between atoms: C_2  and  O_3 
REMARK    2  A    between atoms: O_3  and  C_4 
REMARK    3  A    between atoms: C_5  and  O_6 
REMARK    4  A    between atoms: C_9  and  C_10 
REMARK    5  A    between atoms: C_19  and  C_20 
REMARK    6  A    between atoms: C_22  and  O_23 
ROOT
HETATM    1  C   UNL     1      27.605  41.085  52.210  1.00  0.00     0.156 A 
HETATM    2  N   UNL     1      28.425  39.872  52.041  1.00  0.00    -0.343 N 
HETATM    3  C   UNL     1      28.766  39.590  50.722  1.00  0.00     0.271 A 
HETATM    4  O   UNL     1      29.427  38.657  50.311  1.00  0.00    -0.266 OA
HETATM    5  C   UNL     1      28.176  40.650  49.999  1.00  0.00     0.128 A 
HETATM    6  C   UNL     1      27.518  41.532  50.805  1.00  0.00     0.034 A 
HETATM    7  N   UNL     1      28.080  41.093  48.737  1.00  0.00    -0.272 N 
HETATM    8  H   UNL     1      28.456  40.692  47.883  1.00  0.00     0.189 HD
HETATM    9  N   UNL     1      27.385  42.256  48.673  1.00  0.00    -0.173 NA
HETATM   10  C   UNL     1      27.026  42.534  49.952  1.00  0.00     0.098 A 
HETATM   11  H   UNL     1      28.745  39.292  52.801  1.00  0.00     0.163 HD
ENDROOT
BRANCH   1  12
HETATM   12  C   UNL     1      28.288  42.145  53.036  1.00  0.00    -0.028 A 
HETATM   13  C   UNL     1      29.689  42.232  53.164  1.00  0.00     0.012 A 
HETATM   14  C   UNL     1      30.282  43.208  53.969  1.00  0.00     0.040 A 
HETATM   15  C   UNL     1      29.480  44.103  54.662  1.00  0.00     0.099 A 
HETATM   16  C   UNL     1      28.095  44.057  54.525  1.00  0.00     0.102 A 
HETATM   17  C   UNL     1      27.498  43.072  53.740  1.00  0.00     0.049 A 
BRANCH  15  18
HETATM   18  O   UNL     1      30.078  45.006  55.492  1.00  0.00    -0.358 OA
HETATM   19  H   UNL     1      29.801  44.763  56.394  1.00  0.00     0.218 HD
ENDBRANCH  15  18
BRANCH  16  20
HETATM   20  O   UNL     1      27.292  44.933  55.204  1.00  0.00    -0.349 OA
BRANCH  20  21
HETATM   21  C   UNL     1      26.370  45.572  54.308  1.00  0.00     0.171 C 
HETATM   22  C   UNL     1      26.878  46.975  54.035  1.00  0.00     0.034 C 
ENDBRANCH  20  21
ENDBRANCH  16  20
ENDBRANCH   1  12
BRANCH  10  23
HETATM   23  C   UNL     1      26.269  43.742  50.284  1.00  0.00    -0.002 A 
HETATM   24  C   UNL     1      26.768  45.002  49.911  1.00  0.00     0.050 A 
HETATM   25  C   UNL     1      26.074  46.169  50.235  1.00  0.00     0.069 A 
HETATM   26  C   UNL     1      24.870  46.077  50.936  1.00  0.00     0.037 A 
HETATM   27  C   UNL     1      24.356  44.834  51.302  1.00  0.00     0.004 A 
HETATM   28  C   UNL     1      25.051  43.669  50.974  1.00  0.00     0.014 A 
BRANCH  25  29
HETATM   29  O   UNL     1      26.463  47.446  49.931  1.00  0.00    -0.356 OA
HETATM   30  C   UNL     1      25.448  48.332  49.477  1.00  0.00     0.210 C 
ENDBRANCH  25  29
ENDBRANCH  10  23
TORSDOF 6
ENDMDL
MODEL 3
REMARK VINA RESULT:      -7.9      1.294      5.766
REMARK  6 active torsions:
REMARK  status: ('A' for Active; 'I' for Inactive)
REMARK    1  A    between atoms: C_2  and  O_3 
REMARK    2  A    between atoms: O_3  and  C_4 
REMARK    3  A    between atoms: C_5  and  O_6 
REMARK    4  A    between atoms: C_9  and  C_10 
REMARK    5  A    between atoms: C_19  and  C_20 
REMARK    6  A    between atoms: C_22  and  O_23 
ROOT
HETATM    1  C   UNL     1      26.983  42.036  52.739  1.00  0.00     0.156 A 
HETATM    2  N   UNL     1      27.826  40.838  52.906  1.00  0.00    -0.343 N 
HETATM    3  C   UNL     1      28.387  40.363  51.725  1.00  0.00     0.271 A 
HETATM    4  O   UNL     1      29.113  39.399  51.586  1.00  0.00    -0.266 OA
HETATM    5  C   UNL     1      27.923  41.277  50.753  1.00  0.00     0.128 A 
HETATM    6  C   UNL     1      27.134  42.254  51.286  1.00  0.00     0.034 A 
HETATM    7  N   UNL     1      28.042  41.514  49.439  1.00  0.00    -0.272 N 
HETATM    8  H   UNL     1      28.560  40.996  48.735  1.00  0.00     0.189 HD
HETATM    9  N   UNL     1      27.362  42.629  49.074  1.00  0.00    -0.173 NA
HETATM   10  C   UNL     1      26.790  43.093  50.214  1.00  0.00     0.098 A 
HETATM   11  H   UNL     1      28.014  40.395  53.792  1.00  0.00     0.163 HD
ENDROOT
BRANCH   1  12
HETATM   12  C   UNL     1      27.511  43.234  53.487  1.00  0.00    -0.028 A 
HETATM   13  C   UNL     1      26.761  44.414  53.670  1.00  0.00     0.012 A 
HETATM   14  C   UNL     1      27.302  45.517  54.338  1.00  0.00     0.040 A 
HETATM   15  C   UNL     1      28.600  45.454  54.822  1.00  0.00     0.099 A 
HETATM   16  C   UNL     1      29.347  44.287  54.681  1.00  0.00     0.102 A 
HETATM   17  C   UNL     1      28.820  43.193  53.997  1.00  0.00     0.049 A 
BRANCH  15  18
HETATM   18  O   UNL     1      29.129  46.564  55.413  1.00  0.00    -0.358 OA
HETATM   19  H   UNL     1      29.505  46.261  56.260  1.00  0.00     0.218 HD
ENDBRANCH  15  18
BRANCH  16  20
HETATM   20  O   UNL     1      30.630  44.213  55.152  1.00  0.00    -0.349 OA
BRANCH  20  21
HETATM   21  C   UNL     1      30.786  43.076  56.014  1.00  0.00     0.171 C 
HETATM   22  C   UNL     1      31.759  43.452  57.116  1.00  0.00     0.034 C 
ENDBRANCH  20  21
ENDBRANCH  16  20
ENDBRANCH   1  12
BRANCH  10  23
HETATM   23  C   UNL     1      25.982  44.313  50.216  1.00  0.00    -0.002 A 
HETATM   24  C   UNL     1      26.609  45.565  50.345  1.00  0.00     0.050 A 
HETATM   25  C   UNL     1      25.857  46.741  50.372  1.00  0.00     0.069 A 
HETATM   26  C   UNL     1      24.467  46.667  50.267  1.00  0.00     0.037 A 
HETATM   27  C   UNL     1      23.832  45.434  50.126  1.00  0.00     0.004 A 
HETATM   28  C   UNL     1      24.587  44.260  50.097  1.00  0.00     0.014 A 
BRANCH  25  29
HETATM   29  O   UNL     1      26.355  48.010  50.498  1.00  0.00    -0.356 OA
HETATM   30  C   UNL     1      26.987  48.566  49.351  1.00  0.00     0.210 C 
ENDBRANCH  25  29
ENDBRANCH  10  23
TORSDOF 6
ENDMDL
MODEL 4
REMARK VINA RESULT:      -7.9     12.014     14.139
REMARK  6 active torsions:
REMARK  status: ('A' for Active; 'I' for Inactive)
REMARK    1  A    between atoms: C_2  and  O_3 
REMARK    2  A    between atoms: O_3  and  C_4 
REMARK    3  A    between atoms: C_5  and  O_6 
REMARK    4  A    between atoms: C_9  and  C_10 
REMARK    5  A    between atoms: C_19  and  C_20 
REMARK    6  A    between atoms: C_22  and  O_23 
ROOT
HETATM    1  C   UNL     1      27.991  49.191  40.925  1.00  0.00     0.156 A 
HETATM    2  N   UNL     1      27.050  48.119  40.551  1.00  0.00    -0.343 N 
HETATM    3  C   UNL     1      26.390  48.331  39.345  1.00  0.00     0.271 A 
HETATM    4  O   UNL     1      25.569  47.609  38.814  1.00  0.00    -0.266 OA
HETATM    5  C   UNL     1      26.918  49.561  38.896  1.00  0.00     0.128 A 
HETATM    6  C   UNL     1      27.842  50.080  39.754  1.00  0.00     0.034 A 
HETATM    7  N   UNL     1      26.818  50.390  37.847  1.00  0.00    -0.272 N 
HETATM    8  H   UNL     1      26.234  50.314  37.019  1.00  0.00     0.189 HD
HETATM    9  N   UNL     1      27.657  51.448  37.971  1.00  0.00    -0.173 NA
HETATM   10  C   UNL     1      28.294  51.268  39.156  1.00  0.00     0.098 A 
HETATM   11  H   UNL     1      26.897  47.283  41.094  1.00  0.00     0.163 HD
ENDROOT
BRANCH   1  12
HETATM   12  C   UNL     1      29.417  48.714  41.018  1.00  0.00    -0.028 A 
HETATM   13  C   UNL     1      29.932  47.676  40.215  1.00  0.00     0.012 A 
HETATM   14  C   UNL     1      31.252  47.238  40.359  1.00  0.00     0.040 A 
HETATM   15  C   UNL     1      32.068  47.827  41.312  1.00  0.00     0.099 A 
HETATM   16  C   UNL     1      31.591  48.875  42.095  1.00  0.00     0.102 A 
HETATM   17  C   UNL     1      30.270  49.301  41.970  1.00  0.00     0.049 A 
BRANCH  15  18
HETATM   18  O   UNL     1      33.332  47.340  41.479  1.00  0.00    -0.358 OA
HETATM   19  H   UNL     1      33.254  46.611  42.122  1.00  0.00     0.218 HD
ENDBRANCH  15  18
BRANCH  16  20
HETATM   20  O   UNL     1      32.385  49.463  43.042  1.00  0.00    -0.349 OA
BRANCH  20  21
HETATM   21  C   UNL     1      31.942  50.803  43.310  1.00  0.00     0.171 C 
HETATM   22  C   UNL     1      33.145  51.614  43.756  1.00  0.00     0.034 C 
ENDBRANCH  20  21
ENDBRANCH  16  20
ENDBRANCH   1  12
BRANCH  10  23
HETATM   23  C   UNL     1      29.307  52.214  39.627  1.00  0.00    -0.002 A 
HETATM   24  C   UNL     1      30.655  51.820  39.690  1.00  0.00     0.050 A 
HETATM   25  C   UNL     1      31.634  52.697  40.155  1.00  0.00     0.069 A 
HETATM   26  C   UNL     1      31.266  53.981  40.560  1.00  0.00     0.037 A 
HETATM   27  C   UNL     1      29.935  54.391  40.492  1.00  0.00     0.004 A 
HETATM   28  C   UNL     1      28.958  53.512  40.023  1.00  0.00     0.014 A 
BRANCH  25  29
HETATM   29  O   UNL     1      32.971  52.424  40.266  1.00  0.00    -0.356 OA
HETATM   30  C   UNL     1      33.399  51.139  39.832  1.00  0.00     0.210 C 
ENDBRANCH  25  29
ENDBRANCH  10  23
TORSDOF 6
ENDMDL
MODEL 5
REMARK VINA RESULT:      -7.9     11.977     13.992
REMARK  6 active torsions:
REMARK  status: ('A' for Active; 'I' for Inactive)
REMARK    1  A    between atoms: C_2  and  O_3 
REMARK    2  A    between atoms: O_3  and  C_4 
REMARK    3  A    between atoms: C_5  and  O_6 
REMARK    4  A    between atoms: C_9  and  C_10 
REMARK    5  A    between atoms: C_19  and  C_20 
REMARK    6  A    between atoms: C_22  and  O_23 
ROOT
HETATM    1  C   UNL     1      32.250  51.296  42.859  1.00  0.00     0.156 A 
HETATM    2  N   UNL     1      33.551  51.910  43.182  1.00  0.00    -0.343 N 
HETATM    3  C   UNL     1      34.653  51.185  42.740  1.00  0.00     0.271 A 
HETATM    4  O   UNL     1      35.827  51.466  42.877  1.00  0.00    -0.266 OA
HETATM    5  C   UNL     1      34.073  50.074  42.090  1.00  0.00     0.128 A 
HETATM    6  C   UNL     1      32.709  50.102  42.120  1.00  0.00     0.034 A 
HETATM    7  N   UNL     1      34.448  48.983  41.407  1.00  0.00    -0.272 N 
HETATM    8  H   UNL     1      35.382  48.653  41.185  1.00  0.00     0.189 HD
HETATM    9  N   UNL     1      33.374  48.282  40.967  1.00  0.00    -0.173 NA
HETATM   10  C   UNL     1      32.289  48.966  41.409  1.00  0.00     0.098 A 
HETATM   11  H   UNL     1      33.659  52.791  43.661  1.00  0.00     0.163 HD
ENDROOT
BRANCH   1  12
HETATM   12  C   UNL     1      31.404  52.155  41.954  1.00  0.00    -0.028 A 
HETATM   13  C   UNL     1      31.952  53.092  41.055  1.00  0.00     0.012 A 
HETATM   14  C   UNL     1      31.131  53.897  40.260  1.00  0.00     0.040 A 
HETATM   15  C   UNL     1      29.753  53.778  40.361  1.00  0.00     0.099 A 
HETATM   16  C   UNL     1      29.190  52.836  41.218  1.00  0.00     0.102 A 
HETATM   17  C   UNL     1      30.004  52.047  42.029  1.00  0.00     0.049 A 
BRANCH  15  18
HETATM   18  O   UNL     1      28.971  54.617  39.622  1.00  0.00    -0.358 OA
HETATM   19  H   UNL     1      28.355  54.044  39.129  1.00  0.00     0.218 HD
ENDBRANCH  15  18
BRANCH  16  20
HETATM   20  O   UNL     1      27.831  52.711  41.329  1.00  0.00    -0.349 OA
BRANCH  20  21
HETATM   21  C   UNL     1      27.423  51.366  41.035  1.00  0.00     0.171 C 
HETATM   22  C   UNL     1      27.603  51.137  39.546  1.00  0.00     0.034 C 
ENDBRANCH  20  21
ENDBRANCH  16  20
ENDBRANCH   1  12
BRANCH  10  23
HETATM   23  C   UNL     1      30.930  48.515  41.105  1.00  0.00    -0.002 A 
HETATM   24  C   UNL     1      30.608  48.098  39.801  1.00  0.00     0.050 A 
HETATM   25  C   UNL     1      29.315  47.685  39.482  1.00  0.00     0.069 A 
HETATM   26  C   UNL     1      28.333  47.685  40.475  1.00  0.00     0.037 A 
HETATM   27  C   UNL     1      28.639  48.083  41.775  1.00  0.00     0.004 A 
HETATM   28  C   UNL     1      29.935  48.494  42.091  1.00  0.00     0.014 A 
BRANCH  25  29
HETATM   29  O   UNL     1      28.885  47.265  38.252  1.00  0.00    -0.356 OA
HETATM   30  C   UNL     1      27.481  47.287  38.023  1.00  0.00     0.210 C 
ENDBRANCH  25  29
ENDBRANCH  10  23
TORSDOF 6
ENDMDL
MODEL 6
REMARK VINA RESULT:      -7.7     12.128     14.123
REMARK  6 active torsions:
REMARK  status: ('A' for Active; 'I' for Inactive)
REMARK    1  A    between atoms: C_2  and  O_3 
REMARK    2  A    between atoms: O_3  and  C_4 
REMARK    3  A    between atoms: C_5  and  O_6 
REMARK    4  A    between atoms: C_9  and  C_10 
REMARK    5  A    between atoms: C_19  and  C_20 
REMARK    6  A    between atoms: C_22  and  O_23 
ROOT
HETATM    1  C   UNL     1      30.922  51.145  42.266  1.00  0.00     0.156 A 
HETATM    2  N   UNL     1      31.939  51.967  42.946  1.00  0.00    -0.343 N 
HETATM    3  C   UNL     1      33.214  51.412  42.953  1.00  0.00     0.271 A 
HETATM    4  O   UNL     1      34.223  51.880  43.444  1.00  0.00    -0.266 OA
HETATM    5  C   UNL     1      33.047  50.202  42.244  1.00  0.00     0.128 A 
HETATM    6  C   UNL     1      31.764  50.015  41.821  1.00  0.00     0.034 A 
HETATM    7  N   UNL     1      33.778  49.163  41.816  1.00  0.00    -0.272 N 
HETATM    8  H   UNL     1      34.769  48.977  41.941  1.00  0.00     0.189 HD
HETATM    9  N   UNL     1      33.024  48.287  41.108  1.00  0.00    -0.173 NA
HETATM   10  C   UNL     1      31.769  48.804  41.110  1.00  0.00     0.098 A 
HETATM   11  H   UNL     1      31.757  52.869  43.358  1.00  0.00     0.163 HD
ENDROOT
BRANCH   1  12
HETATM   12  C   UNL     1      30.320  51.829  41.065  1.00  0.00    -0.028 A 
HETATM   13  C   UNL     1      30.371  53.225  40.873  1.00  0.00     0.012 A 
HETATM   14  C   UNL     1      29.768  53.824  39.763  1.00  0.00     0.040 A 
HETATM   15  C   UNL     1      29.102  53.035  38.837  1.00  0.00     0.099 A 
HETATM   16  C   UNL     1      29.067  51.651  38.990  1.00  0.00     0.102 A 
HETATM   17  C   UNL     1      29.647  51.051  40.105  1.00  0.00     0.049 A 
BRANCH  15  18
HETATM   18  O   UNL     1      28.466  53.647  37.797  1.00  0.00    -0.358 OA
HETATM   19  H   UNL     1      27.525  53.687  38.046  1.00  0.00     0.218 HD
ENDBRANCH  15  18
BRANCH  16  20
HETATM   20  O   UNL     1      28.410  50.861  38.085  1.00  0.00    -0.349 OA
BRANCH  20  21
HETATM   21  C   UNL     1      27.213  50.319  38.665  1.00  0.00     0.171 C 
HETATM   22  C   UNL     1      26.515  49.486  37.606  1.00  0.00     0.034 C 
ENDBRANCH  20  21
ENDBRANCH  16  20
ENDBRANCH   1  12
BRANCH  10  23
HETATM   23  C   UNL     1      30.669  48.133  40.416  1.00  0.00    -0.002 A 
HETATM   24  C   UNL     1      29.511  47.773  41.127  1.00  0.00     0.050 A 
HETATM   25  C   UNL     1      28.458  47.114  40.491  1.00  0.00     0.069 A 
HETATM   26  C   UNL     1      28.562  46.812  39.131  1.00  0.00     0.037 A 
HETATM   27  C   UNL     1      29.698  47.174  38.410  1.00  0.00     0.004 A 
HETATM   28  C   UNL     1      30.748  47.836  39.049  1.00  0.00     0.014 A 
BRANCH  25  29
HETATM   29  O   UNL     1      27.290  46.711  41.079  1.00  0.00    -0.356 OA
HETATM   30  C   UNL     1      26.084  47.210  40.513  1.00  0.00     0.210 C 
ENDBRANCH  25  29
ENDBRANCH  10  23
TORSDOF 6
ENDMDL
MODEL 7
REMARK VINA RESULT:      -7.6     12.086     14.164
REMARK  6 active torsions:
REMARK  status: ('A' for Active; 'I' for Inactive)
REMARK    1  A    between atoms: C_2  and  O_3 
REMARK    2  A    between atoms: O_3  and  C_4 
REMARK    3  A    between atoms: C_5  and  O_6 
REMARK    4  A    between atoms: C_9  and  C_10 
REMARK    5  A    between atoms: C_19  and  C_20 
REMARK    6  A    between atoms: C_22  and  O_23 
ROOT
HETATM    1  C   UNL     1      30.212  49.139  41.691  1.00  0.00     0.156 A 
HETATM    2  N   UNL     1      31.575  48.707  42.049  1.00  0.00    -0.343 N 
HETATM    3  C   UNL     1      32.124  47.766  41.183  1.00  0.00     0.271 A 
HETATM    4  O   UNL     1      33.222  47.249  41.251  1.00  0.00    -0.266 OA
HETATM    5  C   UNL     1      31.112  47.583  40.216  1.00  0.00     0.128 A 
HETATM    6  C   UNL     1      30.012  48.354  40.456  1.00  0.00     0.034 A 
HETATM    7  N   UNL     1      30.895  46.895  39.086  1.00  0.00    -0.272 N 
HETATM    8  H   UNL     1      31.499  46.233  38.609  1.00  0.00     0.189 HD
HETATM    9  N   UNL     1      29.683  47.189  38.554  1.00  0.00    -0.173 NA
HETATM   10  C   UNL     1      29.124  48.090  39.400  1.00  0.00     0.098 A 
HETATM   11  H   UNL     1      32.096  49.064  42.835  1.00  0.00     0.163 HD
ENDROOT
BRANCH   1  12
HETATM   12  C   UNL     1      30.127  50.610  41.374  1.00  0.00    -0.028 A 
HETATM   13  C   UNL     1      28.920  51.337  41.431  1.00  0.00     0.012 A 
HETATM   14  C   UNL     1      28.877  52.693  41.093  1.00  0.00     0.040 A 
HETATM   15  C   UNL     1      30.039  53.334  40.687  1.00  0.00     0.099 A 
HETATM   16  C   UNL     1      31.247  52.643  40.655  1.00  0.00     0.102 A 
HETATM   17  C   UNL     1      31.291  51.287  40.970  1.00  0.00     0.049 A 
BRANCH  15  18
HETATM   18  O   UNL     1      29.961  54.640  40.300  1.00  0.00    -0.358 OA
HETATM   19  H   UNL     1      30.606  54.743  39.577  1.00  0.00     0.218 HD
ENDBRANCH  15  18
BRANCH  16  20
HETATM   20  O   UNL     1      32.400  53.263  40.253  1.00  0.00    -0.349 OA
BRANCH  20  21
HETATM   21  C   UNL     1      33.242  52.347  39.537  1.00  0.00     0.171 C 
HETATM   22  C   UNL     1      34.615  52.978  39.403  1.00  0.00     0.034 C 
ENDBRANCH  20  21
ENDBRANCH  16  20
ENDBRANCH   1  12
BRANCH  10  23
HETATM   23  C   UNL     1      27.802  48.662  39.138  1.00  0.00    -0.002 A 
HETATM   24  C   UNL     1      26.658  48.053  39.681  1.00  0.00     0.050 A 
HETATM   25  C   UNL     1      25.386  48.567  39.426  1.00  0.00     0.069 A 
HETATM   26  C   UNL     1      25.255  49.701  38.623  1.00  0.00     0.037 A 
HETATM   27  C   UNL     1      26.381  50.324  38.087  1.00  0.00     0.004 A 
HETATM   28  C   UNL     1      27.652  49.808  38.347  1.00  0.00     0.014 A 
BRANCH  25  29
HETATM   29  O   UNL     1      24.204  48.058  39.894  1.00  0.00    -0.356 OA
HETATM   30  C   UNL     1      24.292  47.088  40.932  1.00  0.00     0.210 C 
ENDBRANCH  25  29
ENDBRANCH  10  23
TORSDOF 6
ENDMDL
MODEL 8
REMARK VINA RESULT:      -7.5      2.884      6.526
REMARK  6 active torsions:
REMARK  status: ('A' for Active; 'I' for Inactive)
REMARK    1  A    between atoms: C_2  and  O_3 
REMARK    2  A    between atoms: O_3  and  C_4 
REMARK    3  A    between atoms: C_5  and  O_6 
REMARK    4  A    between atoms: C_9  and  C_10 
REMARK    5  A    between atoms: C_19  and  C_20 
REMARK    6  A    between atoms: C_22  and  O_23 
ROOT
HETATM    1  C   UNL     1      24.988  46.489  51.765  1.00  0.00     0.156 A 
HETATM    2  N   UNL     1      26.016  46.550  52.820  1.00  0.00    -0.343 N 
HETATM    3  C   UNL     1      26.683  45.350  53.041  1.00  0.00     0.271 A 
HETATM    4  O   UNL     1      27.565  45.131  53.847  1.00  0.00    -0.266 OA
HETATM    5  C   UNL     1      26.100  44.474  52.098  1.00  0.00     0.128 A 
HETATM    6  C   UNL     1      25.142  45.082  51.341  1.00  0.00     0.034 A 
HETATM    7  N   UNL     1      26.215  43.206  51.679  1.00  0.00    -0.272 N 
HETATM    8  H   UNL     1      26.833  42.471  52.011  1.00  0.00     0.189 HD
HETATM    9  N   UNL     1      25.367  42.946  50.653  1.00  0.00    -0.173 NA
HETATM   10  C   UNL     1      24.692  44.104  50.439  1.00  0.00     0.098 A 
HETATM   11  H   UNL     1      26.251  47.384  53.336  1.00  0.00     0.163 HD
ENDROOT
BRANCH   1  12
HETATM   12  C   UNL     1      25.284  47.402  50.603  1.00  0.00    -0.028 A 
HETATM   13  C   UNL     1      26.574  47.900  50.329  1.00  0.00     0.012 A 
HETATM   14  C   UNL     1      26.799  48.774  49.262  1.00  0.00     0.040 A 
HETATM   15  C   UNL     1      25.736  49.166  48.462  1.00  0.00     0.099 A 
HETATM   16  C   UNL     1      24.460  48.661  48.694  1.00  0.00     0.102 A 
HETATM   17  C   UNL     1      24.225  47.806  49.769  1.00  0.00     0.049 A 
BRANCH  15  18
HETATM   18  O   UNL     1      25.969  50.070  47.467  1.00  0.00    -0.358 OA
HETATM   19  H   UNL     1      26.781  49.770  47.019  1.00  0.00     0.218 HD
ENDBRANCH  15  18
BRANCH  16  20
HETATM   20  O   UNL     1      23.401  49.042  47.914  1.00  0.00    -0.349 OA
BRANCH  20  21
HETATM   21  C   UNL     1      22.378  49.654  48.715  1.00  0.00     0.171 C 
HETATM   22  C   UNL     1      22.553  51.158  48.630  1.00  0.00     0.034 C 
ENDBRANCH  20  21
ENDBRANCH  16  20
ENDBRANCH   1  12
BRANCH  10  23
HETATM   23  C   UNL     1      23.690  44.214  49.378  1.00  0.00    -0.002 A 
HETATM   24  C   UNL     1      22.352  44.496  49.708  1.00  0.00     0.050 A 
HETATM   25  C   UNL     1      21.375  44.584  48.716  1.00  0.00     0.069 A 
HETATM   26  C   UNL     1      21.737  44.391  47.381  1.00  0.00     0.037 A 
HETATM   27  C   UNL     1      23.061  44.123  47.037  1.00  0.00     0.004 A 
HETATM   28  C   UNL     1      24.036  44.039  48.032  1.00  0.00     0.014 A 
BRANCH  25  29
HETATM   29  O   UNL     1      20.047  44.846  48.917  1.00  0.00    -0.356 OA
HETATM   30  C   UNL     1      19.436  45.771  48.026  1.00  0.00     0.210 C 
ENDBRANCH  25  29
ENDBRANCH  10  23
TORSDOF 6
ENDMDL
MODEL 9
REMARK VINA RESULT:      -7.4      3.764      6.317
REMARK  6 active torsions:
REMARK  status: ('A' for Active; 'I' for Inactive)
REMARK    1  A    between atoms: C_2  and  O_3 
REMARK    2  A    between atoms: O_3  and  C_4 
REMARK    3  A    between atoms: C_5  and  O_6 
REMARK    4  A    between atoms: C_9  and  C_10 
REMARK    5  A    between atoms: C_19  and  C_20 
REMARK    6  A    between atoms: C_22  and  O_23 
ROOT
HETATM    1  C   UNL     1      23.397  47.984  49.505  1.00  0.00     0.156 A 
HETATM    2  N   UNL     1      22.893  49.085  48.663  1.00  0.00    -0.343 N 
HETATM    3  C   UNL     1      23.888  49.873  48.094  1.00  0.00     0.271 A 
HETATM    4  O   UNL     1      23.744  50.836  47.367  1.00  0.00    -0.266 OA
HETATM    5  C   UNL     1      25.082  49.271  48.549  1.00  0.00     0.128 A 
HETATM    6  C   UNL     1      24.852  48.186  49.342  1.00  0.00     0.034 A 
HETATM    7  N   UNL     1      26.409  49.415  48.421  1.00  0.00    -0.272 N 
HETATM    8  H   UNL     1      26.933  50.110  47.898  1.00  0.00     0.189 HD
HETATM    9  N   UNL     1      27.078  48.450  49.097  1.00  0.00    -0.173 NA
HETATM   10  C   UNL     1      26.120  47.684  49.678  1.00  0.00     0.098 A 
HETATM   11  H   UNL     1      21.917  49.259  48.481  1.00  0.00     0.163 HD
ENDROOT
BRANCH   1  12
HETATM   12  C   UNL     1      23.015  46.623  48.982  1.00  0.00    -0.028 A 
HETATM   13  C   UNL     1      22.569  46.407  47.662  1.00  0.00     0.012 A 
HETATM   14  C   UNL     1      22.188  45.134  47.227  1.00  0.00     0.040 A 
HETATM   15  C   UNL     1      22.242  44.066  48.110  1.00  0.00     0.099 A 
HETATM   16  C   UNL     1      22.710  44.250  49.408  1.00  0.00     0.102 A 
HETATM   17  C   UNL     1      23.070  45.520  49.853  1.00  0.00     0.049 A 
BRANCH  15  18
HETATM   18  O   UNL     1      21.805  42.846  47.682  1.00  0.00    -0.358 OA
HETATM   19  H   UNL     1      22.448  42.197  48.025  1.00  0.00     0.218 HD
ENDBRANCH  15  18
BRANCH  16  20
HETATM   20  O   UNL     1      22.766  43.204  50.290  1.00  0.00    -0.349 OA
BRANCH  20  21
HETATM   21  C   UNL     1      24.121  42.956  50.693  1.00  0.00     0.171 C 
HETATM   22  C   UNL     1      24.724  41.956  49.724  1.00  0.00     0.034 C 
ENDBRANCH  20  21
ENDBRANCH  16  20
ENDBRANCH   1  12
BRANCH  10  23
HETATM   23  C   UNL     1      26.468  46.514  50.486  1.00  0.00    -0.002 A 
HETATM   24  C   UNL     1      26.166  46.498  51.859  1.00  0.00     0.050 A 
HETATM   25  C   UNL     1      26.508  45.403  52.653  1.00  0.00     0.069 A 
HETATM   26  C   UNL     1      27.156  44.312  52.071  1.00  0.00     0.037 A 
HETATM   27  C   UNL     1      27.452  44.307  50.709  1.00  0.00     0.004 A 
HETATM   28  C   UNL     1      27.106  45.403  49.917  1.00  0.00     0.014 A 
BRANCH  25  29
HETATM   29  O   UNL     1      26.270  45.278  53.995  1.00  0.00    -0.356 OA
HETATM   30  C   UNL     1      25.433  44.201  54.399  1.00  0.00     0.210 C 
ENDBRANCH  25  29
ENDBRANCH  10  23
TORSDOF 6
ENDMDL
MODEL 10
REMARK VINA RESULT:      -7.4      1.825      5.142
REMARK  6 active torsions:
REMARK  status: ('A' for Active; 'I' for Inactive)
REMARK    1  A    between atoms: C_2  and  O_3 
REMARK    2  A    between atoms: O_3  and  C_4 
REMARK    3  A    between atoms: C_5  and  O_6 
REMARK    4  A    between atoms: C_9  and  C_10 
REMARK    5  A    between atoms: C_19  and  C_20 
REMARK    6  A    between atoms: C_22  and  O_23 
ROOT
HETATM    1  C   UNL     1      26.010  43.913  53.464  1.00  0.00     0.156 A 
HETATM    2  N   UNL     1      26.235  44.818  54.606  1.00  0.00    -0.343 N 
HETATM    3  C   UNL     1      27.573  44.993  54.943  1.00  0.00     0.271 A 
HETATM    4  O   UNL     1      28.027  45.679  55.838  1.00  0.00    -0.266 OA
HETATM    5  C   UNL     1      28.256  44.204  53.992  1.00  0.00     0.128 A 
HETATM    6  C   UNL     1      27.409  43.583  53.121  1.00  0.00     0.034 A 
HETATM    7  N   UNL     1      29.511  43.886  53.644  1.00  0.00    -0.272 N 
HETATM    8  H   UNL     1      30.389  44.175  54.065  1.00  0.00     0.189 HD
HETATM    9  N   UNL     1      29.532  43.077  52.556  1.00  0.00    -0.173 NA
HETATM   10  C   UNL     1      28.231  42.878  52.227  1.00  0.00     0.098 A 
HETATM   11  H   UNL     1      25.501  45.299  55.102  1.00  0.00     0.163 HD
ENDROOT
BRANCH   1  12
HETATM   12  C   UNL     1      25.352  44.598  52.293  1.00  0.00    -0.028 A 
HETATM   13  C   UNL     1      24.461  43.940  51.422  1.00  0.00     0.012 A 
HETATM   14  C   UNL     1      23.901  44.601  50.326  1.00  0.00     0.040 A 
HETATM   15  C   UNL     1      24.232  45.926  50.084  1.00  0.00     0.099 A 
HETATM   16  C   UNL     1      25.085  46.606  50.949  1.00  0.00     0.102 A 
HETATM   17  C   UNL     1      25.663  45.945  52.031  1.00  0.00     0.049 A 
BRANCH  15  18
HETATM   18  O   UNL     1      23.723  46.532  48.972  1.00  0.00    -0.358 OA
HETATM   19  H   UNL     1      23.007  45.952  48.656  1.00  0.00     0.218 HD
ENDBRANCH  15  18
BRANCH  16  20
HETATM   20  O   UNL     1      25.422  47.913  50.721  1.00  0.00    -0.349 OA
BRANCH  20  21
HETATM   21  C   UNL     1      26.651  47.995  49.982  1.00  0.00     0.171 C 
HETATM   22  C   UNL     1      26.494  49.077  48.930  1.00  0.00     0.034 C 
ENDBRANCH  20  21
ENDBRANCH  16  20
ENDBRANCH   1  12
BRANCH  10  23
HETATM   23  C   UNL     1      27.855  42.059  51.073  1.00  0.00    -0.002 A 
HETATM   24  C   UNL     1      28.139  40.682  51.073  1.00  0.00     0.050 A 
HETATM   25  C   UNL     1      27.810  39.886  49.975  1.00  0.00     0.069 A 
HETATM   26  C   UNL     1      27.190  40.469  48.868  1.00  0.00     0.037 A 
HETATM   27  C   UNL     1      26.892  41.831  48.859  1.00  0.00     0.004 A 
HETATM   28  C   UNL     1      27.220  42.623  49.960  1.00  0.00     0.014 A 
BRANCH  25  29
HETATM   29  O   UNL     1      28.040  38.541  49.860  1.00  0.00    -0.356 OA
HETATM   30  C   UNL     1      28.761  38.113  48.710  1.00  0.00     0.210 C 
ENDBRANCH  25  29
ENDBRANCH  10  23
TORSDOF 6
ENDMDL
