MODEL 1
REMARK VINA RESULT:      -9.0      0.000      0.000
REMARK  6 active torsions:
REMARK  status: ('A' for Active; 'I' for Inactive)
REMARK    1  A    between atoms: C_7  and  C_8 
REMARK    2  A    between atoms: N_9  and  N_10 
REMARK       I    between atoms: N_10  and  C_11 
REMARK    3  A    between atoms: C_11  and  C_12 
REMARK    4  A    between atoms: C_12  and  N_13 
REMARK    5  A    between atoms: N_13  and  C_14 
REMARK    6  A    between atoms: C_15  and  O_16 
ROOT
HETATM    1  N   UNL     1      25.967  46.428  52.557  1.00  0.00    -0.246 N 
HETATM    2  C   UNL     1      25.969  46.454  53.949  1.00  0.00     0.250 C 
HETATM    3  O   UNL     1      25.707  47.432  54.647  1.00  0.00    -0.270 OA
HETATM    4  H   UNL     1      25.912  45.507  52.122  1.00  0.00     0.192 HD
ENDROOT
BRANCH   1   5
HETATM    5  N   UNL     1      25.651  47.485  51.740  1.00  0.00    -0.184 NA
HETATM    6  C   UNL     1      25.777  47.304  50.463  1.00  0.00     0.153 C 
BRANCH   6   7
HETATM    7  C   UNL     1      25.478  48.373  49.526  1.00  0.00     0.018 A 
HETATM    8  C   UNL     1      26.374  49.235  48.907  1.00  0.00     0.018 A 
HETATM    9  C   UNL     1      27.855  49.330  48.985  1.00  0.00     0.069 C 
HETATM   10  N   UNL     1      25.650  50.090  48.113  1.00  0.00    -0.358 N 
HETATM   11  H   UNL     1      26.042  50.824  47.542  1.00  0.00     0.166 HD
HETATM   12  C   UNL     1      24.306  49.811  48.195  1.00  0.00     0.043 A 
HETATM   13  C   UNL     1      24.165  48.734  49.069  1.00  0.00     0.004 A 
HETATM   14  C   UNL     1      23.217  50.427  47.566  1.00  0.00     0.030 A 
HETATM   15  C   UNL     1      22.865  48.248  49.326  1.00  0.00     0.014 A 
HETATM   16  C   UNL     1      21.764  48.853  48.708  1.00  0.00     0.001 A 
HETATM   17  C   UNL     1      21.941  49.926  47.841  1.00  0.00     0.002 A 
ENDBRANCH   6   7
ENDBRANCH   1   5
BRANCH   2  18
HETATM   18  C   UNL     1      26.314  45.094  54.567  1.00  0.00     0.197 C 
BRANCH  18  19
HETATM   19  N   UNL     1      27.481  44.486  53.901  1.00  0.00    -0.282 NA
HETATM   20  H   UNL     1      27.715  44.986  53.034  1.00  0.00     0.128 HD
BRANCH  19  21
HETATM   21  C   UNL     1      28.673  44.484  54.669  1.00  0.00     0.042 A 
HETATM   22  C   UNL     1      29.409  43.284  54.775  1.00  0.00     0.089 A 
HETATM   23  C   UNL     1      30.585  43.231  55.527  1.00  0.00     0.038 A 
HETATM   24  C   UNL     1      31.006  44.359  56.232  1.00  0.00     0.003 A 
HETATM   25  C   UNL     1      30.252  45.530  56.189  1.00  0.00     0.002 A 
HETATM   26  C   UNL     1      29.086  45.590  55.420  1.00  0.00     0.026 A 
BRANCH  22  27
HETATM   27  O   UNL     1      28.942  42.224  54.029  1.00  0.00    -0.354 OA
HETATM   28  C   UNL     1      29.584  42.074  52.767  1.00  0.00     0.210 C 
ENDBRANCH  22  27
ENDBRANCH  19  21
ENDBRANCH  18  19
ENDBRANCH   2  18
TORSDOF 6
ENDMDL
MODEL 2
REMARK VINA RESULT:      -8.8      1.810      2.777
REMARK  6 active torsions:
REMARK  status: ('A' for Active; 'I' for Inactive)
REMARK    1  A    between atoms: C_7  and  C_8 
REMARK    2  A    between atoms: N_9  and  N_10 
REMARK       I    between atoms: N_10  and  C_11 
REMARK    3  A    between atoms: C_11  and  C_12 
REMARK    4  A    between atoms: C_12  and  N_13 
REMARK    5  A    between atoms: N_13  and  C_14 
REMARK    6  A    between atoms: C_15  and  O_16 
ROOT
HETATM    1  N   UNL     1      26.382  44.774  50.723  1.00  0.00    -0.246 N 
HETATM    2  C   UNL     1      26.849  43.518  50.344  1.00  0.00     0.250 C 
HETATM    3  O   UNL     1      27.045  43.147  49.187  1.00  0.00    -0.270 OA
HETATM    4  H   UNL     1      26.544  45.042  51.694  1.00  0.00     0.192 HD
ENDROOT
BRANCH   1   5
HETATM    5  N   UNL     1      26.084  45.806  49.868  1.00  0.00    -0.184 NA
HETATM    6  C   UNL     1      25.995  46.993  50.381  1.00  0.00     0.153 C 
BRANCH   6   7
HETATM    7  C   UNL     1      25.670  48.140  49.553  1.00  0.00     0.018 A 
HETATM    8  C   UNL     1      26.544  49.082  49.026  1.00  0.00     0.018 A 
HETATM    9  C   UNL     1      28.023  49.207  49.120  1.00  0.00     0.069 C 
HETATM   10  N   UNL     1      25.799  49.991  48.316  1.00  0.00    -0.358 N 
HETATM   11  H   UNL     1      26.173  50.789  47.822  1.00  0.00     0.166 HD
HETATM   12  C   UNL     1      24.464  49.671  48.364  1.00  0.00     0.043 A 
HETATM   13  C   UNL     1      24.349  48.510  49.127  1.00  0.00     0.004 A 
HETATM   14  C   UNL     1      23.360  50.317  47.793  1.00  0.00     0.030 A 
HETATM   15  C   UNL     1      23.062  47.967  49.329  1.00  0.00     0.014 A 
HETATM   16  C   UNL     1      21.947  48.600  48.769  1.00  0.00     0.001 A 
HETATM   17  C   UNL     1      22.097  49.758  48.012  1.00  0.00     0.002 A 
ENDBRANCH   6   7
ENDBRANCH   1   5
BRANCH   2  18
HETATM   18  C   UNL     1      27.138  42.606  51.541  1.00  0.00     0.197 C 
BRANCH  18  19
HETATM   19  N   UNL     1      26.697  43.228  52.804  1.00  0.00    -0.282 NA
HETATM   20  H   UNL     1      26.086  42.595  53.335  1.00  0.00     0.128 HD
BRANCH  19  21
HETATM   21  C   UNL     1      27.743  43.580  53.695  1.00  0.00     0.042 A 
HETATM   22  C   UNL     1      27.808  44.907  54.173  1.00  0.00     0.089 A 
HETATM   23  C   UNL     1      28.825  45.301  55.046  1.00  0.00     0.038 A 
HETATM   24  C   UNL     1      29.823  44.394  55.401  1.00  0.00     0.003 A 
HETATM   25  C   UNL     1      29.806  43.101  54.881  1.00  0.00     0.002 A 
HETATM   26  C   UNL     1      28.778  42.699  54.024  1.00  0.00     0.026 A 
BRANCH  22  27
HETATM   27  O   UNL     1      26.772  45.734  53.797  1.00  0.00    -0.354 OA
HETATM   28  C   UNL     1      26.957  47.097  54.163  1.00  0.00     0.210 C 
ENDBRANCH  22  27
ENDBRANCH  19  21
ENDBRANCH  18  19
ENDBRANCH   2  18
TORSDOF 6
ENDMDL
MODEL 3
REMARK VINA RESULT:      -8.8      2.198      8.859
REMARK  6 active torsions:
REMARK  status: ('A' for Active; 'I' for Inactive)
REMARK    1  A    between atoms: C_7  and  C_8 
REMARK    2  A    between atoms: N_9  and  N_10 
REMARK       I    between atoms: N_10  and  C_11 
REMARK    3  A    between atoms: C_11  and  C_12 
REMARK    4  A    between atoms: C_12  and  N_13 
REMARK    5  A    between atoms: N_13  and  C_14 
REMARK    6  A    between atoms: C_15  and  O_16 
ROOT
HETATM    1  N   UNL     1      25.777  45.414  50.988  1.00  0.00    -0.246 N 
HETATM    2  C   UNL     1      25.129  44.928  49.855  1.00  0.00     0.250 C 
HETATM    3  O   UNL     1      25.511  43.989  49.159  1.00  0.00    -0.270 OA
HETATM    4  H   UNL     1      25.215  45.983  51.621  1.00  0.00     0.192 HD
ENDROOT
BRANCH   1   5
HETATM    5  N   UNL     1      26.936  44.908  51.521  1.00  0.00    -0.184 NA
HETATM    6  C   UNL     1      26.839  44.260  52.640  1.00  0.00     0.153 C 
BRANCH   6   7
HETATM    7  C   UNL     1      28.016  43.703  53.282  1.00  0.00     0.018 A 
HETATM    8  C   UNL     1      28.631  42.486  53.020  1.00  0.00     0.018 A 
HETATM    9  C   UNL     1      28.312  41.419  52.036  1.00  0.00     0.069 C 
HETATM   10  N   UNL     1      29.702  42.368  53.872  1.00  0.00    -0.358 N 
HETATM   11  H   UNL     1      30.335  41.582  53.903  1.00  0.00     0.166 HD
HETATM   12  C   UNL     1      29.805  43.474  54.682  1.00  0.00     0.043 A 
HETATM   13  C   UNL     1      28.765  44.334  54.333  1.00  0.00     0.004 A 
HETATM   14  C   UNL     1      30.733  43.772  55.688  1.00  0.00     0.030 A 
HETATM   15  C   UNL     1      28.648  45.557  55.028  1.00  0.00     0.014 A 
HETATM   16  C   UNL     1      29.565  45.871  56.038  1.00  0.00     0.001 A 
HETATM   17  C   UNL     1      30.591  44.989  56.361  1.00  0.00     0.002 A 
ENDBRANCH   6   7
ENDBRANCH   1   5
BRANCH   2  18
HETATM   18  C   UNL     1      23.827  45.677  49.549  1.00  0.00     0.197 C 
BRANCH  18  19
HETATM   19  N   UNL     1      23.791  46.984  50.233  1.00  0.00    -0.282 NA
HETATM   20  H   UNL     1      24.620  47.116  50.824  1.00  0.00     0.128 HD
BRANCH  19  21
HETATM   21  C   UNL     1      23.759  48.109  49.370  1.00  0.00     0.042 A 
HETATM   22  C   UNL     1      24.937  48.872  49.208  1.00  0.00     0.089 A 
HETATM   23  C   UNL     1      24.952  49.993  48.375  1.00  0.00     0.038 A 
HETATM   24  C   UNL     1      23.777  50.401  47.743  1.00  0.00     0.003 A 
HETATM   25  C   UNL     1      22.594  49.695  47.948  1.00  0.00     0.002 A 
HETATM   26  C   UNL     1      22.582  48.561  48.765  1.00  0.00     0.026 A 
BRANCH  22  27
HETATM   27  O   UNL     1      26.059  48.389  49.845  1.00  0.00    -0.354 OA
HETATM   28  C   UNL     1      27.264  48.561  49.106  1.00  0.00     0.210 C 
ENDBRANCH  22  27
ENDBRANCH  19  21
ENDBRANCH  18  19
ENDBRANCH   2  18
TORSDOF 6
ENDMDL
MODEL 4
REMARK VINA RESULT:      -8.7      2.397      9.205
REMARK  6 active torsions:
REMARK  status: ('A' for Active; 'I' for Inactive)
REMARK    1  A    between atoms: C_7  and  C_8 
REMARK    2  A    between atoms: N_9  and  N_10 
REMARK       I    between atoms: N_10  and  C_11 
REMARK    3  A    between atoms: C_11  and  C_12 
REMARK    4  A    between atoms: C_12  and  N_13 
REMARK    5  A    between atoms: N_13  and  C_14 
REMARK    6  A    between atoms: C_15  and  O_16 
ROOT
HETATM    1  N   UNL     1      25.179  47.162  51.230  1.00  0.00    -0.246 N 
HETATM    2  C   UNL     1      25.406  46.933  49.876  1.00  0.00     0.250 C 
HETATM    3  O   UNL     1      26.505  46.745  49.356  1.00  0.00    -0.270 OA
HETATM    4  H   UNL     1      24.226  47.009  51.561  1.00  0.00     0.192 HD
ENDROOT
BRANCH   1   5
HETATM    5  N   UNL     1      26.144  47.194  52.206  1.00  0.00    -0.184 NA
HETATM    6  C   UNL     1      26.174  46.203  53.041  1.00  0.00     0.153 C 
BRANCH   6   7
HETATM    7  C   UNL     1      27.152  46.162  54.113  1.00  0.00     0.018 A 
HETATM    8  C   UNL     1      27.297  47.056  55.165  1.00  0.00     0.018 A 
HETATM    9  C   UNL     1      26.529  48.276  55.527  1.00  0.00     0.069 C 
HETATM   10  N   UNL     1      28.356  46.632  55.931  1.00  0.00    -0.358 N 
HETATM   11  H   UNL     1      28.690  47.092  56.765  1.00  0.00     0.166 HD
HETATM   12  C   UNL     1      28.906  45.486  55.409  1.00  0.00     0.043 A 
HETATM   13  C   UNL     1      28.170  45.160  54.271  1.00  0.00     0.004 A 
HETATM   14  C   UNL     1      29.991  44.721  55.857  1.00  0.00     0.030 A 
HETATM   15  C   UNL     1      28.538  44.008  53.544  1.00  0.00     0.014 A 
HETATM   16  C   UNL     1      29.621  43.233  53.975  1.00  0.00     0.001 A 
HETATM   17  C   UNL     1      30.335  43.587  55.116  1.00  0.00     0.002 A 
ENDBRANCH   6   7
ENDBRANCH   1   5
BRANCH   2  18
HETATM   18  C   UNL     1      24.113  46.905  49.054  1.00  0.00     0.197 C 
BRANCH  18  19
HETATM   19  N   UNL     1      23.000  47.536  49.789  1.00  0.00    -0.282 NA
HETATM   20  H   UNL     1      23.253  47.703  50.771  1.00  0.00     0.128 HD
BRANCH  19  21
HETATM   21  C   UNL     1      22.590  48.797  49.285  1.00  0.00     0.042 A 
HETATM   22  C   UNL     1      21.226  48.993  48.977  1.00  0.00     0.089 A 
HETATM   23  C   UNL     1      20.777  50.215  48.471  1.00  0.00     0.038 A 
HETATM   24  C   UNL     1      21.693  51.233  48.207  1.00  0.00     0.003 A 
HETATM   25  C   UNL     1      23.051  51.028  48.443  1.00  0.00     0.002 A 
HETATM   26  C   UNL     1      23.499  49.813  48.969  1.00  0.00     0.026 A 
BRANCH  22  27
HETATM   27  O   UNL     1      20.383  47.949  49.290  1.00  0.00    -0.354 OA
HETATM   28  C   UNL     1      19.150  48.355  49.876  1.00  0.00     0.210 C 
ENDBRANCH  22  27
ENDBRANCH  19  21
ENDBRANCH  18  19
ENDBRANCH   2  18
TORSDOF 6
ENDMDL
MODEL 5
REMARK VINA RESULT:      -8.6      1.416      2.117
REMARK  6 active torsions:
REMARK  status: ('A' for Active; 'I' for Inactive)
REMARK    1  A    between atoms: C_7  and  C_8 
REMARK    2  A    between atoms: N_9  and  N_10 
REMARK       I    between atoms: N_10  and  C_11 
REMARK    3  A    between atoms: C_11  and  C_12 
REMARK    4  A    between atoms: C_12  and  N_13 
REMARK    5  A    between atoms: N_13  and  C_14 
REMARK    6  A    between atoms: C_15  and  O_16 
ROOT
HETATM    1  N   UNL     1      26.188  46.373  52.009  1.00  0.00    -0.246 N 
HETATM    2  C   UNL     1      25.533  45.219  52.434  1.00  0.00     0.250 C 
HETATM    3  O   UNL     1      24.342  44.966  52.258  1.00  0.00    -0.270 OA
HETATM    4  H   UNL     1      27.205  46.323  51.958  1.00  0.00     0.192 HD
ENDROOT
BRANCH   1   5
HETATM    5  N   UNL     1      25.612  47.403  51.307  1.00  0.00    -0.184 NA
HETATM    6  C   UNL     1      25.852  47.458  50.034  1.00  0.00     0.153 C 
BRANCH   6   7
HETATM    7  C   UNL     1      25.296  48.521  49.217  1.00  0.00     0.018 A 
HETATM    8  C   UNL     1      25.969  49.592  48.642  1.00  0.00     0.018 A 
HETATM    9  C   UNL     1      27.407  49.970  48.662  1.00  0.00     0.069 C 
HETATM   10  N   UNL     1      25.046  50.350  47.966  1.00  0.00    -0.358 N 
HETATM   11  H   UNL     1      25.253  51.193  47.450  1.00  0.00     0.166 HD
HETATM   12  C   UNL     1      23.789  49.807  48.081  1.00  0.00     0.043 A 
HETATM   13  C   UNL     1      23.912  48.654  48.855  1.00  0.00     0.004 A 
HETATM   14  C   UNL     1      22.564  50.246  47.562  1.00  0.00     0.030 A 
HETATM   15  C   UNL     1      22.748  47.901  49.123  1.00  0.00     0.014 A 
HETATM   16  C   UNL     1      21.516  48.327  48.615  1.00  0.00     0.001 A 
HETATM   17  C   UNL     1      21.428  49.483  47.846  1.00  0.00     0.002 A 
ENDBRANCH   6   7
ENDBRANCH   1   5
BRANCH   2  18
HETATM   18  C   UNL     1      26.468  44.235  53.146  1.00  0.00     0.197 C 
BRANCH  18  19
HETATM   19  N   UNL     1      27.120  44.866  54.309  1.00  0.00    -0.282 NA
HETATM   20  H   UNL     1      26.554  44.751  55.159  1.00  0.00     0.128 HD
BRANCH  19  21
HETATM   21  C   UNL     1      28.399  44.344  54.633  1.00  0.00     0.042 A 
HETATM   22  C   UNL     1      29.201  45.044  55.562  1.00  0.00     0.089 A 
HETATM   23  C   UNL     1      30.470  44.572  55.906  1.00  0.00     0.038 A 
HETATM   24  C   UNL     1      30.978  43.433  55.281  1.00  0.00     0.003 A 
HETATM   25  C   UNL     1      30.222  42.772  54.314  1.00  0.00     0.002 A 
HETATM   26  C   UNL     1      28.944  43.232  53.984  1.00  0.00     0.026 A 
BRANCH  22  27
HETATM   27  O   UNL     1      28.618  46.143  56.152  1.00  0.00    -0.354 OA
HETATM   28  C   UNL     1      28.732  46.169  57.571  1.00  0.00     0.210 C 
ENDBRANCH  22  27
ENDBRANCH  19  21
ENDBRANCH  18  19
ENDBRANCH   2  18
TORSDOF 6
ENDMDL
MODEL 6
REMARK VINA RESULT:      -8.5      4.656      8.039
REMARK  6 active torsions:
REMARK  status: ('A' for Active; 'I' for Inactive)
REMARK    1  A    between atoms: C_7  and  C_8 
REMARK    2  A    between atoms: N_9  and  N_10 
REMARK       I    between atoms: N_10  and  C_11 
REMARK    3  A    between atoms: C_11  and  C_12 
REMARK    4  A    between atoms: C_12  and  N_13 
REMARK    5  A    between atoms: N_13  and  C_14 
REMARK    6  A    between atoms: C_15  and  O_16 
ROOT
HETATM    1  N   UNL     1      26.112  43.174  52.140  1.00  0.00    -0.246 N 
HETATM    2  C   UNL     1      24.931  43.586  51.529  1.00  0.00     0.250 C 
HETATM    3  O   UNL     1      24.162  44.443  51.962  1.00  0.00    -0.270 OA
HETATM    4  H   UNL     1      26.783  42.688  51.546  1.00  0.00     0.192 HD
ENDROOT
BRANCH   1   5
HETATM    5  N   UNL     1      26.619  43.674  53.314  1.00  0.00    -0.184 NA
HETATM    6  C   UNL     1      27.454  44.662  53.225  1.00  0.00     0.153 C 
BRANCH   6   7
HETATM    7  C   UNL     1      28.050  45.244  54.415  1.00  0.00     0.018 A 
HETATM    8  C   UNL     1      27.689  46.421  55.056  1.00  0.00     0.018 A 
HETATM    9  C   UNL     1      26.621  47.412  54.758  1.00  0.00     0.069 C 
HETATM   10  N   UNL     1      28.528  46.585  56.131  1.00  0.00    -0.358 N 
HETATM   11  H   UNL     1      28.496  47.357  56.780  1.00  0.00     0.166 HD
HETATM   12  C   UNL     1      29.426  45.548  56.210  1.00  0.00     0.043 A 
HETATM   13  C   UNL     1      29.149  44.685  55.151  1.00  0.00     0.004 A 
HETATM   14  C   UNL     1      30.453  45.312  57.133  1.00  0.00     0.030 A 
HETATM   15  C   UNL     1      29.941  43.525  55.009  1.00  0.00     0.014 A 
HETATM   16  C   UNL     1      30.973  43.275  55.920  1.00  0.00     0.001 A 
HETATM   17  C   UNL     1      31.224  44.157  56.966  1.00  0.00     0.002 A 
ENDBRANCH   6   7
ENDBRANCH   1   5
BRANCH   2  18
HETATM   18  C   UNL     1      24.671  42.870  50.199  1.00  0.00     0.197 C 
BRANCH  18  19
HETATM   19  N   UNL     1      25.076  41.454  50.267  1.00  0.00    -0.282 NA
HETATM   20  H   UNL     1      24.297  40.833  50.016  1.00  0.00     0.128 HD
BRANCH  19  21
HETATM   21  C   UNL     1      26.141  41.094  49.402  1.00  0.00     0.042 A 
HETATM   22  C   UNL     1      27.377  40.716  49.970  1.00  0.00     0.089 A 
HETATM   23  C   UNL     1      28.457  40.361  49.157  1.00  0.00     0.038 A 
HETATM   24  C   UNL     1      28.334  40.441  47.770  1.00  0.00     0.003 A 
HETATM   25  C   UNL     1      27.140  40.877  47.199  1.00  0.00     0.002 A 
HETATM   26  C   UNL     1      26.053  41.213  48.011  1.00  0.00     0.026 A 
BRANCH  22  27
HETATM   27  O   UNL     1      27.409  40.638  51.345  1.00  0.00    -0.354 OA
HETATM   28  C   UNL     1      28.716  40.739  51.901  1.00  0.00     0.210 C 
ENDBRANCH  22  27
ENDBRANCH  19  21
ENDBRANCH  18  19
ENDBRANCH   2  18
TORSDOF 6
ENDMDL
MODEL 7
REMARK VINA RESULT:      -8.5      5.198      9.152
REMARK  6 active torsions:
REMARK  status: ('A' for Active; 'I' for Inactive)
REMARK    1  A    between atoms: C_7  and  C_8 
REMARK    2  A    between atoms: N_9  and  N_10 
REMARK       I    between atoms: N_10  and  C_11 
REMARK    3  A    between atoms: C_11  and  C_12 
REMARK    4  A    between atoms: C_12  and  N_13 
REMARK    5  A    between atoms: N_13  and  C_14 
REMARK    6  A    between atoms: C_15  and  O_16 
ROOT
HETATM    1  N   UNL     1      27.432  42.451  52.191  1.00  0.00    -0.246 N 
HETATM    2  C   UNL     1      28.097  41.288  51.811  1.00  0.00     0.250 C 
HETATM    3  O   UNL     1      28.960  40.709  52.471  1.00  0.00    -0.270 OA
HETATM    4  H   UNL     1      26.558  42.651  51.704  1.00  0.00     0.192 HD
ENDROOT
BRANCH   1   5
HETATM    5  N   UNL     1      27.617  43.126  53.372  1.00  0.00    -0.184 NA
HETATM    6  C   UNL     1      28.490  44.084  53.375  1.00  0.00     0.153 C 
BRANCH   6   7
HETATM    7  C   UNL     1      28.761  44.841  54.584  1.00  0.00     0.018 A 
HETATM    8  C   UNL     1      28.159  46.022  54.998  1.00  0.00     0.018 A 
HETATM    9  C   UNL     1      27.086  46.845  54.380  1.00  0.00     0.069 C 
HETATM   10  N   UNL     1      28.732  46.385  56.193  1.00  0.00    -0.358 N 
HETATM   11  H   UNL     1      28.488  47.205  56.728  1.00  0.00     0.166 HD
HETATM   12  C   UNL     1      29.690  45.475  56.570  1.00  0.00     0.043 A 
HETATM   13  C   UNL     1      29.729  44.490  55.585  1.00  0.00     0.004 A 
HETATM   14  C   UNL     1      30.517  45.452  57.701  1.00  0.00     0.030 A 
HETATM   15  C   UNL     1      30.643  43.425  55.739  1.00  0.00     0.014 A 
HETATM   16  C   UNL     1      31.479  43.387  56.861  1.00  0.00     0.001 A 
HETATM   17  C   UNL     1      31.415  44.388  57.826  1.00  0.00     0.002 A 
ENDBRANCH   6   7
ENDBRANCH   1   5
BRANCH   2  18
HETATM   18  C   UNL     1      27.626  40.750  50.456  1.00  0.00     0.197 C 
BRANCH  18  19
HETATM   19  N   UNL     1      28.768  40.338  49.619  1.00  0.00    -0.282 NA
HETATM   20  H   UNL     1      29.281  39.559  50.050  1.00  0.00     0.128 HD
BRANCH  19  21
HETATM   21  C   UNL     1      28.424  39.890  48.318  1.00  0.00     0.042 A 
HETATM   22  C   UNL     1      28.312  38.501  48.087  1.00  0.00     0.089 A 
HETATM   23  C   UNL     1      27.984  38.013  46.820  1.00  0.00     0.038 A 
HETATM   24  C   UNL     1      27.826  38.901  45.756  1.00  0.00     0.003 A 
HETATM   25  C   UNL     1      28.000  40.269  45.957  1.00  0.00     0.002 A 
HETATM   26  C   UNL     1      28.308  40.760  47.229  1.00  0.00     0.026 A 
BRANCH  22  27
HETATM   27  O   UNL     1      28.458  37.693  49.193  1.00  0.00    -0.354 OA
HETATM   28  C   UNL     1      27.268  37.010  49.573  1.00  0.00     0.210 C 
ENDBRANCH  22  27
ENDBRANCH  19  21
ENDBRANCH  18  19
ENDBRANCH   2  18
TORSDOF 6
ENDMDL
MODEL 8
REMARK VINA RESULT:      -8.5      2.125      8.619
REMARK  6 active torsions:
REMARK  status: ('A' for Active; 'I' for Inactive)
REMARK    1  A    between atoms: C_7  and  C_8 
REMARK    2  A    between atoms: N_9  and  N_10 
REMARK       I    between atoms: N_10  and  C_11 
REMARK    3  A    between atoms: C_11  and  C_12 
REMARK    4  A    between atoms: C_12  and  N_13 
REMARK    5  A    between atoms: N_13  and  C_14 
REMARK    6  A    between atoms: C_15  and  O_16 
ROOT
HETATM    1  N   UNL     1      24.808  45.659  51.449  1.00  0.00    -0.246 N 
HETATM    2  C   UNL     1      24.976  45.184  50.151  1.00  0.00     0.250 C 
HETATM    3  O   UNL     1      25.878  44.439  49.772  1.00  0.00    -0.270 OA
HETATM    4  H   UNL     1      23.882  46.014  51.685  1.00  0.00     0.192 HD
ENDROOT
BRANCH   1   5
HETATM    5  N   UNL     1      25.613  45.353  52.519  1.00  0.00    -0.184 NA
HETATM    6  C   UNL     1      26.530  46.214  52.834  1.00  0.00     0.153 C 
BRANCH   6   7
HETATM    7  C   UNL     1      27.435  45.966  53.942  1.00  0.00     0.018 A 
HETATM    8  C   UNL     1      27.548  46.686  55.124  1.00  0.00     0.018 A 
HETATM    9  C   UNL     1      26.807  47.875  55.621  1.00  0.00     0.069 C 
HETATM   10  N   UNL     1      28.537  46.101  55.876  1.00  0.00    -0.358 N 
HETATM   11  H   UNL     1      28.835  46.415  56.789  1.00  0.00     0.166 HD
HETATM   12  C   UNL     1      29.073  45.019  55.220  1.00  0.00     0.043 A 
HETATM   13  C   UNL     1      28.399  44.903  54.006  1.00  0.00     0.004 A 
HETATM   14  C   UNL     1      30.095  44.144  55.609  1.00  0.00     0.030 A 
HETATM   15  C   UNL     1      28.767  43.854  53.135  1.00  0.00     0.014 A 
HETATM   16  C   UNL     1      29.788  42.972  53.505  1.00  0.00     0.001 A 
HETATM   17  C   UNL     1      30.440  43.117  54.726  1.00  0.00     0.002 A 
ENDBRANCH   6   7
ENDBRANCH   1   5
BRANCH   2  18
HETATM   18  C   UNL     1      23.877  45.667  49.197  1.00  0.00     0.197 C 
BRANCH  18  19
HETATM   19  N   UNL     1      23.123  46.794  49.779  1.00  0.00    -0.282 NA
HETATM   20  H   UNL     1      23.458  47.014  50.725  1.00  0.00     0.128 HD
BRANCH  19  21
HETATM   21  C   UNL     1      23.211  48.009  49.053  1.00  0.00     0.042 A 
HETATM   22  C   UNL     1      24.359  48.815  49.218  1.00  0.00     0.089 A 
HETATM   23  C   UNL     1      24.486  50.025  48.531  1.00  0.00     0.038 A 
HETATM   24  C   UNL     1      23.443  50.473  47.721  1.00  0.00     0.003 A 
HETATM   25  C   UNL     1      22.277  49.719  47.604  1.00  0.00     0.002 A 
HETATM   26  C   UNL     1      22.157  48.499  48.275  1.00  0.00     0.026 A 
BRANCH  22  27
HETATM   27  O   UNL     1      25.354  48.291  50.014  1.00  0.00    -0.354 OA
HETATM   28  C   UNL     1      26.661  48.405  49.461  1.00  0.00     0.210 C 
ENDBRANCH  22  27
ENDBRANCH  19  21
ENDBRANCH  18  19
ENDBRANCH   2  18
TORSDOF 6
ENDMDL
MODEL 9
REMARK VINA RESULT:      -8.5      3.198      9.560
REMARK  6 active torsions:
REMARK  status: ('A' for Active; 'I' for Inactive)
REMARK    1  A    between atoms: C_7  and  C_8 
REMARK    2  A    between atoms: N_9  and  N_10 
REMARK       I    between atoms: N_10  and  C_11 
REMARK    3  A    between atoms: C_11  and  C_12 
REMARK    4  A    between atoms: C_12  and  N_13 
REMARK    5  A    between atoms: N_13  and  C_14 
REMARK    6  A    between atoms: C_15  and  O_16 
ROOT
HETATM    1  N   UNL     1      23.795  46.808  49.855  1.00  0.00    -0.246 N 
HETATM    2  C   UNL     1      23.511  48.089  49.388  1.00  0.00     0.250 C 
HETATM    3  O   UNL     1      24.215  49.084  49.555  1.00  0.00    -0.270 OA
HETATM    4  H   UNL     1      23.294  46.042  49.406  1.00  0.00     0.192 HD
ENDROOT
BRANCH   1   5
HETATM    5  N   UNL     1      24.916  46.447  50.560  1.00  0.00    -0.184 NA
HETATM    6  C   UNL     1      24.758  45.598  51.527  1.00  0.00     0.153 C 
BRANCH   6   7
HETATM    7  C   UNL     1      25.887  45.171  52.335  1.00  0.00     0.018 A 
HETATM    8  C   UNL     1      26.572  43.965  52.266  1.00  0.00     0.018 A 
HETATM    9  C   UNL     1      26.394  42.786  51.380  1.00  0.00     0.069 C 
HETATM   10  N   UNL     1      27.558  43.991  53.222  1.00  0.00    -0.358 N 
HETATM   11  H   UNL     1      28.215  43.245  53.399  1.00  0.00     0.166 HD
HETATM   12  C   UNL     1      27.537  45.179  53.913  1.00  0.00     0.043 A 
HETATM   13  C   UNL     1      26.504  45.945  53.376  1.00  0.00     0.004 A 
HETATM   14  C   UNL     1      28.349  45.627  54.962  1.00  0.00     0.030 A 
HETATM   15  C   UNL     1      26.271  47.228  53.918  1.00  0.00     0.014 A 
HETATM   16  C   UNL     1      27.070  47.691  54.969  1.00  0.00     0.001 A 
HETATM   17  C   UNL     1      28.094  46.900  55.482  1.00  0.00     0.002 A 
ENDBRANCH   6   7
ENDBRANCH   1   5
BRANCH   2  18
HETATM   18  C   UNL     1      22.205  48.153  48.588  1.00  0.00     0.197 C 
BRANCH  18  19
HETATM   19  N   UNL     1      21.041  48.302  49.481  1.00  0.00    -0.282 NA
HETATM   20  H   UNL     1      21.320  48.243  50.468  1.00  0.00     0.128 HD
BRANCH  19  21
HETATM   21  C   UNL     1      20.347  49.533  49.358  1.00  0.00     0.042 A 
HETATM   22  C   UNL     1      18.972  49.571  49.681  1.00  0.00     0.089 A 
HETATM   23  C   UNL     1      18.246  50.759  49.567  1.00  0.00     0.038 A 
HETATM   24  C   UNL     1      18.866  51.905  49.070  1.00  0.00     0.003 A 
HETATM   25  C   UNL     1      20.205  51.862  48.685  1.00  0.00     0.002 A 
HETATM   26  C   UNL     1      20.938  50.680  48.817  1.00  0.00     0.026 A 
BRANCH  22  27
HETATM   27  O   UNL     1      18.440  48.406  50.187  1.00  0.00    -0.354 OA
HETATM   28  C   UNL     1      17.535  47.750  49.305  1.00  0.00     0.210 C 
ENDBRANCH  22  27
ENDBRANCH  19  21
ENDBRANCH  18  19
ENDBRANCH   2  18
TORSDOF 6
ENDMDL
MODEL 10
REMARK VINA RESULT:      -8.1      4.860      8.667
REMARK  6 active torsions:
REMARK  status: ('A' for Active; 'I' for Inactive)
REMARK    1  A    between atoms: C_7  and  C_8 
REMARK    2  A    between atoms: N_9  and  N_10 
REMARK       I    between atoms: N_10  and  C_11 
REMARK    3  A    between atoms: C_11  and  C_12 
REMARK    4  A    between atoms: C_12  and  N_13 
REMARK    5  A    between atoms: N_13  and  C_14 
REMARK    6  A    between atoms: C_15  and  O_16 
ROOT
HETATM    1  N   UNL     1      27.414  42.960  51.279  1.00  0.00    -0.246 N 
HETATM    2  C   UNL     1      26.993  43.478  50.057  1.00  0.00     0.250 C 
HETATM    3  O   UNL     1      27.119  44.646  49.693  1.00  0.00    -0.270 OA
HETATM    4  H   UNL     1      27.514  41.947  51.331  1.00  0.00     0.192 HD
ENDROOT
BRANCH   1   5
HETATM    5  N   UNL     1      28.057  43.667  52.265  1.00  0.00    -0.184 NA
HETATM    6  C   UNL     1      27.316  44.249  53.155  1.00  0.00     0.153 C 
BRANCH   6   7
HETATM    7  C   UNL     1      27.911  45.030  54.225  1.00  0.00     0.018 A 
HETATM    8  C   UNL     1      27.529  46.287  54.673  1.00  0.00     0.018 A 
HETATM    9  C   UNL     1      26.433  47.192  54.236  1.00  0.00     0.069 C 
HETATM   10  N   UNL     1      28.377  46.642  55.693  1.00  0.00    -0.358 N 
HETATM   11  H   UNL     1      28.333  47.509  56.209  1.00  0.00     0.166 HD
HETATM   12  C   UNL     1      29.302  45.652  55.926  1.00  0.00     0.043 A 
HETATM   13  C   UNL     1      29.033  44.623  55.025  1.00  0.00     0.004 A 
HETATM   14  C   UNL     1      30.346  45.593  56.858  1.00  0.00     0.030 A 
HETATM   15  C   UNL     1      29.852  43.474  55.060  1.00  0.00     0.014 A 
HETATM   16  C   UNL     1      30.902  43.399  55.982  1.00  0.00     0.001 A 
HETATM   17  C   UNL     1      31.143  44.445  56.867  1.00  0.00     0.002 A 
ENDBRANCH   6   7
ENDBRANCH   1   5
BRANCH   2  18
HETATM   18  C   UNL     1      26.355  42.418  49.153  1.00  0.00     0.197 C 
BRANCH  18  19
HETATM   19  N   UNL     1      27.201  42.141  47.977  1.00  0.00    -0.282 NA
HETATM   20  H   UNL     1      28.025  42.754  47.961  1.00  0.00     0.128 HD
BRANCH  19  21
HETATM   21  C   UNL     1      27.713  40.820  47.907  1.00  0.00     0.042 A 
HETATM   22  C   UNL     1      27.634  40.127  46.679  1.00  0.00     0.089 A 
HETATM   23  C   UNL     1      28.117  38.821  46.565  1.00  0.00     0.038 A 
HETATM   24  C   UNL     1      28.627  38.171  47.688  1.00  0.00     0.003 A 
HETATM   25  C   UNL     1      28.648  38.821  48.921  1.00  0.00     0.002 A 
HETATM   26  C   UNL     1      28.183  40.135  49.032  1.00  0.00     0.026 A 
BRANCH  22  27
HETATM   27  O   UNL     1      27.142  40.846  45.612  1.00  0.00    -0.354 OA
HETATM   28  C   UNL     1      26.161  40.152  44.848  1.00  0.00     0.210 C 
ENDBRANCH  22  27
ENDBRANCH  19  21
ENDBRANCH  18  19
ENDBRANCH   2  18
TORSDOF 6
ENDMDL
