MODEL 1
REMARK VINA RESULT:      -8.8      0.000      0.000
REMARK  8 active torsions:
REMARK  status: ('A' for Active; 'I' for Inactive)
REMARK    1  A    between atoms: C_2  and  N_3 
REMARK    2  A    between atoms: C_2  and  C_23 
REMARK       I    between atoms: N_3  and  C_4 
REMARK    3  A    between atoms: N_3  and  C_16 
REMARK    4  A    between atoms: C_4  and  C_5 
REMARK    5  A    between atoms: C_5  and  N_6 
REMARK    6  A    between atoms: C_16  and  C_17 
REMARK       I    between atoms: C_23  and  N_24 
REMARK    7  A    between atoms: N_24  and  C_25 
REMARK    8  A    between atoms: C_28  and  O_29 
ROOT
HETATM    1  N   UNL     1      20.028  47.689  48.153  1.00  0.00    -0.333 N 
HETATM    2  C   UNL     1      21.379  47.468  47.881  1.00  0.00     0.240 C 
HETATM    3  O   UNL     1      21.735  47.052  46.774  1.00  0.00    -0.271 OA
ENDROOT
BRANCH   1   4
HETATM    4  C   UNL     1      19.038  47.332  47.103  1.00  0.00     0.176 C 
HETATM    5  C   UNL     1      18.172  46.128  47.484  1.00  0.00     0.042 C 
BRANCH   4   6
HETATM    6  C   UNL     1      18.166  48.492  46.538  1.00  0.00     0.244 C 
HETATM    7  N   UNL     1      18.852  49.389  45.732  1.00  0.00    -0.325 N 
HETATM    8  H   UNL     1      19.863  49.312  45.722  1.00  0.00     0.169 HD
HETATM    9  O   UNL     1      16.944  48.471  46.695  1.00  0.00    -0.271 OA
BRANCH   7  10
HETATM   10  C   UNL     1      18.309  50.495  45.039  1.00  0.00     0.035 A 
HETATM   11  C   UNL     1      18.276  50.605  43.647  1.00  0.00     0.032 A 
HETATM   12  C   UNL     1      17.711  51.728  43.033  1.00  0.00     0.039 A 
HETATM   13  C   UNL     1      17.157  52.754  43.794  1.00  0.00     0.068 A 
HETATM   14  C   UNL     1      17.200  52.665  45.184  1.00  0.00     0.039 A 
HETATM   15  C   UNL     1      17.775  51.542  45.800  1.00  0.00     0.032 A 
BRANCH  13  16
HETATM   16  O   UNL     1      16.630  53.789  43.073  1.00  0.00    -0.356 OA
HETATM   17  C   UNL     1      15.371  54.282  43.512  1.00  0.00     0.210 C 
ENDBRANCH  13  16
ENDBRANCH   7  10
ENDBRANCH   4   6
ENDBRANCH   1   4
BRANCH   1  18
HETATM   18  C   UNL     1      19.498  48.274  49.396  1.00  0.00     0.165 C 
BRANCH  18  19
HETATM   19  C   UNL     1      19.175  49.749  49.340  1.00  0.00    -0.040 A 
HETATM   20  C   UNL     1      20.064  50.694  48.809  1.00  0.00     0.009 A 
HETATM   21  C   UNL     1      19.726  52.049  48.765  1.00  0.00     0.001 A 
HETATM   22  C   UNL     1      18.489  52.478  49.239  1.00  0.00     0.000 A 
HETATM   23  C   UNL     1      17.584  51.550  49.745  1.00  0.00     0.001 A 
HETATM   24  C   UNL     1      17.919  50.195  49.784  1.00  0.00     0.009 A 
ENDBRANCH  18  19
ENDBRANCH   1  18
BRANCH   2  25
HETATM   25  C   UNL     1      22.446  47.755  48.918  1.00  0.00     0.250 C 
BRANCH  25  26
HETATM   26  N   UNL     1      23.438  48.723  48.506  1.00  0.00    -0.263 N 
HETATM   27  N   UNL     1      23.132  49.713  47.641  1.00  0.00     0.006 NA
HETATM   28  N   UNL     1      24.254  50.367  47.367  1.00  0.00    -0.158 NA
HETATM   29  C   UNL     1      25.265  49.805  48.101  1.00  0.00     0.102 A 
HETATM   30  C   UNL     1      24.763  48.756  48.863  1.00  0.00     0.079 A 
HETATM   31  C   UNL     1      26.631  50.115  48.169  1.00  0.00     0.035 A 
HETATM   32  C   UNL     1      25.558  47.989  49.721  1.00  0.00     0.033 A 
HETATM   33  C   UNL     1      26.918  48.312  49.778  1.00  0.00     0.002 A 
HETATM   34  C   UNL     1      27.449  49.354  49.015  1.00  0.00     0.002 A 
ENDBRANCH  25  26
ENDBRANCH   2  25
TORSDOF 8
ENDMDL
MODEL 2
REMARK VINA RESULT:      -8.8      4.407      7.565
REMARK  8 active torsions:
REMARK  status: ('A' for Active; 'I' for Inactive)
REMARK    1  A    between atoms: C_2  and  N_3 
REMARK    2  A    between atoms: C_2  and  C_23 
REMARK       I    between atoms: N_3  and  C_4 
REMARK    3  A    between atoms: N_3  and  C_16 
REMARK    4  A    between atoms: C_4  and  C_5 
REMARK    5  A    between atoms: C_5  and  N_6 
REMARK    6  A    between atoms: C_16  and  C_17 
REMARK       I    between atoms: C_23  and  N_24 
REMARK    7  A    between atoms: N_24  and  C_25 
REMARK    8  A    between atoms: C_28  and  O_29 
ROOT
HETATM    1  N   UNL     1      25.943  46.773  50.496  1.00  0.00    -0.333 N 
HETATM    2  C   UNL     1      25.519  46.664  51.821  1.00  0.00     0.240 C 
HETATM    3  O   UNL     1      25.275  47.676  52.486  1.00  0.00    -0.271 OA
ENDROOT
BRANCH   1   4
HETATM    4  C   UNL     1      26.169  48.136  49.946  1.00  0.00     0.176 C 
HETATM    5  C   UNL     1      27.480  48.254  49.165  1.00  0.00     0.042 C 
BRANCH   4   6
HETATM    6  C   UNL     1      24.988  48.779  49.160  1.00  0.00     0.244 C 
HETATM    7  N   UNL     1      23.771  48.749  49.823  1.00  0.00    -0.325 N 
HETATM    8  H   UNL     1      23.720  48.176  50.659  1.00  0.00     0.169 HD
HETATM    9  O   UNL     1      25.211  49.389  48.114  1.00  0.00    -0.271 OA
BRANCH   7  10
HETATM   10  C   UNL     1      22.549  49.309  49.382  1.00  0.00     0.035 A 
HETATM   11  C   UNL     1      22.243  50.669  49.451  1.00  0.00     0.032 A 
HETATM   12  C   UNL     1      21.015  51.150  48.983  1.00  0.00     0.039 A 
HETATM   13  C   UNL     1      20.076  50.284  48.426  1.00  0.00     0.068 A 
HETATM   14  C   UNL     1      20.362  48.922  48.369  1.00  0.00     0.039 A 
HETATM   15  C   UNL     1      21.591  48.439  48.846  1.00  0.00     0.032 A 
BRANCH  13  16
HETATM   16  O   UNL     1      18.922  50.880  48.000  1.00  0.00    -0.356 OA
HETATM   17  C   UNL     1      18.805  52.274  48.257  1.00  0.00     0.210 C 
ENDBRANCH  13  16
ENDBRANCH   7  10
ENDBRANCH   4   6
ENDBRANCH   1   4
BRANCH   1  18
HETATM   18  C   UNL     1      26.167  45.641  49.582  1.00  0.00     0.165 C 
BRANCH  18  19
HETATM   19  C   UNL     1      24.950  44.800  49.271  1.00  0.00    -0.040 A 
HETATM   20  C   UNL     1      23.701  45.364  48.975  1.00  0.00     0.009 A 
HETATM   21  C   UNL     1      22.601  44.555  48.682  1.00  0.00     0.001 A 
HETATM   22  C   UNL     1      22.736  43.169  48.668  1.00  0.00     0.000 A 
HETATM   23  C   UNL     1      23.974  42.592  48.932  1.00  0.00     0.001 A 
HETATM   24  C   UNL     1      25.075  43.402  49.219  1.00  0.00     0.009 A 
ENDBRANCH  18  19
ENDBRANCH   1  18
BRANCH   2  25
HETATM   25  C   UNL     1      25.317  45.310  52.473  1.00  0.00     0.250 C 
BRANCH  25  26
HETATM   26  N   UNL     1      26.539  44.647  52.869  1.00  0.00    -0.263 N 
HETATM   27  N   UNL     1      26.903  43.467  52.322  1.00  0.00     0.006 NA
HETATM   28  N   UNL     1      27.994  43.052  52.953  1.00  0.00    -0.158 NA
HETATM   29  C   UNL     1      28.339  44.003  53.877  1.00  0.00     0.102 A 
HETATM   30  C   UNL     1      27.430  45.054  53.830  1.00  0.00     0.079 A 
HETATM   31  C   UNL     1      29.394  44.045  54.800  1.00  0.00     0.035 A 
HETATM   32  C   UNL     1      27.522  46.179  54.655  1.00  0.00     0.033 A 
HETATM   33  C   UNL     1      28.582  46.206  55.569  1.00  0.00     0.002 A 
HETATM   34  C   UNL     1      29.501  45.158  55.644  1.00  0.00     0.002 A 
ENDBRANCH  25  26
ENDBRANCH   2  25
TORSDOF 8
ENDMDL
MODEL 3
REMARK VINA RESULT:      -8.7      4.558      7.782
REMARK  8 active torsions:
REMARK  status: ('A' for Active; 'I' for Inactive)
REMARK    1  A    between atoms: C_2  and  N_3 
REMARK    2  A    between atoms: C_2  and  C_23 
REMARK       I    between atoms: N_3  and  C_4 
REMARK    3  A    between atoms: N_3  and  C_16 
REMARK    4  A    between atoms: C_4  and  C_5 
REMARK    5  A    between atoms: C_5  and  N_6 
REMARK    6  A    between atoms: C_16  and  C_17 
REMARK       I    between atoms: C_23  and  N_24 
REMARK    7  A    between atoms: N_24  and  C_25 
REMARK    8  A    between atoms: C_28  and  O_29 
ROOT
HETATM    1  N   UNL     1      26.194  46.804  50.534  1.00  0.00    -0.333 N 
HETATM    2  C   UNL     1      25.758  46.686  51.854  1.00  0.00     0.240 C 
HETATM    3  O   UNL     1      25.415  47.686  52.493  1.00  0.00    -0.271 OA
ENDROOT
BRANCH   1   4
HETATM    4  C   UNL     1      26.309  48.169  49.957  1.00  0.00     0.176 C 
HETATM    5  C   UNL     1      27.600  48.373  49.159  1.00  0.00     0.042 C 
BRANCH   4   6
HETATM    6  C   UNL     1      25.075  48.705  49.172  1.00  0.00     0.244 C 
HETATM    7  N   UNL     1      23.862  48.541  49.825  1.00  0.00    -0.325 N 
HETATM    8  H   UNL     1      23.864  47.951  50.650  1.00  0.00     0.169 HD
HETATM    9  O   UNL     1      25.242  49.353  48.139  1.00  0.00    -0.271 OA
BRANCH   7  10
HETATM   10  C   UNL     1      22.593  48.984  49.384  1.00  0.00     0.035 A 
HETATM   11  C   UNL     1      21.636  48.152  48.799  1.00  0.00     0.032 A 
HETATM   12  C   UNL     1      20.396  48.663  48.398  1.00  0.00     0.039 A 
HETATM   13  C   UNL     1      20.085  50.008  48.585  1.00  0.00     0.068 A 
HETATM   14  C   UNL     1      21.039  50.851  49.151  1.00  0.00     0.039 A 
HETATM   15  C   UNL     1      22.285  50.340  49.546  1.00  0.00     0.032 A 
BRANCH  13  16
HETATM   16  O   UNL     1      18.840  50.377  48.158  1.00  0.00    -0.356 OA
HETATM   17  C   UNL     1      17.877  49.335  48.057  1.00  0.00     0.210 C 
ENDBRANCH  13  16
ENDBRANCH   7  10
ENDBRANCH   4   6
ENDBRANCH   1   4
BRANCH   1  18
HETATM   18  C   UNL     1      26.532  45.677  49.648  1.00  0.00     0.165 C 
BRANCH  18  19
HETATM   19  C   UNL     1      25.411  44.702  49.372  1.00  0.00    -0.040 A 
HETATM   20  C   UNL     1      25.575  43.314  49.489  1.00  0.00     0.009 A 
HETATM   21  C   UNL     1      24.512  42.444  49.235  1.00  0.00     0.001 A 
HETATM   22  C   UNL     1      23.265  42.949  48.873  1.00  0.00     0.000 A 
HETATM   23  C   UNL     1      23.078  44.324  48.778  1.00  0.00     0.001 A 
HETATM   24  C   UNL     1      24.138  45.194  49.037  1.00  0.00     0.009 A 
ENDBRANCH  18  19
ENDBRANCH   1  18
BRANCH   2  25
HETATM   25  C   UNL     1      25.665  45.333  52.533  1.00  0.00     0.250 C 
BRANCH  25  26
HETATM   26  N   UNL     1      26.707  45.075  53.502  1.00  0.00    -0.263 N 
HETATM   27  N   UNL     1      26.714  45.694  54.702  1.00  0.00     0.006 NA
HETATM   28  N   UNL     1      27.834  45.349  55.323  1.00  0.00    -0.158 NA
HETATM   29  C   UNL     1      28.515  44.472  54.521  1.00  0.00     0.102 A 
HETATM   30  C   UNL     1      27.799  44.259  53.348  1.00  0.00     0.079 A 
HETATM   31  C   UNL     1      29.745  43.824  54.705  1.00  0.00     0.035 A 
HETATM   32  C   UNL     1      28.239  43.406  52.330  1.00  0.00     0.033 A 
HETATM   33  C   UNL     1      29.468  42.766  52.531  1.00  0.00     0.002 A 
HETATM   34  C   UNL     1      30.211  42.972  53.695  1.00  0.00     0.002 A 
ENDBRANCH  25  26
ENDBRANCH   2  25
TORSDOF 8
ENDMDL
MODEL 4
REMARK VINA RESULT:      -8.5      3.641      6.301
REMARK  8 active torsions:
REMARK  status: ('A' for Active; 'I' for Inactive)
REMARK    1  A    between atoms: C_2  and  N_3 
REMARK    2  A    between atoms: C_2  and  C_23 
REMARK       I    between atoms: N_3  and  C_4 
REMARK    3  A    between atoms: N_3  and  C_16 
REMARK    4  A    between atoms: C_4  and  C_5 
REMARK    5  A    between atoms: C_5  and  N_6 
REMARK    6  A    between atoms: C_16  and  C_17 
REMARK       I    between atoms: C_23  and  N_24 
REMARK    7  A    between atoms: N_24  and  C_25 
REMARK    8  A    between atoms: C_28  and  O_29 
ROOT
HETATM    1  N   UNL     1      23.880  45.955  49.302  1.00  0.00    -0.333 N 
HETATM    2  C   UNL     1      24.805  44.911  49.249  1.00  0.00     0.240 C 
HETATM    3  O   UNL     1      24.604  43.931  48.525  1.00  0.00    -0.271 OA
ENDROOT
BRANCH   1   4
HETATM    4  C   UNL     1      22.619  45.808  48.529  1.00  0.00     0.176 C 
HETATM    5  C   UNL     1      21.651  44.799  49.151  1.00  0.00     0.042 C 
BRANCH   4   6
HETATM    6  C   UNL     1      21.882  47.123  48.134  1.00  0.00     0.244 C 
HETATM    7  N   UNL     1      21.141  47.697  49.156  1.00  0.00    -0.325 N 
HETATM    8  H   UNL     1      21.008  47.138  49.993  1.00  0.00     0.169 HD
HETATM    9  O   UNL     1      22.107  47.645  47.042  1.00  0.00    -0.271 OA
BRANCH   7  10
HETATM   10  C   UNL     1      20.425  48.915  49.106  1.00  0.00     0.035 A 
HETATM   11  C   UNL     1      19.054  49.006  48.855  1.00  0.00     0.032 A 
HETATM   12  C   UNL     1      18.413  50.250  48.832  1.00  0.00     0.039 A 
HETATM   13  C   UNL     1      19.125  51.423  49.072  1.00  0.00     0.068 A 
HETATM   14  C   UNL     1      20.496  51.347  49.306  1.00  0.00     0.039 A 
HETATM   15  C   UNL     1      21.141  50.100  49.320  1.00  0.00     0.032 A 
BRANCH  13  16
HETATM   16  O   UNL     1      18.381  52.569  49.030  1.00  0.00    -0.356 OA
HETATM   17  C   UNL     1      17.193  52.574  49.811  1.00  0.00     0.210 C 
ENDBRANCH  13  16
ENDBRANCH   7  10
ENDBRANCH   4   6
ENDBRANCH   1   4
BRANCH   1  18
HETATM   18  C   UNL     1      24.060  47.211  50.049  1.00  0.00     0.165 C 
BRANCH  18  19
HETATM   19  C   UNL     1      25.084  48.168  49.484  1.00  0.00    -0.040 A 
HETATM   20  C   UNL     1      26.451  48.066  49.780  1.00  0.00     0.009 A 
HETATM   21  C   UNL     1      27.371  48.964  49.231  1.00  0.00     0.001 A 
HETATM   22  C   UNL     1      26.939  49.968  48.367  1.00  0.00     0.000 A 
HETATM   23  C   UNL     1      25.590  50.066  48.042  1.00  0.00     0.001 A 
HETATM   24  C   UNL     1      24.672  49.166  48.586  1.00  0.00     0.009 A 
ENDBRANCH  18  19
ENDBRANCH   1  18
BRANCH   2  25
HETATM   25  C   UNL     1      26.091  44.960  50.051  1.00  0.00     0.250 C 
BRANCH  25  26
HETATM   26  N   UNL     1      25.976  44.457  51.402  1.00  0.00    -0.263 N 
HETATM   27  N   UNL     1      24.790  44.454  52.047  1.00  0.00     0.006 NA
HETATM   28  N   UNL     1      25.013  44.046  53.290  1.00  0.00    -0.158 NA
HETATM   29  C   UNL     1      26.345  43.751  53.411  1.00  0.00     0.102 A 
HETATM   30  C   UNL     1      26.988  43.986  52.200  1.00  0.00     0.079 A 
HETATM   31  C   UNL     1      27.088  43.295  54.509  1.00  0.00     0.035 A 
HETATM   32  C   UNL     1      28.357  43.772  52.010  1.00  0.00     0.033 A 
HETATM   33  C   UNL     1      29.083  43.315  53.115  1.00  0.00     0.002 A 
HETATM   34  C   UNL     1      28.464  43.083  54.344  1.00  0.00     0.002 A 
ENDBRANCH  25  26
ENDBRANCH   2  25
TORSDOF 8
ENDMDL
MODEL 5
REMARK VINA RESULT:      -8.3      2.857      8.716
REMARK  8 active torsions:
REMARK  status: ('A' for Active; 'I' for Inactive)
REMARK    1  A    between atoms: C_2  and  N_3 
REMARK    2  A    between atoms: C_2  and  C_23 
REMARK       I    between atoms: N_3  and  C_4 
REMARK    3  A    between atoms: N_3  and  C_16 
REMARK    4  A    between atoms: C_4  and  C_5 
REMARK    5  A    between atoms: C_5  and  N_6 
REMARK    6  A    between atoms: C_16  and  C_17 
REMARK       I    between atoms: C_23  and  N_24 
REMARK    7  A    between atoms: N_24  and  C_25 
REMARK    8  A    between atoms: C_28  and  O_29 
ROOT
HETATM    1  N   UNL     1      21.896  48.877  48.527  1.00  0.00    -0.333 N 
HETATM    2  C   UNL     1      21.316  47.846  47.786  1.00  0.00     0.240 C 
HETATM    3  O   UNL     1      21.972  47.244  46.930  1.00  0.00    -0.271 OA
ENDROOT
BRANCH   1   4
HETATM    4  C   UNL     1      23.289  49.276  48.196  1.00  0.00     0.176 C 
HETATM    5  C   UNL     1      23.460  50.791  48.064  1.00  0.00     0.042 C 
BRANCH   4   6
HETATM    6  C   UNL     1      24.421  48.658  49.069  1.00  0.00     0.244 C 
HETATM    7  N   UNL     1      24.205  47.341  49.444  1.00  0.00    -0.325 N 
HETATM    8  H   UNL     1      23.280  46.962  49.270  1.00  0.00     0.169 HD
HETATM    9  O   UNL     1      25.469  49.282  49.241  1.00  0.00    -0.271 OA
BRANCH   7  10
HETATM   10  C   UNL     1      25.084  46.512  50.179  1.00  0.00     0.035 A 
HETATM   11  C   UNL     1      25.886  45.522  49.607  1.00  0.00     0.032 A 
HETATM   12  C   UNL     1      26.741  44.748  50.400  1.00  0.00     0.039 A 
HETATM   13  C   UNL     1      26.820  44.956  51.775  1.00  0.00     0.068 A 
HETATM   14  C   UNL     1      26.011  45.928  52.360  1.00  0.00     0.039 A 
HETATM   15  C   UNL     1      25.148  46.699  51.565  1.00  0.00     0.032 A 
BRANCH  13  16
HETATM   16  O   UNL     1      27.698  44.141  52.433  1.00  0.00    -0.356 OA
HETATM   17  C   UNL     1      27.790  44.325  53.840  1.00  0.00     0.210 C 
ENDBRANCH  13  16
ENDBRANCH   7  10
ENDBRANCH   4   6
ENDBRANCH   1   4
BRANCH   1  18
HETATM   18  C   UNL     1      21.244  49.595  49.636  1.00  0.00     0.165 C 
BRANCH  18  19
HETATM   19  C   UNL     1      20.235  50.646  49.233  1.00  0.00    -0.040 A 
HETATM   20  C   UNL     1      20.109  51.100  47.912  1.00  0.00     0.009 A 
HETATM   21  C   UNL     1      19.158  52.066  47.575  1.00  0.00     0.001 A 
HETATM   22  C   UNL     1      18.309  52.582  48.551  1.00  0.00     0.000 A 
HETATM   23  C   UNL     1      18.401  52.123  49.861  1.00  0.00     0.001 A 
HETATM   24  C   UNL     1      19.349  51.154  50.196  1.00  0.00     0.009 A 
ENDBRANCH  18  19
ENDBRANCH   1  18
BRANCH   2  25
HETATM   25  C   UNL     1      19.882  47.416  48.026  1.00  0.00     0.250 C 
BRANCH  25  26
HETATM   26  N   UNL     1      18.936  47.908  47.049  1.00  0.00    -0.263 N 
HETATM   27  N   UNL     1      19.175  47.792  45.725  1.00  0.00     0.006 NA
HETATM   28  N   UNL     1      18.199  48.424  45.086  1.00  0.00    -0.158 NA
HETATM   29  C   UNL     1      17.320  48.905  46.019  1.00  0.00     0.102 A 
HETATM   30  C   UNL     1      17.758  48.568  47.294  1.00  0.00     0.079 A 
HETATM   31  C   UNL     1      16.138  49.646  45.869  1.00  0.00     0.035 A 
HETATM   32  C   UNL     1      17.064  48.918  48.457  1.00  0.00     0.033 A 
HETATM   33  C   UNL     1      15.887  49.656  48.290  1.00  0.00     0.002 A 
HETATM   34  C   UNL     1      15.431  50.017  47.020  1.00  0.00     0.002 A 
ENDBRANCH  25  26
ENDBRANCH   2  25
TORSDOF 8
ENDMDL
MODEL 6
REMARK VINA RESULT:      -8.3      1.512      1.904
REMARK  8 active torsions:
REMARK  status: ('A' for Active; 'I' for Inactive)
REMARK    1  A    between atoms: C_2  and  N_3 
REMARK    2  A    between atoms: C_2  and  C_23 
REMARK       I    between atoms: N_3  and  C_4 
REMARK    3  A    between atoms: N_3  and  C_16 
REMARK    4  A    between atoms: C_4  and  C_5 
REMARK    5  A    between atoms: C_5  and  N_6 
REMARK    6  A    between atoms: C_16  and  C_17 
REMARK       I    between atoms: C_23  and  N_24 
REMARK    7  A    between atoms: N_24  and  C_25 
REMARK    8  A    between atoms: C_28  and  O_29 
ROOT
HETATM    1  N   UNL     1      20.052  47.588  48.215  1.00  0.00    -0.333 N 
HETATM    2  C   UNL     1      21.405  47.369  47.951  1.00  0.00     0.240 C 
HETATM    3  O   UNL     1      21.767  46.934  46.853  1.00  0.00    -0.271 OA
ENDROOT
BRANCH   1   4
HETATM    4  C   UNL     1      19.067  47.205  47.169  1.00  0.00     0.176 C 
HETATM    5  C   UNL     1      18.019  46.209  47.672  1.00  0.00     0.042 C 
BRANCH   4   6
HETATM    6  C   UNL     1      18.400  48.368  46.376  1.00  0.00     0.244 C 
HETATM    7  N   UNL     1      17.127  48.706  46.810  1.00  0.00    -0.325 N 
HETATM    8  H   UNL     1      16.687  48.074  47.471  1.00  0.00     0.169 HD
HETATM    9  O   UNL     1      19.059  49.001  45.551  1.00  0.00    -0.271 OA
BRANCH   7  10
HETATM   10  C   UNL     1      16.314  49.755  46.322  1.00  0.00     0.035 A 
HETATM   11  C   UNL     1      16.026  50.919  47.038  1.00  0.00     0.032 A 
HETATM   12  C   UNL     1      15.220  51.918  46.482  1.00  0.00     0.039 A 
HETATM   13  C   UNL     1      14.698  51.781  45.198  1.00  0.00     0.068 A 
HETATM   14  C   UNL     1      14.963  50.616  44.481  1.00  0.00     0.039 A 
HETATM   15  C   UNL     1      15.764  49.610  45.042  1.00  0.00     0.032 A 
BRANCH  13  16
HETATM   16  O   UNL     1      13.935  52.831  44.769  1.00  0.00    -0.356 OA
HETATM   17  C   UNL     1      13.929  53.983  45.603  1.00  0.00     0.210 C 
ENDBRANCH  13  16
ENDBRANCH   7  10
ENDBRANCH   4   6
ENDBRANCH   1   4
BRANCH   1  18
HETATM   18  C   UNL     1      19.515  48.193  49.445  1.00  0.00     0.165 C 
BRANCH  18  19
HETATM   19  C   UNL     1      19.202  49.669  49.367  1.00  0.00    -0.040 A 
HETATM   20  C   UNL     1      18.133  50.250  50.065  1.00  0.00     0.009 A 
HETATM   21  C   UNL     1      17.881  51.621  49.976  1.00  0.00     0.001 A 
HETATM   22  C   UNL     1      18.702  52.434  49.199  1.00  0.00     0.000 A 
HETATM   23  C   UNL     1      19.783  51.880  48.522  1.00  0.00     0.001 A 
HETATM   24  C   UNL     1      20.038  50.510  48.615  1.00  0.00     0.009 A 
ENDBRANCH  18  19
ENDBRANCH   1  18
BRANCH   2  25
HETATM   25  C   UNL     1      22.468  47.682  48.986  1.00  0.00     0.250 C 
BRANCH  25  26
HETATM   26  N   UNL     1      23.454  48.650  48.561  1.00  0.00    -0.263 N 
HETATM   27  N   UNL     1      23.141  49.626  47.681  1.00  0.00     0.006 NA
HETATM   28  N   UNL     1      24.259  50.282  47.398  1.00  0.00    -0.158 NA
HETATM   29  C   UNL     1      25.273  49.738  48.140  1.00  0.00     0.102 A 
HETATM   30  C   UNL     1      24.778  48.696  48.917  1.00  0.00     0.079 A 
HETATM   31  C   UNL     1      26.637  50.057  48.203  1.00  0.00     0.035 A 
HETATM   32  C   UNL     1      25.577  47.947  49.786  1.00  0.00     0.033 A 
HETATM   33  C   UNL     1      26.936  48.279  49.838  1.00  0.00     0.002 A 
HETATM   34  C   UNL     1      27.460  49.313  49.060  1.00  0.00     0.002 A 
ENDBRANCH  25  26
ENDBRANCH   2  25
TORSDOF 8
ENDMDL
MODEL 7
REMARK VINA RESULT:      -8.3      2.978      6.997
REMARK  8 active torsions:
REMARK  status: ('A' for Active; 'I' for Inactive)
REMARK    1  A    between atoms: C_2  and  N_3 
REMARK    2  A    between atoms: C_2  and  C_23 
REMARK       I    between atoms: N_3  and  C_4 
REMARK    3  A    between atoms: N_3  and  C_16 
REMARK    4  A    between atoms: C_4  and  C_5 
REMARK    5  A    between atoms: C_5  and  N_6 
REMARK    6  A    between atoms: C_16  and  C_17 
REMARK       I    between atoms: C_23  and  N_24 
REMARK    7  A    between atoms: N_24  and  C_25 
REMARK    8  A    between atoms: C_28  and  O_29 
ROOT
HETATM    1  N   UNL     1      20.407  47.652  48.670  1.00  0.00    -0.333 N 
HETATM    2  C   UNL     1      21.471  48.199  47.951  1.00  0.00     0.240 C 
HETATM    3  O   UNL     1      21.963  47.587  46.997  1.00  0.00    -0.271 OA
ENDROOT
BRANCH   1   4
HETATM    4  C   UNL     1      19.946  46.288  48.304  1.00  0.00     0.176 C 
HETATM    5  C   UNL     1      19.142  46.259  47.002  1.00  0.00     0.042 C 
BRANCH   4   6
HETATM    6  C   UNL     1      21.016  45.156  48.327  1.00  0.00     0.244 C 
HETATM    7  N   UNL     1      22.097  45.402  49.160  1.00  0.00    -0.325 N 
HETATM    8  H   UNL     1      22.179  46.340  49.536  1.00  0.00     0.169 HD
HETATM    9  O   UNL     1      20.788  44.088  47.758  1.00  0.00    -0.271 OA
BRANCH   7  10
HETATM   10  C   UNL     1      23.180  44.532  49.426  1.00  0.00     0.035 A 
HETATM   11  C   UNL     1      24.412  44.597  48.772  1.00  0.00     0.032 A 
HETATM   12  C   UNL     1      25.441  43.707  49.099  1.00  0.00     0.039 A 
HETATM   13  C   UNL     1      25.265  42.747  50.092  1.00  0.00     0.068 A 
HETATM   14  C   UNL     1      24.033  42.660  50.738  1.00  0.00     0.039 A 
HETATM   15  C   UNL     1      22.998  43.547  50.404  1.00  0.00     0.032 A 
BRANCH  13  16
HETATM   16  O   UNL     1      26.349  41.946  50.320  1.00  0.00    -0.356 OA
HETATM   17  C   UNL     1      26.075  40.567  50.534  1.00  0.00     0.210 C 
ENDBRANCH  13  16
ENDBRANCH   7  10
ENDBRANCH   4   6
ENDBRANCH   1   4
BRANCH   1  18
HETATM   18  C   UNL     1      19.681  48.331  49.757  1.00  0.00     0.165 C 
BRANCH  18  19
HETATM   19  C   UNL     1      18.896  49.558  49.354  1.00  0.00    -0.040 A 
HETATM   20  C   UNL     1      17.951  49.539  48.318  1.00  0.00     0.009 A 
HETATM   21  C   UNL     1      17.236  50.691  47.980  1.00  0.00     0.001 A 
HETATM   22  C   UNL     1      17.446  51.875  48.682  1.00  0.00     0.000 A 
HETATM   23  C   UNL     1      18.359  51.905  49.731  1.00  0.00     0.001 A 
HETATM   24  C   UNL     1      19.069  50.752  50.072  1.00  0.00     0.009 A 
ENDBRANCH  18  19
ENDBRANCH   1  18
BRANCH   2  25
HETATM   25  C   UNL     1      22.036  49.562  48.297  1.00  0.00     0.250 C 
BRANCH  25  26
HETATM   26  N   UNL     1      23.479  49.644  48.255  1.00  0.00    -0.263 N 
HETATM   27  N   UNL     1      24.108  50.432  47.357  1.00  0.00     0.006 NA
HETATM   28  N   UNL     1      25.412  50.217  47.481  1.00  0.00    -0.158 NA
HETATM   29  C   UNL     1      25.601  49.317  48.496  1.00  0.00     0.102 A 
HETATM   30  C   UNL     1      24.372  48.946  49.029  1.00  0.00     0.079 A 
HETATM   31  C   UNL     1      26.776  48.754  49.016  1.00  0.00     0.035 A 
HETATM   32  C   UNL     1      24.241  48.039  50.085  1.00  0.00     0.033 A 
HETATM   33  C   UNL     1      25.423  47.489  50.594  1.00  0.00     0.002 A 
HETATM   34  C   UNL     1      26.669  47.836  50.068  1.00  0.00     0.002 A 
ENDBRANCH  25  26
ENDBRANCH   2  25
TORSDOF 8
ENDMDL
MODEL 8
REMARK VINA RESULT:      -8.2      8.513     10.918
REMARK  8 active torsions:
REMARK  status: ('A' for Active; 'I' for Inactive)
REMARK    1  A    between atoms: C_2  and  N_3 
REMARK    2  A    between atoms: C_2  and  C_23 
REMARK       I    between atoms: N_3  and  C_4 
REMARK    3  A    between atoms: N_3  and  C_16 
REMARK    4  A    between atoms: C_4  and  C_5 
REMARK    5  A    between atoms: C_5  and  N_6 
REMARK    6  A    between atoms: C_16  and  C_17 
REMARK       I    between atoms: C_23  and  N_24 
REMARK    7  A    between atoms: N_24  and  C_25 
REMARK    8  A    between atoms: C_28  and  O_29 
ROOT
HETATM    1  N   UNL     1      27.016  49.626  39.667  1.00  0.00    -0.333 N 
HETATM    2  C   UNL     1      27.290  50.765  38.908  1.00  0.00     0.240 C 
HETATM    3  O   UNL     1      26.700  50.963  37.841  1.00  0.00    -0.271 OA
ENDROOT
BRANCH   1   4
HETATM    4  C   UNL     1      26.061  48.631  39.113  1.00  0.00     0.176 C 
HETATM    5  C   UNL     1      26.520  47.185  39.318  1.00  0.00     0.042 C 
BRANCH   4   6
HETATM    6  C   UNL     1      24.563  48.805  39.502  1.00  0.00     0.244 C 
HETATM    7  N   UNL     1      23.963  49.946  38.991  1.00  0.00    -0.325 N 
HETATM    8  H   UNL     1      24.577  50.633  38.567  1.00  0.00     0.169 HD
HETATM    9  O   UNL     1      23.973  47.892  40.080  1.00  0.00    -0.271 OA
BRANCH   7  10
HETATM   10  C   UNL     1      22.609  50.327  39.128  1.00  0.00     0.035 A 
HETATM   11  C   UNL     1      21.589  49.913  38.268  1.00  0.00     0.032 A 
HETATM   12  C   UNL     1      20.268  50.326  38.476  1.00  0.00     0.039 A 
HETATM   13  C   UNL     1      19.939  51.146  39.552  1.00  0.00     0.068 A 
HETATM   14  C   UNL     1      20.950  51.581  40.406  1.00  0.00     0.039 A 
HETATM   15  C   UNL     1      22.276  51.174  40.193  1.00  0.00     0.032 A 
BRANCH  13  16
HETATM   16  O   UNL     1      18.614  51.469  39.647  1.00  0.00    -0.356 OA
HETATM   17  C   UNL     1      18.235  52.234  40.785  1.00  0.00     0.210 C 
ENDBRANCH  13  16
ENDBRANCH   7  10
ENDBRANCH   4   6
ENDBRANCH   1   4
BRANCH   1  18
HETATM   18  C   UNL     1      27.582  49.337  40.995  1.00  0.00     0.165 C 
BRANCH  18  19
HETATM   19  C   UNL     1      29.033  48.914  41.011  1.00  0.00    -0.040 A 
HETATM   20  C   UNL     1      29.678  48.398  39.878  1.00  0.00     0.009 A 
HETATM   21  C   UNL     1      31.024  48.026  39.928  1.00  0.00     0.001 A 
HETATM   22  C   UNL     1      31.749  48.178  41.107  1.00  0.00     0.000 A 
HETATM   23  C   UNL     1      31.132  48.713  42.233  1.00  0.00     0.001 A 
HETATM   24  C   UNL     1      29.788  49.090  42.182  1.00  0.00     0.009 A 
ENDBRANCH  18  19
ENDBRANCH   1  18
BRANCH   2  25
HETATM   25  C   UNL     1      28.292  51.801  39.378  1.00  0.00     0.250 C 
BRANCH  25  26
HETATM   26  N   UNL     1      29.607  51.674  38.791  1.00  0.00    -0.263 N 
HETATM   27  N   UNL     1      29.763  51.380  37.483  1.00  0.00     0.006 NA
HETATM   28  N   UNL     1      31.062  51.219  37.261  1.00  0.00    -0.158 NA
HETATM   29  C   UNL     1      31.727  51.457  38.434  1.00  0.00     0.102 A 
HETATM   30  C   UNL     1      30.815  51.774  39.434  1.00  0.00     0.079 A 
HETATM   31  C   UNL     1      33.095  51.411  38.738  1.00  0.00     0.035 A 
HETATM   32  C   UNL     1      31.196  52.073  40.747  1.00  0.00     0.033 A 
HETATM   33  C   UNL     1      32.565  52.024  41.032  1.00  0.00     0.002 A 
HETATM   34  C   UNL     1      33.500  51.696  40.049  1.00  0.00     0.002 A 
ENDBRANCH  25  26
ENDBRANCH   2  25
TORSDOF 8
ENDMDL
MODEL 9
REMARK VINA RESULT:      -8.1      2.873      8.782
REMARK  8 active torsions:
REMARK  status: ('A' for Active; 'I' for Inactive)
REMARK    1  A    between atoms: C_2  and  N_3 
REMARK    2  A    between atoms: C_2  and  C_23 
REMARK       I    between atoms: N_3  and  C_4 
REMARK    3  A    between atoms: N_3  and  C_16 
REMARK    4  A    between atoms: C_4  and  C_5 
REMARK    5  A    between atoms: C_5  and  N_6 
REMARK    6  A    between atoms: C_16  and  C_17 
REMARK       I    between atoms: C_23  and  N_24 
REMARK    7  A    between atoms: N_24  and  C_25 
REMARK    8  A    between atoms: C_28  and  O_29 
ROOT
HETATM    1  N   UNL     1      21.712  48.983  48.977  1.00  0.00    -0.333 N 
HETATM    2  C   UNL     1      20.945  47.873  48.618  1.00  0.00     0.240 C 
HETATM    3  O   UNL     1      21.405  47.012  47.861  1.00  0.00    -0.271 OA
ENDROOT
BRANCH   1   4
HETATM    4  C   UNL     1      23.055  49.132  48.359  1.00  0.00     0.176 C 
HETATM    5  C   UNL     1      23.344  50.562  47.896  1.00  0.00     0.042 C 
BRANCH   4   6
HETATM    6  C   UNL     1      24.261  48.545  49.152  1.00  0.00     0.244 C 
HETATM    7  N   UNL     1      24.109  47.221  49.533  1.00  0.00    -0.325 N 
HETATM    8  H   UNL     1      23.187  46.815  49.418  1.00  0.00     0.169 HD
HETATM    9  O   UNL     1      25.298  49.200  49.259  1.00  0.00    -0.271 OA
BRANCH   7  10
HETATM   10  C   UNL     1      25.059  46.416  50.204  1.00  0.00     0.035 A 
HETATM   11  C   UNL     1      25.912  45.514  49.563  1.00  0.00     0.032 A 
HETATM   12  C   UNL     1      26.834  44.760  50.296  1.00  0.00     0.039 A 
HETATM   13  C   UNL     1      26.933  44.901  51.678  1.00  0.00     0.068 A 
HETATM   14  C   UNL     1      26.075  45.783  52.332  1.00  0.00     0.039 A 
HETATM   15  C   UNL     1      25.143  46.534  51.597  1.00  0.00     0.032 A 
BRANCH  13  16
HETATM   16  O   UNL     1      27.878  44.113  52.274  1.00  0.00    -0.356 OA
HETATM   17  C   UNL     1      28.089  44.328  53.663  1.00  0.00     0.210 C 
ENDBRANCH  13  16
ENDBRANCH   7  10
ENDBRANCH   4   6
ENDBRANCH   1   4
BRANCH   1  18
HETATM   18  C   UNL     1      21.306  50.017  49.944  1.00  0.00     0.165 C 
BRANCH  18  19
HETATM   19  C   UNL     1      20.092  50.832  49.560  1.00  0.00    -0.040 A 
HETATM   20  C   UNL     1      18.870  50.725  50.238  1.00  0.00     0.009 A 
HETATM   21  C   UNL     1      17.772  51.503  49.862  1.00  0.00     0.001 A 
HETATM   22  C   UNL     1      17.884  52.409  48.810  1.00  0.00     0.000 A 
HETATM   23  C   UNL     1      19.097  52.548  48.144  1.00  0.00     0.001 A 
HETATM   24  C   UNL     1      20.196  51.774  48.524  1.00  0.00     0.009 A 
ENDBRANCH  18  19
ENDBRANCH   1  18
BRANCH   2  25
HETATM   25  C   UNL     1      19.544  47.677  49.162  1.00  0.00     0.250 C 
BRANCH  25  26
HETATM   26  N   UNL     1      18.587  47.188  48.195  1.00  0.00    -0.263 N 
HETATM   27  N   UNL     1      18.223  45.889  48.167  1.00  0.00     0.006 NA
HETATM   28  N   UNL     1      17.429  45.718  47.117  1.00  0.00    -0.158 NA
HETATM   29  C   UNL     1      17.263  46.932  46.506  1.00  0.00     0.102 A 
HETATM   30  C   UNL     1      17.981  47.904  47.193  1.00  0.00     0.079 A 
HETATM   31  C   UNL     1      16.535  47.292  45.363  1.00  0.00     0.035 A 
HETATM   32  C   UNL     1      18.003  49.250  46.809  1.00  0.00     0.033 A 
HETATM   33  C   UNL     1      17.270  49.592  45.668  1.00  0.00     0.002 A 
HETATM   34  C   UNL     1      16.550  48.632  44.953  1.00  0.00     0.002 A 
ENDBRANCH  25  26
ENDBRANCH   2  25
TORSDOF 8
ENDMDL
MODEL 10
REMARK VINA RESULT:      -7.9     13.001     17.950
REMARK  8 active torsions:
REMARK  status: ('A' for Active; 'I' for Inactive)
REMARK    1  A    between atoms: C_2  and  N_3 
REMARK    2  A    between atoms: C_2  and  C_23 
REMARK       I    between atoms: N_3  and  C_4 
REMARK    3  A    between atoms: N_3  and  C_16 
REMARK    4  A    between atoms: C_4  and  C_5 
REMARK    5  A    between atoms: C_5  and  N_6 
REMARK    6  A    between atoms: C_16  and  C_17 
REMARK       I    between atoms: C_23  and  N_24 
REMARK    7  A    between atoms: N_24  and  C_25 
REMARK    8  A    between atoms: C_28  and  O_29 
ROOT
HETATM    1  N   UNL     1      35.714  51.511  41.117  1.00  0.00    -0.333 N 
HETATM    2  C   UNL     1      35.250  52.436  40.180  1.00  0.00     0.240 C 
HETATM    3  O   UNL     1      35.722  53.577  40.139  1.00  0.00    -0.271 OA
ENDROOT
BRANCH   1   4
HETATM    4  C   UNL     1      36.725  51.968  42.107  1.00  0.00     0.176 C 
HETATM    5  C   UNL     1      36.114  52.316  43.466  1.00  0.00     0.042 C 
BRANCH   4   6
HETATM    6  C   UNL     1      37.994  51.080  42.273  1.00  0.00     0.244 C 
HETATM    7  N   UNL     1      38.080  50.420  43.489  1.00  0.00    -0.325 N 
HETATM    8  H   UNL     1      37.419  50.698  44.207  1.00  0.00     0.169 HD
HETATM    9  O   UNL     1      38.739  50.894  41.310  1.00  0.00    -0.271 OA
BRANCH   7  10
HETATM   10  C   UNL     1      39.081  49.505  43.890  1.00  0.00     0.035 A 
HETATM   11  C   UNL     1      40.446  49.693  43.666  1.00  0.00     0.032 A 
HETATM   12  C   UNL     1      41.379  48.747  44.104  1.00  0.00     0.039 A 
HETATM   13  C   UNL     1      40.968  47.603  44.785  1.00  0.00     0.068 A 
HETATM   14  C   UNL     1      39.607  47.395  44.998  1.00  0.00     0.039 A 
HETATM   15  C   UNL     1      38.671  48.340  44.551  1.00  0.00     0.032 A 
BRANCH  13  16
HETATM   16  O   UNL     1      41.977  46.763  45.166  1.00  0.00    -0.356 OA
HETATM   17  C   UNL     1      41.653  45.380  45.221  1.00  0.00     0.210 C 
ENDBRANCH  13  16
ENDBRANCH   7  10
ENDBRANCH   4   6
ENDBRANCH   1   4
BRANCH   1  18
HETATM   18  C   UNL     1      35.298  50.101  41.194  1.00  0.00     0.165 C 
BRANCH  18  19
HETATM   19  C   UNL     1      33.932  49.851  41.791  1.00  0.00    -0.040 A 
HETATM   20  C   UNL     1      33.330  50.744  42.689  1.00  0.00     0.009 A 
HETATM   21  C   UNL     1      32.061  50.485  43.213  1.00  0.00     0.001 A 
HETATM   22  C   UNL     1      31.369  49.336  42.835  1.00  0.00     0.000 A 
HETATM   23  C   UNL     1      31.940  48.454  41.924  1.00  0.00     0.001 A 
HETATM   24  C   UNL     1      33.206  48.715  41.397  1.00  0.00     0.009 A 
ENDBRANCH  18  19
ENDBRANCH   1  18
BRANCH   2  25
HETATM   25  C   UNL     1      34.181  52.064  39.172  1.00  0.00     0.250 C 
BRANCH  25  26
HETATM   26  N   UNL     1      32.826  52.308  39.615  1.00  0.00    -0.263 N 
HETATM   27  N   UNL     1      32.515  53.404  40.340  1.00  0.00     0.006 NA
HETATM   28  N   UNL     1      31.240  53.301  40.692  1.00  0.00    -0.158 NA
HETATM   29  C   UNL     1      30.738  52.149  40.147  1.00  0.00     0.102 A 
HETATM   30  C   UNL     1      31.734  51.499  39.428  1.00  0.00     0.079 A 
HETATM   31  C   UNL     1      29.459  51.578  40.225  1.00  0.00     0.035 A 
HETATM   32  C   UNL     1      31.523  50.293  38.751  1.00  0.00     0.033 A 
HETATM   33  C   UNL     1      30.241  49.737  38.838  1.00  0.00     0.002 A 
HETATM   34  C   UNL     1      29.226  50.365  39.563  1.00  0.00     0.002 A 
ENDBRANCH  25  26
ENDBRANCH   2  25
TORSDOF 8
ENDMDL
