MODEL 1
REMARK VINA RESULT:     -10.3      0.000      0.000
REMARK  4 active torsions:
REMARK  status: ('A' for Active; 'I' for Inactive)
REMARK    1  A    between atoms: C_7  and  C_8 
REMARK    2  A    between atoms: N_9  and  N_10 
REMARK       I    between atoms: N_10  and  C_11 
REMARK    3  A    between atoms: C_11  and  C_12 
REMARK    4  A    between atoms: C_16  and  C_17 
ROOT
HETATM    1  N   UNL     1      26.053  46.227  51.185  1.00  0.00    -0.242 N 
HETATM    2  C   UNL     1      26.250  46.889  49.983  1.00  0.00     0.289 C 
HETATM    3  O   UNL     1      27.219  46.717  49.248  1.00  0.00    -0.264 OA
HETATM    4  H   UNL     1      25.234  46.412  51.747  1.00  0.00     0.192 HD
ENDROOT
BRANCH   2   5
HETATM    5  C   UNL     1      25.212  47.827  49.632  1.00  0.00     0.121 A 
HETATM    6  N   UNL     1      25.517  49.051  49.108  1.00  0.00    -0.272 N 
HETATM    7  H   UNL     1      26.447  49.413  48.918  1.00  0.00     0.189 HD
HETATM    8  N   UNL     1      24.450  49.813  48.830  1.00  0.00    -0.174 NA
HETATM    9  C   UNL     1      23.392  49.067  49.185  1.00  0.00     0.089 A 
HETATM   10  C   UNL     1      23.832  47.809  49.694  1.00  0.00     0.071 A 
BRANCH   9  11
HETATM   11  C   UNL     1      22.018  49.563  49.031  1.00  0.00    -0.003 A 
HETATM   12  C   UNL     1      20.917  48.701  49.161  1.00  0.00     0.053 A 
HETATM   13  C   UNL     1      19.649  49.229  49.005  1.00  0.00     0.106 A 
HETATM   14  C   UNL     1      19.441  50.559  48.729  1.00  0.00     0.105 A 
HETATM   15  O   UNL     1      18.485  48.530  49.099  1.00  0.00    -0.323 OA
HETATM   16  O   UNL     1      18.121  50.866  48.615  1.00  0.00    -0.323 OA
HETATM   17  C   UNL     1      20.488  51.439  48.595  1.00  0.00     0.040 A 
HETATM   18  C   UNL     1      17.521  49.576  48.851  1.00  0.00     0.352 A 
HETATM   19  C   UNL     1      21.784  50.932  48.747  1.00  0.00     0.017 A 
ENDBRANCH   9  11
ENDBRANCH   2   5
BRANCH   1  20
HETATM   20  N   UNL     1      26.972  45.313  51.619  1.00  0.00    -0.183 NA
HETATM   21  C   UNL     1      26.972  45.061  52.888  1.00  0.00     0.153 C 
BRANCH  21  22
HETATM   22  C   UNL     1      27.910  44.105  53.447  1.00  0.00     0.018 A 
HETATM   23  C   UNL     1      28.052  42.768  53.096  1.00  0.00     0.018 A 
HETATM   24  C   UNL     1      27.333  41.935  52.093  1.00  0.00     0.069 C 
HETATM   25  N   UNL     1      29.052  42.236  53.871  1.00  0.00    -0.358 N 
HETATM   26  H   UNL     1      29.370  41.278  53.829  1.00  0.00     0.166 HD
HETATM   27  C   UNL     1      29.568  43.186  54.719  1.00  0.00     0.043 A 
HETATM   28  C   UNL     1      28.872  44.372  54.478  1.00  0.00     0.004 A 
HETATM   29  C   UNL     1      30.588  43.082  55.671  1.00  0.00     0.030 A 
HETATM   30  C   UNL     1      29.221  45.512  55.233  1.00  0.00     0.014 A 
HETATM   31  C   UNL     1      30.239  45.426  56.190  1.00  0.00     0.001 A 
HETATM   32  C   UNL     1      30.912  44.227  56.403  1.00  0.00     0.002 A 
ENDBRANCH  21  22
ENDBRANCH   1  20
TORSDOF 4
ENDMDL
MODEL 2
REMARK VINA RESULT:     -10.1      1.608      2.062
REMARK  4 active torsions:
REMARK  status: ('A' for Active; 'I' for Inactive)
REMARK    1  A    between atoms: C_7  and  C_8 
REMARK    2  A    between atoms: N_9  and  N_10 
REMARK       I    between atoms: N_10  and  C_11 
REMARK    3  A    between atoms: C_11  and  C_12 
REMARK    4  A    between atoms: C_16  and  C_17 
ROOT
HETATM    1  N   UNL     1      26.264  45.170  52.292  1.00  0.00    -0.242 N 
HETATM    2  C   UNL     1      26.359  45.299  50.915  1.00  0.00     0.289 C 
HETATM    3  O   UNL     1      27.267  44.826  50.236  1.00  0.00    -0.264 OA
HETATM    4  H   UNL     1      25.491  45.583  52.795  1.00  0.00     0.192 HD
ENDROOT
BRANCH   2   5
HETATM    5  C   UNL     1      25.289  46.048  50.302  1.00  0.00     0.121 A 
HETATM    6  N   UNL     1      24.418  45.449  49.437  1.00  0.00    -0.272 N 
HETATM    7  H   UNL     1      24.425  44.475  49.148  1.00  0.00     0.189 HD
HETATM    8  N   UNL     1      23.477  46.269  48.948  1.00  0.00    -0.174 NA
HETATM    9  C   UNL     1      23.732  47.461  49.509  1.00  0.00     0.089 A 
HETATM   10  C   UNL     1      24.867  47.361  50.368  1.00  0.00     0.071 A 
BRANCH   9  11
HETATM   11  C   UNL     1      22.905  48.639  49.217  1.00  0.00    -0.003 A 
HETATM   12  C   UNL     1      21.504  48.549  49.172  1.00  0.00     0.053 A 
HETATM   13  C   UNL     1      20.782  49.694  48.893  1.00  0.00     0.106 A 
HETATM   14  C   UNL     1      21.393  50.903  48.660  1.00  0.00     0.105 A 
HETATM   15  O   UNL     1      19.426  49.773  48.813  1.00  0.00    -0.323 OA
HETATM   16  O   UNL     1      20.499  51.896  48.404  1.00  0.00    -0.323 OA
HETATM   17  C   UNL     1      22.760  51.038  48.694  1.00  0.00     0.040 A 
HETATM   18  C   UNL     1      19.254  51.173  48.504  1.00  0.00     0.352 A 
HETATM   19  C   UNL     1      23.518  49.894  48.974  1.00  0.00     0.017 A 
ENDBRANCH   9  11
ENDBRANCH   2   5
BRANCH   1  20
HETATM   20  N   UNL     1      27.222  44.480  52.980  1.00  0.00    -0.183 NA
HETATM   21  C   UNL     1      28.024  45.187  53.707  1.00  0.00     0.153 C 
BRANCH  21  22
HETATM   22  C   UNL     1      29.075  44.547  54.477  1.00  0.00     0.018 A 
HETATM   23  C   UNL     1      29.838  43.448  54.100  1.00  0.00     0.018 A 
HETATM   24  C   UNL     1      29.825  42.623  52.860  1.00  0.00     0.069 C 
HETATM   25  N   UNL     1      30.711  43.174  55.122  1.00  0.00    -0.358 N 
HETATM   26  H   UNL     1      31.389  42.424  55.120  1.00  0.00     0.166 HD
HETATM   27  C   UNL     1      30.542  44.062  56.157  1.00  0.00     0.043 A 
HETATM   28  C   UNL     1      29.522  44.937  55.783  1.00  0.00     0.004 A 
HETATM   29  C   UNL     1      31.211  44.151  57.383  1.00  0.00     0.030 A 
HETATM   30  C   UNL     1      29.155  45.956  56.689  1.00  0.00     0.014 A 
HETATM   31  C   UNL     1      29.814  46.060  57.920  1.00  0.00     0.001 A 
HETATM   32  C   UNL     1      30.828  45.169  58.259  1.00  0.00     0.002 A 
ENDBRANCH  21  22
ENDBRANCH   1  20
TORSDOF 4
ENDMDL
MODEL 3
REMARK VINA RESULT:      -9.8      2.868     11.025
REMARK  4 active torsions:
REMARK  status: ('A' for Active; 'I' for Inactive)
REMARK    1  A    between atoms: C_7  and  C_8 
REMARK    2  A    between atoms: N_9  and  N_10 
REMARK       I    between atoms: N_10  and  C_11 
REMARK    3  A    between atoms: C_11  and  C_12 
REMARK    4  A    between atoms: C_16  and  C_17 
ROOT
HETATM    1  N   UNL     1      23.079  47.095  49.582  1.00  0.00    -0.242 N 
HETATM    2  C   UNL     1      24.283  47.630  50.012  1.00  0.00     0.289 C 
HETATM    3  O   UNL     1      24.757  48.686  49.602  1.00  0.00    -0.264 OA
HETATM    4  H   UNL     1      22.742  46.219  49.958  1.00  0.00     0.192 HD
ENDROOT
BRANCH   2   5
HETATM    5  C   UNL     1      24.973  46.847  51.008  1.00  0.00     0.121 A 
HETATM    6  N   UNL     1      24.498  45.626  51.395  1.00  0.00    -0.272 N 
HETATM    7  H   UNL     1      23.662  45.164  51.048  1.00  0.00     0.189 HD
HETATM    8  N   UNL     1      25.244  45.014  52.326  1.00  0.00    -0.174 NA
HETATM    9  C   UNL     1      26.255  45.862  52.569  1.00  0.00     0.089 A 
HETATM   10  C   UNL     1      26.119  47.028  51.757  1.00  0.00     0.071 A 
BRANCH   9  11
HETATM   11  C   UNL     1      27.303  45.545  53.548  1.00  0.00    -0.003 A 
HETATM   12  C   UNL     1      28.027  44.344  53.473  1.00  0.00     0.053 A 
HETATM   13  C   UNL     1      29.001  44.105  54.424  1.00  0.00     0.106 A 
HETATM   14  C   UNL     1      29.275  45.001  55.430  1.00  0.00     0.105 A 
HETATM   15  O   UNL     1      29.785  42.995  54.490  1.00  0.00    -0.323 OA
HETATM   16  O   UNL     1      30.265  44.569  56.255  1.00  0.00    -0.323 OA
HETATM   17  C   UNL     1      28.592  46.189  55.542  1.00  0.00     0.040 A 
HETATM   18  C   UNL     1      30.585  43.297  55.653  1.00  0.00     0.352 A 
HETATM   19  C   UNL     1      27.599  46.458  54.592  1.00  0.00     0.017 A 
ENDBRANCH   9  11
ENDBRANCH   2   5
BRANCH   1  20
HETATM   20  N   UNL     1      22.338  47.751  48.641  1.00  0.00    -0.183 NA
HETATM   21  C   UNL     1      21.081  47.904  48.908  1.00  0.00     0.153 C 
BRANCH  21  22
HETATM   22  C   UNL     1      20.209  48.589  47.971  1.00  0.00     0.018 A 
HETATM   23  C   UNL     1      19.688  48.080  46.788  1.00  0.00     0.018 A 
HETATM   24  C   UNL     1      19.844  46.749  46.138  1.00  0.00     0.069 C 
HETATM   25  N   UNL     1      18.918  49.060  46.214  1.00  0.00    -0.358 N 
HETATM   26  H   UNL     1      18.415  48.967  45.343  1.00  0.00     0.166 HD
HETATM   27  C   UNL     1      18.920  50.195  46.988  1.00  0.00     0.043 A 
HETATM   28  C   UNL     1      19.722  49.933  48.099  1.00  0.00     0.004 A 
HETATM   29  C   UNL     1      18.278  51.422  46.786  1.00  0.00     0.030 A 
HETATM   30  C   UNL     1      19.887  50.956  49.057  1.00  0.00     0.014 A 
HETATM   31  C   UNL     1      19.252  52.190  48.871  1.00  0.00     0.001 A 
HETATM   32  C   UNL     1      18.458  52.417  47.751  1.00  0.00     0.002 A 
ENDBRANCH  21  22
ENDBRANCH   1  20
TORSDOF 4
ENDMDL
MODEL 4
REMARK VINA RESULT:      -9.8      1.748      2.712
REMARK  4 active torsions:
REMARK  status: ('A' for Active; 'I' for Inactive)
REMARK    1  A    between atoms: C_7  and  C_8 
REMARK    2  A    between atoms: N_9  and  N_10 
REMARK       I    between atoms: N_10  and  C_11 
REMARK    3  A    between atoms: C_11  and  C_12 
REMARK    4  A    between atoms: C_16  and  C_17 
ROOT
HETATM    1  N   UNL     1      24.964  47.027  51.318  1.00  0.00    -0.242 N 
HETATM    2  C   UNL     1      24.990  47.668  50.090  1.00  0.00     0.289 C 
HETATM    3  O   UNL     1      26.016  47.922  49.463  1.00  0.00    -0.264 OA
HETATM    4  H   UNL     1      24.087  46.846  51.786  1.00  0.00     0.192 HD
ENDROOT
BRANCH   2   5
HETATM    5  C   UNL     1      23.696  48.032  49.569  1.00  0.00     0.121 A 
HETATM    6  N   UNL     1      22.808  47.078  49.160  1.00  0.00    -0.272 N 
HETATM    7  H   UNL     1      22.951  46.072  49.175  1.00  0.00     0.189 HD
HETATM    8  N   UNL     1      21.647  47.566  48.701  1.00  0.00    -0.174 NA
HETATM    9  C   UNL     1      21.766  48.898  48.809  1.00  0.00     0.089 A 
HETATM   10  C   UNL     1      23.043  49.230  49.352  1.00  0.00     0.071 A 
BRANCH   9  11
HETATM   11  C   UNL     1      20.682  49.801  48.400  1.00  0.00    -0.003 A 
HETATM   12  C   UNL     1      19.602  49.337  47.631  1.00  0.00     0.053 A 
HETATM   13  C   UNL     1      18.614  50.235  47.278  1.00  0.00     0.106 A 
HETATM   14  C   UNL     1      18.660  51.556  47.655  1.00  0.00     0.105 A 
HETATM   15  O   UNL     1      17.509  49.945  46.539  1.00  0.00    -0.323 OA
HETATM   16  O   UNL     1      17.591  52.264  47.203  1.00  0.00    -0.323 OA
HETATM   17  C   UNL     1      19.696  52.055  48.409  1.00  0.00     0.040 A 
HETATM   18  C   UNL     1      16.864  51.237  46.497  1.00  0.00     0.352 A 
HETATM   19  C   UNL     1      20.713  51.166  48.781  1.00  0.00     0.017 A 
ENDBRANCH   9  11
ENDBRANCH   2   5
BRANCH   1  20
HETATM   20  N   UNL     1      26.132  46.634  51.908  1.00  0.00    -0.183 NA
HETATM   21  C   UNL     1      26.022  46.020  53.041  1.00  0.00     0.153 C 
BRANCH  21  22
HETATM   22  C   UNL     1      27.205  45.562  53.747  1.00  0.00     0.018 A 
HETATM   23  C   UNL     1      27.781  46.136  54.874  1.00  0.00     0.018 A 
HETATM   24  C   UNL     1      27.396  47.332  55.672  1.00  0.00     0.069 C 
HETATM   25  N   UNL     1      28.880  45.386  55.209  1.00  0.00    -0.358 N 
HETATM   26  H   UNL     1      29.493  45.573  55.991  1.00  0.00     0.166 HD
HETATM   27  C   UNL     1      29.039  44.339  54.335  1.00  0.00     0.043 A 
HETATM   28  C   UNL     1      28.003  44.420  53.404  1.00  0.00     0.004 A 
HETATM   29  C   UNL     1      30.015  43.336  54.302  1.00  0.00     0.030 A 
HETATM   30  C   UNL     1      27.945  43.444  52.387  1.00  0.00     0.014 A 
HETATM   31  C   UNL     1      28.913  42.433  52.339  1.00  0.00     0.001 A 
HETATM   32  C   UNL     1      29.932  42.382  53.285  1.00  0.00     0.002 A 
ENDBRANCH  21  22
ENDBRANCH   1  20
TORSDOF 4
ENDMDL
MODEL 5
REMARK VINA RESULT:      -9.7      6.706      9.112
REMARK  4 active torsions:
REMARK  status: ('A' for Active; 'I' for Inactive)
REMARK    1  A    between atoms: C_7  and  C_8 
REMARK    2  A    between atoms: N_9  and  N_10 
REMARK       I    between atoms: N_10  and  C_11 
REMARK    3  A    between atoms: C_11  and  C_12 
REMARK    4  A    between atoms: C_16  and  C_17 
ROOT
HETATM    1  N   UNL     1      27.933  42.492  52.232  1.00  0.00    -0.242 N 
HETATM    2  C   UNL     1      28.411  41.191  52.256  1.00  0.00     0.289 C 
HETATM    3  O   UNL     1      28.806  40.618  53.268  1.00  0.00    -0.264 OA
HETATM    4  H   UNL     1      27.622  42.910  51.365  1.00  0.00     0.192 HD
ENDROOT
BRANCH   2   5
HETATM    5  C   UNL     1      28.418  40.525  50.977  1.00  0.00     0.121 A 
HETATM    6  N   UNL     1      28.895  39.251  50.850  1.00  0.00    -0.272 N 
HETATM    7  H   UNL     1      29.272  38.669  51.593  1.00  0.00     0.189 HD
HETATM    8  N   UNL     1      28.837  38.762  49.604  1.00  0.00    -0.174 NA
HETATM    9  C   UNL     1      28.301  39.750  48.871  1.00  0.00     0.089 A 
HETATM   10  C   UNL     1      28.024  40.877  49.702  1.00  0.00     0.071 A 
BRANCH   9  11
HETATM   11  C   UNL     1      28.072  39.597  47.428  1.00  0.00    -0.003 A 
HETATM   12  C   UNL     1      27.815  40.711  46.612  1.00  0.00     0.053 A 
HETATM   13  C   UNL     1      27.607  40.502  45.263  1.00  0.00     0.106 A 
HETATM   14  C   UNL     1      27.645  39.247  44.704  1.00  0.00     0.105 A 
HETATM   15  O   UNL     1      27.347  41.471  44.343  1.00  0.00    -0.323 OA
HETATM   16  O   UNL     1      27.415  39.266  43.365  1.00  0.00    -0.323 OA
HETATM   17  C   UNL     1      27.895  38.128  45.464  1.00  0.00     0.040 A 
HETATM   18  C   UNL     1      27.227  40.679  43.141  1.00  0.00     0.352 A 
HETATM   19  C   UNL     1      28.108  38.310  46.835  1.00  0.00     0.017 A 
ENDBRANCH   9  11
ENDBRANCH   2   5
BRANCH   1  20
HETATM   20  N   UNL     1      27.879  43.222  53.386  1.00  0.00    -0.183 NA
HETATM   21  C   UNL     1      28.814  44.101  53.550  1.00  0.00     0.153 C 
BRANCH  21  22
HETATM   22  C   UNL     1      28.844  44.927  54.743  1.00  0.00     0.018 A 
HETATM   23  C   UNL     1      28.037  46.023  55.023  1.00  0.00     0.018 A 
HETATM   24  C   UNL     1      26.948  46.666  54.238  1.00  0.00     0.069 C 
HETATM   25  N   UNL     1      28.402  46.507  56.255  1.00  0.00    -0.358 N 
HETATM   26  H   UNL     1      27.980  47.304  56.712  1.00  0.00     0.166 HD
HETATM   27  C   UNL     1      29.422  45.759  56.788  1.00  0.00     0.043 A 
HETATM   28  C   UNL     1      29.724  44.758  55.864  1.00  0.00     0.004 A 
HETATM   29  C   UNL     1      30.093  45.895  58.009  1.00  0.00     0.030 A 
HETATM   30  C   UNL     1      30.753  43.846  56.183  1.00  0.00     0.014 A 
HETATM   31  C   UNL     1      31.435  43.967  57.400  1.00  0.00     0.001 A 
HETATM   32  C   UNL     1      31.107  44.978  58.299  1.00  0.00     0.002 A 
ENDBRANCH  21  22
ENDBRANCH   1  20
TORSDOF 4
ENDMDL
MODEL 6
REMARK VINA RESULT:      -9.5      1.843      2.686
REMARK  4 active torsions:
REMARK  status: ('A' for Active; 'I' for Inactive)
REMARK    1  A    between atoms: C_7  and  C_8 
REMARK    2  A    between atoms: N_9  and  N_10 
REMARK       I    between atoms: N_10  and  C_11 
REMARK    3  A    between atoms: C_11  and  C_12 
REMARK    4  A    between atoms: C_16  and  C_17 
ROOT
HETATM    1  N   UNL     1      23.923  46.939  50.027  1.00  0.00    -0.242 N 
HETATM    2  C   UNL     1      24.404  48.133  49.511  1.00  0.00     0.289 C 
HETATM    3  O   UNL     1      25.592  48.374  49.317  1.00  0.00    -0.264 OA
HETATM    4  H   UNL     1      22.932  46.800  50.165  1.00  0.00     0.192 HD
ENDROOT
BRANCH   2   5
HETATM    5  C   UNL     1      23.389  49.111  49.203  1.00  0.00     0.121 A 
HETATM    6  N   UNL     1      23.725  50.393  48.874  1.00  0.00    -0.272 N 
HETATM    7  H   UNL     1      24.665  50.776  48.812  1.00  0.00     0.189 HD
HETATM    8  N   UNL     1      22.678  51.187  48.612  1.00  0.00    -0.174 NA
HETATM    9  C   UNL     1      21.601  50.404  48.776  1.00  0.00     0.089 A 
HETATM   10  C   UNL     1      22.010  49.088  49.148  1.00  0.00     0.071 A 
BRANCH   9  11
HETATM   11  C   UNL     1      20.240  50.918  48.576  1.00  0.00    -0.003 A 
HETATM   12  C   UNL     1      19.510  51.469  49.642  1.00  0.00     0.053 A 
HETATM   13  C   UNL     1      18.234  51.936  49.390  1.00  0.00     0.106 A 
HETATM   14  C   UNL     1      17.668  51.876  48.139  1.00  0.00     0.105 A 
HETATM   15  O   UNL     1      17.401  52.495  50.310  1.00  0.00    -0.323 OA
HETATM   16  O   UNL     1      16.409  52.388  48.112  1.00  0.00    -0.323 OA
HETATM   17  C   UNL     1      18.346  51.346  47.067  1.00  0.00     0.040 A 
HETATM   18  C   UNL     1      16.246  52.780  49.491  1.00  0.00     0.352 A 
HETATM   19  C   UNL     1      19.641  50.864  47.293  1.00  0.00     0.017 A 
ENDBRANCH   9  11
ENDBRANCH   2   5
BRANCH   1  20
HETATM   20  N   UNL     1      24.793  45.938  50.355  1.00  0.00    -0.183 NA
HETATM   21  C   UNL     1      24.779  45.550  51.589  1.00  0.00     0.153 C 
BRANCH  21  22
HETATM   22  C   UNL     1      25.667  44.492  52.036  1.00  0.00     0.018 A 
HETATM   23  C   UNL     1      25.680  43.172  51.602  1.00  0.00     0.018 A 
HETATM   24  C   UNL     1      24.842  42.460  50.599  1.00  0.00     0.069 C 
HETATM   25  N   UNL     1      26.675  42.517  52.285  1.00  0.00    -0.358 N 
HETATM   26  H   UNL     1      26.911  41.542  52.169  1.00  0.00     0.166 HD
HETATM   27  C   UNL     1      27.312  43.371  53.152  1.00  0.00     0.043 A 
HETATM   28  C   UNL     1      26.703  44.619  53.021  1.00  0.00     0.004 A 
HETATM   29  C   UNL     1      28.371  43.130  54.034  1.00  0.00     0.030 A 
HETATM   30  C   UNL     1      27.183  45.681  53.817  1.00  0.00     0.014 A 
HETATM   31  C   UNL     1      28.243  45.458  54.705  1.00  0.00     0.001 A 
HETATM   32  C   UNL     1      28.827  44.199  54.810  1.00  0.00     0.002 A 
ENDBRANCH  21  22
ENDBRANCH   1  20
TORSDOF 4
ENDMDL
MODEL 7
REMARK VINA RESULT:      -9.2      3.102     11.211
REMARK  4 active torsions:
REMARK  status: ('A' for Active; 'I' for Inactive)
REMARK    1  A    between atoms: C_7  and  C_8 
REMARK    2  A    between atoms: N_9  and  N_10 
REMARK       I    between atoms: N_10  and  C_11 
REMARK    3  A    between atoms: C_11  and  C_12 
REMARK    4  A    between atoms: C_16  and  C_17 
ROOT
HETATM    1  N   UNL     1      23.034  47.108  49.382  1.00  0.00    -0.242 N 
HETATM    2  C   UNL     1      24.172  47.677  49.931  1.00  0.00     0.289 C 
HETATM    3  O   UNL     1      24.595  48.794  49.644  1.00  0.00    -0.264 OA
HETATM    4  H   UNL     1      22.736  46.183  49.658  1.00  0.00     0.192 HD
ENDROOT
BRANCH   2   5
HETATM    5  C   UNL     1      24.856  46.851  50.896  1.00  0.00     0.121 A 
HETATM    6  N   UNL     1      24.335  45.652  51.291  1.00  0.00    -0.272 N 
HETATM    7  H   UNL     1      23.466  45.235  50.970  1.00  0.00     0.189 HD
HETATM    8  N   UNL     1      25.082  44.996  52.190  1.00  0.00    -0.174 NA
HETATM    9  C   UNL     1      26.142  45.790  52.403  1.00  0.00     0.089 A 
HETATM   10  C   UNL     1      26.035  46.968  51.605  1.00  0.00     0.071 A 
BRANCH   9  11
HETATM   11  C   UNL     1      27.207  45.413  53.343  1.00  0.00    -0.003 A 
HETATM   12  C   UNL     1      27.483  46.194  54.477  1.00  0.00     0.053 A 
HETATM   13  C   UNL     1      28.497  45.786  55.322  1.00  0.00     0.106 A 
HETATM   14  C   UNL     1      29.234  44.650  55.083  1.00  0.00     0.105 A 
HETATM   15  O   UNL     1      28.887  46.428  56.456  1.00  0.00    -0.323 OA
HETATM   16  O   UNL     1      30.180  44.434  56.036  1.00  0.00    -0.323 OA
HETATM   17  C   UNL     1      28.998  43.856  53.986  1.00  0.00     0.040 A 
HETATM   18  C   UNL     1      29.954  45.564  56.904  1.00  0.00     0.352 A 
HETATM   19  C   UNL     1      27.976  44.245  53.112  1.00  0.00     0.017 A 
ENDBRANCH   9  11
ENDBRANCH   2   5
BRANCH   1  20
HETATM   20  N   UNL     1      22.304  47.799  48.457  1.00  0.00    -0.183 NA
HETATM   21  C   UNL     1      21.173  48.278  48.863  1.00  0.00     0.153 C 
BRANCH  21  22
HETATM   22  C   UNL     1      20.324  49.028  47.956  1.00  0.00     0.018 A 
HETATM   23  C   UNL     1      20.074  50.395  47.980  1.00  0.00     0.018 A 
HETATM   24  C   UNL     1      20.567  51.466  48.889  1.00  0.00     0.069 C 
HETATM   25  N   UNL     1      19.218  50.682  46.948  1.00  0.00    -0.358 N 
HETATM   26  H   UNL     1      18.866  51.603  46.726  1.00  0.00     0.166 HD
HETATM   27  C   UNL     1      18.900  49.544  46.248  1.00  0.00     0.043 A 
HETATM   28  C   UNL     1      19.578  48.487  46.856  1.00  0.00     0.004 A 
HETATM   29  C   UNL     1      18.070  49.376  45.134  1.00  0.00     0.030 A 
HETATM   30  C   UNL     1      19.414  47.193  46.315  1.00  0.00     0.014 A 
HETATM   31  C   UNL     1      18.587  47.006  45.201  1.00  0.00     0.001 A 
HETATM   32  C   UNL     1      17.926  48.084  44.620  1.00  0.00     0.002 A 
ENDBRANCH  21  22
ENDBRANCH   1  20
TORSDOF 4
ENDMDL
MODEL 8
REMARK VINA RESULT:      -9.2      2.892     11.011
REMARK  4 active torsions:
REMARK  status: ('A' for Active; 'I' for Inactive)
REMARK    1  A    between atoms: C_7  and  C_8 
REMARK    2  A    between atoms: N_9  and  N_10 
REMARK       I    between atoms: N_10  and  C_11 
REMARK    3  A    between atoms: C_11  and  C_12 
REMARK    4  A    between atoms: C_16  and  C_17 
ROOT
HETATM    1  N   UNL     1      21.821  48.017  49.476  1.00  0.00    -0.242 N 
HETATM    2  C   UNL     1      23.042  48.246  48.863  1.00  0.00     0.289 C 
HETATM    3  O   UNL     1      23.184  48.871  47.815  1.00  0.00    -0.264 OA
HETATM    4  H   UNL     1      21.769  47.494  50.340  1.00  0.00     0.192 HD
ENDROOT
BRANCH   2   5
HETATM    5  C   UNL     1      24.180  47.689  49.552  1.00  0.00     0.121 A 
HETATM    6  N   UNL     1      25.418  48.255  49.439  1.00  0.00    -0.272 N 
HETATM    7  H   UNL     1      25.659  49.078  48.894  1.00  0.00     0.189 HD
HETATM    8  N   UNL     1      26.376  47.630  50.136  1.00  0.00    -0.174 NA
HETATM    9  C   UNL     1      25.752  46.605  50.737  1.00  0.00     0.089 A 
HETATM   10  C   UNL     1      24.367  46.609  50.393  1.00  0.00     0.071 A 
BRANCH   9  11
HETATM   11  C   UNL     1      26.477  45.667  51.606  1.00  0.00    -0.003 A 
HETATM   12  C   UNL     1      27.097  44.522  51.079  1.00  0.00     0.053 A 
HETATM   13  C   UNL     1      27.764  43.680  51.948  1.00  0.00     0.106 A 
HETATM   14  C   UNL     1      27.834  43.930  53.298  1.00  0.00     0.105 A 
HETATM   15  O   UNL     1      28.412  42.536  51.598  1.00  0.00    -0.323 OA
HETATM   16  O   UNL     1      28.535  42.977  53.968  1.00  0.00    -0.323 OA
HETATM   17  C   UNL     1      27.243  45.039  53.857  1.00  0.00     0.040 A 
HETATM   18  C   UNL     1      28.899  42.096  52.885  1.00  0.00     0.352 A 
HETATM   19  C   UNL     1      26.560  45.910  53.000  1.00  0.00     0.017 A 
ENDBRANCH   9  11
ENDBRANCH   2   5
BRANCH   1  20
HETATM   20  N   UNL     1      20.673  48.499  48.914  1.00  0.00    -0.183 NA
HETATM   21  C   UNL     1      19.601  48.405  49.631  1.00  0.00     0.153 C 
BRANCH  21  22
HETATM   22  C   UNL     1      18.331  48.889  49.122  1.00  0.00     0.018 A 
HETATM   23  C   UNL     1      17.362  48.152  48.452  1.00  0.00     0.018 A 
HETATM   24  C   UNL     1      17.317  46.715  48.064  1.00  0.00     0.069 C 
HETATM   25  N   UNL     1      16.326  48.999  48.151  1.00  0.00    -0.358 N 
HETATM   26  H   UNL     1      15.482  48.732  47.663  1.00  0.00     0.166 HD
HETATM   27  C   UNL     1      16.588  50.268  48.605  1.00  0.00     0.043 A 
HETATM   28  C   UNL     1      17.840  50.234  49.220  1.00  0.00     0.004 A 
HETATM   29  C   UNL     1      15.816  51.432  48.516  1.00  0.00     0.030 A 
HETATM   30  C   UNL     1      18.342  51.431  49.775  1.00  0.00     0.014 A 
HETATM   31  C   UNL     1      17.583  52.604  49.695  1.00  0.00     0.001 A 
HETATM   32  C   UNL     1      16.337  52.602  49.074  1.00  0.00     0.002 A 
ENDBRANCH  21  22
ENDBRANCH   1  20
TORSDOF 4
ENDMDL
MODEL 9
REMARK VINA RESULT:      -8.9     13.703     17.634
REMARK  4 active torsions:
REMARK  status: ('A' for Active; 'I' for Inactive)
REMARK    1  A    between atoms: C_7  and  C_8 
REMARK    2  A    between atoms: N_9  and  N_10 
REMARK       I    between atoms: N_10  and  C_11 
REMARK    3  A    between atoms: C_11  and  C_12 
REMARK    4  A    between atoms: C_16  and  C_17 
ROOT
HETATM    1  N   UNL     1      34.865  51.963  43.545  1.00  0.00    -0.242 N 
HETATM    2  C   UNL     1      36.026  52.555  43.076  1.00  0.00     0.289 C 
HETATM    3  O   UNL     1      36.224  52.857  41.902  1.00  0.00    -0.264 OA
HETATM    4  H   UNL     1      34.761  51.738  44.525  1.00  0.00     0.192 HD
ENDROOT
BRANCH   2   5
HETATM    5  C   UNL     1      37.027  52.809  44.084  1.00  0.00     0.121 A 
HETATM    6  N   UNL     1      37.121  52.020  45.195  1.00  0.00    -0.272 N 
HETATM    7  H   UNL     1      36.537  51.220  45.421  1.00  0.00     0.189 HD
HETATM    8  N   UNL     1      38.097  52.375  46.042  1.00  0.00    -0.174 NA
HETATM    9  C   UNL     1      38.676  53.444  45.472  1.00  0.00     0.089 A 
HETATM   10  C   UNL     1      38.028  53.747  44.237  1.00  0.00     0.071 A 
BRANCH   9  11
HETATM   11  C   UNL     1      39.807  54.134  46.107  1.00  0.00    -0.003 A 
HETATM   12  C   UNL     1      40.730  53.434  46.901  1.00  0.00     0.053 A 
HETATM   13  C   UNL     1      41.773  54.140  47.470  1.00  0.00     0.106 A 
HETATM   14  C   UNL     1      41.927  55.493  47.283  1.00  0.00     0.105 A 
HETATM   15  O   UNL     1      42.745  53.612  48.262  1.00  0.00    -0.323 OA
HETATM   16  O   UNL     1      43.015  55.987  47.931  1.00  0.00    -0.323 OA
HETATM   17  C   UNL     1      41.048  56.218  46.514  1.00  0.00     0.040 A 
HETATM   18  C   UNL     1      43.530  54.789  48.549  1.00  0.00     0.352 A 
HETATM   19  C   UNL     1      39.981  55.529  45.924  1.00  0.00     0.017 A 
ENDBRANCH   9  11
ENDBRANCH   2   5
BRANCH   1  20
HETATM   20  N   UNL     1      33.847  51.676  42.680  1.00  0.00    -0.183 NA
HETATM   21  C   UNL     1      32.692  51.442  43.214  1.00  0.00     0.153 C 
BRANCH  21  22
HETATM   22  C   UNL     1      31.547  51.129  42.379  1.00  0.00     0.018 A 
HETATM   23  C   UNL     1      30.922  49.895  42.244  1.00  0.00     0.018 A 
HETATM   24  C   UNL     1      31.208  48.576  42.873  1.00  0.00     0.069 C 
HETATM   25  N   UNL     1      29.886  50.045  41.357  1.00  0.00    -0.358 N 
HETATM   26  H   UNL     1      29.258  49.307  41.069  1.00  0.00     0.166 HD
HETATM   27  C   UNL     1      29.815  51.341  40.908  1.00  0.00     0.043 A 
HETATM   28  C   UNL     1      30.844  52.048  41.531  1.00  0.00     0.004 A 
HETATM   29  C   UNL     1      28.923  51.932  40.005  1.00  0.00     0.030 A 
HETATM   30  C   UNL     1      30.984  53.420  41.231  1.00  0.00     0.014 A 
HETATM   31  C   UNL     1      30.101  54.028  40.330  1.00  0.00     0.001 A 
HETATM   32  C   UNL     1      29.085  53.291  39.728  1.00  0.00     0.002 A 
ENDBRANCH  21  22
ENDBRANCH   1  20
TORSDOF 4
ENDMDL
MODEL 10
REMARK VINA RESULT:      -8.6      7.362     11.606
REMARK  4 active torsions:
REMARK  status: ('A' for Active; 'I' for Inactive)
REMARK    1  A    between atoms: C_7  and  C_8 
REMARK    2  A    between atoms: N_9  and  N_10 
REMARK       I    between atoms: N_10  and  C_11 
REMARK    3  A    between atoms: C_11  and  C_12 
REMARK    4  A    between atoms: C_16  and  C_17 
ROOT
HETATM    1  N   UNL     1      17.500  52.985  49.398  1.00  0.00    -0.242 N 
HETATM    2  C   UNL     1      16.131  52.918  49.604  1.00  0.00     0.289 C 
HETATM    3  O   UNL     1      15.470  51.887  49.528  1.00  0.00    -0.264 OA
HETATM    4  H   UNL     1      17.990  53.866  49.474  1.00  0.00     0.192 HD
ENDROOT
BRANCH   2   5
HETATM    5  C   UNL     1      15.506  54.178  49.924  1.00  0.00     0.121 A 
HETATM    6  N   UNL     1      14.902  54.930  48.957  1.00  0.00    -0.272 N 
HETATM    7  H   UNL     1      14.830  54.702  47.970  1.00  0.00     0.189 HD
HETATM    8  N   UNL     1      14.364  56.073  49.404  1.00  0.00    -0.174 NA
HETATM    9  C   UNL     1      14.620  56.083  50.721  1.00  0.00     0.089 A 
HETATM   10  C   UNL     1      15.338  54.905  51.086  1.00  0.00     0.071 A 
BRANCH   9  11
HETATM   11  C   UNL     1      14.182  57.192  51.580  1.00  0.00    -0.003 A 
HETATM   12  C   UNL     1      15.072  58.210  51.960  1.00  0.00     0.053 A 
HETATM   13  C   UNL     1      14.600  59.226  52.768  1.00  0.00     0.106 A 
HETATM   14  C   UNL     1      13.297  59.265  53.206  1.00  0.00     0.105 A 
HETATM   15  O   UNL     1      15.331  60.279  53.222  1.00  0.00    -0.323 OA
HETATM   16  O   UNL     1      13.044  60.347  53.989  1.00  0.00    -0.323 OA
HETATM   17  C   UNL     1      12.391  58.291  52.858  1.00  0.00     0.040 A 
HETATM   18  C   UNL     1      14.337  60.987  53.995  1.00  0.00     0.352 A 
HETATM   19  C   UNL     1      12.843  57.249  52.039  1.00  0.00     0.017 A 
ENDBRANCH   9  11
ENDBRANCH   2   5
BRANCH   1  20
HETATM   20  N   UNL     1      18.200  51.853  49.089  1.00  0.00    -0.183 NA
HETATM   21  C   UNL     1      19.148  51.526  49.906  1.00  0.00     0.153 C 
BRANCH  21  22
HETATM   22  C   UNL     1      19.949  50.339  49.665  1.00  0.00     0.018 A 
HETATM   23  C   UNL     1      19.600  49.023  49.944  1.00  0.00     0.018 A 
HETATM   24  C   UNL     1      18.368  48.440  50.543  1.00  0.00     0.069 C 
HETATM   25  N   UNL     1      20.646  48.223  49.559  1.00  0.00    -0.358 N 
HETATM   26  H   UNL     1      20.668  47.216  49.645  1.00  0.00     0.166 HD
HETATM   27  C   UNL     1      21.668  48.977  49.036  1.00  0.00     0.043 A 
HETATM   28  C   UNL     1      21.262  50.311  49.088  1.00  0.00     0.004 A 
HETATM   29  C   UNL     1      22.910  48.578  48.527  1.00  0.00     0.030 A 
HETATM   30  C   UNL     1      22.150  51.296  48.603  1.00  0.00     0.014 A 
HETATM   31  C   UNL     1      23.396  50.915  48.090  1.00  0.00     0.001 A 
HETATM   32  C   UNL     1      23.768  49.574  48.054  1.00  0.00     0.002 A 
ENDBRANCH  21  22
ENDBRANCH   1  20
TORSDOF 4
ENDMDL
