MODEL 1
REMARK VINA RESULT:      -9.9      0.000      0.000
REMARK  8 active torsions:
REMARK  status: ('A' for Active; 'I' for Inactive)
REMARK    1  A    between atoms: C_3  and  N_4 
REMARK       I    between atoms: N_4  and  C_5 
REMARK    2  A    between atoms: C_5  and  C_6 
REMARK    3  A    between atoms: C_6  and  N_7 
REMARK    4  A    between atoms: N_10  and  C_11 
REMARK    5  A    between atoms: C_11  and  C_12 
REMARK    6  A    between atoms: C_12  and  C_13 
REMARK       I    between atoms: C_13  and  N_14 
REMARK    7  A    between atoms: N_14  and  C_15 
REMARK    8  A    between atoms: C_15  and  C_16 
ROOT
HETATM    1  N   UNL     1      25.608  44.075  50.952  1.00  0.00    -0.289 N 
HETATM    2  C   UNL     1      25.253  45.218  50.234  1.00  0.00     0.332 C 
HETATM    3  O   UNL     1      24.782  45.105  49.096  1.00  0.00    -0.246 OA
HETATM    4  N   UNL     1      25.446  46.471  50.843  1.00  0.00    -0.265 N 
HETATM    5  C   UNL     1      25.932  46.636  52.148  1.00  0.00     0.271 C 
HETATM    6  O   UNL     1      25.933  47.710  52.745  1.00  0.00    -0.266 OA
HETATM    7  C   UNL     1      26.420  45.422  52.740  1.00  0.00     0.100 A 
HETATM    8  C   UNL     1      26.269  44.188  52.169  1.00  0.00     0.062 A 
HETATM    9  S   UNL     1      27.215  45.369  54.240  1.00  0.00    -0.094 SA
HETATM   10  C   UNL     1      27.396  43.668  54.134  1.00  0.00     0.053 A 
HETATM   11  C   UNL     1      26.841  43.163  52.976  1.00  0.00     0.038 A 
ENDROOT
BRANCH   4  12
HETATM   12  C   UNL     1      24.937  47.615  50.064  1.00  0.00     0.146 C 
BRANCH  12  13
HETATM   13  C   UNL     1      25.928  48.482  49.293  1.00  0.00     0.123 C 
BRANCH  13  14
HETATM   14  C   UNL     1      25.232  49.559  48.493  1.00  0.00     0.219 C 
HETATM   15  N   UNL     1      24.005  49.893  49.017  1.00  0.00    -0.357 N 
HETATM   16  H   UNL     1      23.643  49.373  49.807  1.00  0.00     0.162 HD
HETATM   17  O   UNL     1      25.714  50.083  47.496  1.00  0.00    -0.274 OA
BRANCH  15  18
HETATM   18  C   UNL     1      23.172  50.930  48.456  1.00  0.00     0.161 C 
BRANCH  18  19
HETATM   19  C   UNL     1      21.720  50.575  48.650  1.00  0.00    -0.038 A 
HETATM   20  C   UNL     1      21.338  49.264  48.975  1.00  0.00     0.048 A 
HETATM   21  C   UNL     1      19.997  49.015  49.184  1.00  0.00     0.105 A 
HETATM   22  C   UNL     1      19.049  50.005  49.086  1.00  0.00     0.105 A 
HETATM   23  O   UNL     1      19.456  47.810  49.510  1.00  0.00    -0.323 OA
HETATM   24  O   UNL     1      17.793  49.549  49.338  1.00  0.00    -0.323 OA
HETATM   25  C   UNL     1      19.384  51.302  48.771  1.00  0.00     0.040 A 
HETATM   26  C   UNL     1      18.058  48.156  49.603  1.00  0.00     0.352 A 
HETATM   27  C   UNL     1      20.735  51.587  48.552  1.00  0.00     0.012 A 
ENDBRANCH  18  19
ENDBRANCH  15  18
ENDBRANCH  13  14
ENDBRANCH  12  13
ENDBRANCH   4  12
BRANCH   1  28
HETATM   28  C   UNL     1      25.219  42.783  50.393  1.00  0.00     0.237 C 
BRANCH  28  29
HETATM   29  C   UNL     1      26.346  42.107  49.621  1.00  0.00     0.240 C 
HETATM   30  N   UNL     1      26.208  40.730  49.565  1.00  0.00    -0.325 N 
HETATM   31  H   UNL     1      25.241  40.398  49.576  1.00  0.00     0.169 HD
HETATM   32  O   UNL     1      27.231  42.767  49.081  1.00  0.00    -0.271 OA
BRANCH  30  33
HETATM   33  C   UNL     1      27.193  39.817  49.128  1.00  0.00     0.042 A 
HETATM   34  C   UNL     1      27.357  39.398  47.792  1.00  0.00    -0.035 A 
HETATM   35  C   UNL     1      26.548  39.921  46.636  1.00  0.00     0.050 C 
HETATM   36  C   UNL     1      28.372  38.469  47.489  1.00  0.00     0.011 A 
HETATM   37  C   UNL     1      29.241  38.005  48.474  1.00  0.00     0.024 A 
HETATM   38  C   UNL     1      29.109  38.471  49.775  1.00  0.00     0.036 A 
HETATM   39  C   UNL     1      28.103  39.379  50.103  1.00  0.00     0.053 A 
HETATM   40 CL   UNL     1      30.192  37.916  50.993  1.00  0.00    -0.084 Cl
ENDBRANCH  30  33
ENDBRANCH  28  29
ENDBRANCH   1  28
TORSDOF 8
ENDMDL
MODEL 2
REMARK VINA RESULT:      -9.9      4.088      9.779
REMARK  8 active torsions:
REMARK  status: ('A' for Active; 'I' for Inactive)
REMARK    1  A    between atoms: C_3  and  N_4 
REMARK       I    between atoms: N_4  and  C_5 
REMARK    2  A    between atoms: C_5  and  C_6 
REMARK    3  A    between atoms: C_6  and  N_7 
REMARK    4  A    between atoms: N_10  and  C_11 
REMARK    5  A    between atoms: C_11  and  C_12 
REMARK    6  A    between atoms: C_12  and  C_13 
REMARK       I    between atoms: C_13  and  N_14 
REMARK    7  A    between atoms: N_14  and  C_15 
REMARK    8  A    between atoms: C_15  and  C_16 
ROOT
HETATM    1  N   UNL     1      23.910  44.659  48.440  1.00  0.00    -0.289 N 
HETATM    2  C   UNL     1      24.535  43.415  48.548  1.00  0.00     0.332 C 
HETATM    3  O   UNL     1      24.065  42.439  47.951  1.00  0.00    -0.246 OA
HETATM    4  N   UNL     1      25.693  43.322  49.341  1.00  0.00    -0.265 N 
HETATM    5  C   UNL     1      26.282  44.415  49.993  1.00  0.00     0.271 C 
HETATM    6  O   UNL     1      27.384  44.374  50.534  1.00  0.00    -0.266 OA
HETATM    7  C   UNL     1      25.481  45.607  49.957  1.00  0.00     0.100 A 
HETATM    8  C   UNL     1      24.339  45.729  49.215  1.00  0.00     0.062 A 
HETATM    9  S   UNL     1      25.876  47.022  50.810  1.00  0.00    -0.094 SA
HETATM   10  C   UNL     1      24.487  47.825  50.209  1.00  0.00     0.053 A 
HETATM   11  C   UNL     1      23.753  47.020  49.362  1.00  0.00     0.038 A 
ENDROOT
BRANCH   4  12
HETATM   12  C   UNL     1      26.354  42.004  49.305  1.00  0.00     0.146 C 
BRANCH  12  13
HETATM   13  C   UNL     1      26.293  41.114  50.543  1.00  0.00     0.123 C 
BRANCH  13  14
HETATM   14  C   UNL     1      27.663  40.881  51.139  1.00  0.00     0.219 C 
HETATM   15  N   UNL     1      27.929  41.728  52.190  1.00  0.00    -0.357 N 
HETATM   16  H   UNL     1      27.262  42.453  52.427  1.00  0.00     0.162 HD
HETATM   17  O   UNL     1      28.442  40.026  50.737  1.00  0.00    -0.274 OA
BRANCH  15  18
HETATM   18  C   UNL     1      29.154  41.666  52.952  1.00  0.00     0.161 C 
BRANCH  18  19
HETATM   19  C   UNL     1      29.260  42.879  53.839  1.00  0.00    -0.038 A 
HETATM   20  C   UNL     1      28.226  43.827  53.890  1.00  0.00     0.048 A 
HETATM   21  C   UNL     1      28.366  44.891  54.757  1.00  0.00     0.105 A 
HETATM   22  C   UNL     1      29.473  45.036  55.558  1.00  0.00     0.105 A 
HETATM   23  O   UNL     1      27.463  45.893  54.935  1.00  0.00    -0.323 OA
HETATM   24  O   UNL     1      29.406  46.145  56.342  1.00  0.00    -0.323 OA
HETATM   25  C   UNL     1      30.507  44.128  55.538  1.00  0.00     0.040 A 
HETATM   26  C   UNL     1      28.130  46.685  55.940  1.00  0.00     0.352 A 
HETATM   27  C   UNL     1      30.396  43.038  54.670  1.00  0.00     0.012 A 
ENDBRANCH  18  19
ENDBRANCH  15  18
ENDBRANCH  13  14
ENDBRANCH  12  13
ENDBRANCH   4  12
BRANCH   1  28
HETATM   28  C   UNL     1      22.834  44.786  47.461  1.00  0.00     0.237 C 
BRANCH  28  29
HETATM   29  C   UNL     1      21.461  44.941  48.105  1.00  0.00     0.240 C 
HETATM   30  N   UNL     1      20.719  45.970  47.548  1.00  0.00    -0.325 N 
HETATM   31  H   UNL     1      20.913  46.148  46.560  1.00  0.00     0.169 HD
HETATM   32  O   UNL     1      21.083  44.173  48.987  1.00  0.00    -0.271 OA
BRANCH  30  33
HETATM   33  C   UNL     1      19.521  46.504  48.072  1.00  0.00     0.042 A 
HETATM   34  C   UNL     1      18.230  46.067  47.716  1.00  0.00    -0.035 A 
HETATM   35  C   UNL     1      17.951  44.923  46.778  1.00  0.00     0.050 C 
HETATM   36  C   UNL     1      17.112  46.694  48.302  1.00  0.00     0.011 A 
HETATM   37  C   UNL     1      17.267  47.692  49.261  1.00  0.00     0.024 A 
HETATM   38  C   UNL     1      18.545  48.072  49.649  1.00  0.00     0.036 A 
HETATM   39  C   UNL     1      19.667  47.478  49.073  1.00  0.00     0.053 A 
HETATM   40 CL   UNL     1      18.743  49.293  50.848  1.00  0.00    -0.084 Cl
ENDBRANCH  30  33
ENDBRANCH  28  29
ENDBRANCH   1  28
TORSDOF 8
ENDMDL
MODEL 3
REMARK VINA RESULT:      -9.8      4.590     10.444
REMARK  8 active torsions:
REMARK  status: ('A' for Active; 'I' for Inactive)
REMARK    1  A    between atoms: C_3  and  N_4 
REMARK       I    between atoms: N_4  and  C_5 
REMARK    2  A    between atoms: C_5  and  C_6 
REMARK    3  A    between atoms: C_6  and  N_7 
REMARK    4  A    between atoms: N_10  and  C_11 
REMARK    5  A    between atoms: C_11  and  C_12 
REMARK    6  A    between atoms: C_12  and  C_13 
REMARK       I    between atoms: C_13  and  N_14 
REMARK    7  A    between atoms: N_14  and  C_15 
REMARK    8  A    between atoms: C_15  and  C_16 
ROOT
HETATM    1  N   UNL     1      22.999  43.720  48.703  1.00  0.00    -0.289 N 
HETATM    2  C   UNL     1      23.896  43.670  49.772  1.00  0.00     0.332 C 
HETATM    3  O   UNL     1      23.853  44.542  50.649  1.00  0.00    -0.246 OA
HETATM    4  N   UNL     1      24.824  42.614  49.811  1.00  0.00    -0.265 N 
HETATM    5  C   UNL     1      24.871  41.583  48.863  1.00  0.00     0.271 C 
HETATM    6  O   UNL     1      25.555  40.570  48.989  1.00  0.00    -0.266 OA
HETATM    7  C   UNL     1      24.026  41.808  47.723  1.00  0.00     0.100 A 
HETATM    8  C   UNL     1      23.126  42.835  47.639  1.00  0.00     0.062 A 
HETATM    9  S   UNL     1      24.020  40.804  46.352  1.00  0.00    -0.094 SA
HETATM   10  C   UNL     1      22.812  41.760  45.603  1.00  0.00     0.053 A 
HETATM   11  C   UNL     1      22.419  42.814  46.402  1.00  0.00     0.038 A 
ENDROOT
BRANCH   4  12
HETATM   12  C   UNL     1      25.652  42.573  51.031  1.00  0.00     0.146 C 
BRANCH  12  13
HETATM   13  C   UNL     1      27.070  43.133  50.980  1.00  0.00     0.123 C 
BRANCH  13  14
HETATM   14  C   UNL     1      28.009  42.378  51.893  1.00  0.00     0.219 C 
HETATM   15  N   UNL     1      29.014  43.175  52.388  1.00  0.00    -0.357 N 
HETATM   16  H   UNL     1      29.095  44.133  52.067  1.00  0.00     0.162 HD
HETATM   17  O   UNL     1      27.879  41.192  52.168  1.00  0.00    -0.274 OA
BRANCH  15  18
HETATM   18  C   UNL     1      30.006  42.693  53.320  1.00  0.00     0.161 C 
BRANCH  18  19
HETATM   19  C   UNL     1      30.010  43.563  54.550  1.00  0.00    -0.038 A 
HETATM   20  C   UNL     1      30.881  43.295  55.618  1.00  0.00     0.048 A 
HETATM   21  C   UNL     1      30.868  44.156  56.696  1.00  0.00     0.105 A 
HETATM   22  C   UNL     1      30.038  45.251  56.742  1.00  0.00     0.105 A 
HETATM   23  O   UNL     1      31.646  44.049  57.806  1.00  0.00    -0.323 OA
HETATM   24  O   UNL     1      30.190  45.971  57.885  1.00  0.00    -0.323 OA
HETATM   25  C   UNL     1      29.171  45.548  55.715  1.00  0.00     0.040 A 
HETATM   26  C   UNL     1      31.209  45.201  58.557  1.00  0.00     0.352 A 
HETATM   27  C   UNL     1      29.160  44.694  54.609  1.00  0.00     0.012 A 
ENDBRANCH  18  19
ENDBRANCH  15  18
ENDBRANCH  13  14
ENDBRANCH  12  13
ENDBRANCH   4  12
BRANCH   1  28
HETATM   28  C   UNL     1      21.918  44.699  48.778  1.00  0.00     0.237 C 
BRANCH  28  29
HETATM   29  C   UNL     1      22.309  46.059  48.211  1.00  0.00     0.240 C 
HETATM   30  N   UNL     1      22.572  46.996  49.197  1.00  0.00    -0.325 N 
HETATM   31  H   UNL     1      22.945  46.608  50.065  1.00  0.00     0.169 HD
HETATM   32  O   UNL     1      22.415  46.235  47.000  1.00  0.00    -0.271 OA
BRANCH  30  33
HETATM   33  C   UNL     1      22.730  48.385  48.996  1.00  0.00     0.042 A 
HETATM   34  C   UNL     1      23.971  49.053  48.981  1.00  0.00    -0.035 A 
HETATM   35  C   UNL     1      25.304  48.366  49.108  1.00  0.00     0.050 C 
HETATM   36  C   UNL     1      23.992  50.448  48.784  1.00  0.00     0.011 A 
HETATM   37  C   UNL     1      22.818  51.160  48.552  1.00  0.00     0.024 A 
HETATM   38  C   UNL     1      21.607  50.483  48.508  1.00  0.00     0.036 A 
HETATM   39  C   UNL     1      21.558  49.105  48.715  1.00  0.00     0.053 A 
HETATM   40 CL   UNL     1      20.154  51.355  48.203  1.00  0.00    -0.084 Cl
ENDBRANCH  30  33
ENDBRANCH  28  29
ENDBRANCH   1  28
TORSDOF 8
ENDMDL
MODEL 4
REMARK VINA RESULT:      -9.7      4.128     10.426
REMARK  8 active torsions:
REMARK  status: ('A' for Active; 'I' for Inactive)
REMARK    1  A    between atoms: C_3  and  N_4 
REMARK       I    between atoms: N_4  and  C_5 
REMARK    2  A    between atoms: C_5  and  C_6 
REMARK    3  A    between atoms: C_6  and  N_7 
REMARK    4  A    between atoms: N_10  and  C_11 
REMARK    5  A    between atoms: C_11  and  C_12 
REMARK    6  A    between atoms: C_12  and  C_13 
REMARK       I    between atoms: C_13  and  N_14 
REMARK    7  A    between atoms: N_14  and  C_15 
REMARK    8  A    between atoms: C_15  and  C_16 
ROOT
HETATM    1  N   UNL     1      22.991  46.076  48.784  1.00  0.00    -0.289 N 
HETATM    2  C   UNL     1      23.031  44.806  49.362  1.00  0.00     0.332 C 
HETATM    3  O   UNL     1      22.079  44.032  49.207  1.00  0.00    -0.246 OA
HETATM    4  N   UNL     1      24.170  44.452  50.107  1.00  0.00    -0.265 N 
HETATM    5  C   UNL     1      25.288  45.283  50.265  1.00  0.00     0.271 C 
HETATM    6  O   UNL     1      26.350  44.913  50.759  1.00  0.00    -0.266 OA
HETATM    7  C   UNL     1      25.086  46.619  49.777  1.00  0.00     0.100 A 
HETATM    8  C   UNL     1      23.983  47.007  49.067  1.00  0.00     0.062 A 
HETATM    9  S   UNL     1      26.212  47.873  49.996  1.00  0.00    -0.094 SA
HETATM   10  C   UNL     1      25.211  48.979  49.152  1.00  0.00     0.053 A 
HETATM   11  C   UNL     1      24.050  48.384  48.705  1.00  0.00     0.038 A 
ENDROOT
BRANCH   4  12
HETATM   12  C   UNL     1      24.180  43.056  50.581  1.00  0.00     0.146 C 
BRANCH  12  13
HETATM   13  C   UNL     1      24.980  42.016  49.801  1.00  0.00     0.123 C 
BRANCH  13  14
HETATM   14  C   UNL     1      25.894  41.215  50.700  1.00  0.00     0.219 C 
HETATM   15  N   UNL     1      26.591  42.008  51.581  1.00  0.00    -0.357 N 
HETATM   16  H   UNL     1      26.506  43.016  51.519  1.00  0.00     0.162 HD
HETATM   17  O   UNL     1      25.991  39.995  50.655  1.00  0.00    -0.274 OA
BRANCH  15  18
HETATM   18  C   UNL     1      27.490  41.469  52.574  1.00  0.00     0.161 C 
BRANCH  18  19
HETATM   19  C   UNL     1      28.077  42.593  53.389  1.00  0.00    -0.038 A 
HETATM   20  C   UNL     1      27.300  43.707  53.743  1.00  0.00     0.048 A 
HETATM   21  C   UNL     1      27.884  44.679  54.530  1.00  0.00     0.105 A 
HETATM   22  C   UNL     1      29.183  44.578  54.967  1.00  0.00     0.105 A 
HETATM   23  O   UNL     1      27.277  45.815  54.967  1.00  0.00    -0.323 OA
HETATM   24  O   UNL     1      29.557  45.636  55.734  1.00  0.00    -0.323 OA
HETATM   25  C   UNL     1      29.976  43.501  54.641  1.00  0.00     0.040 A 
HETATM   26  C   UNL     1      28.345  46.417  55.728  1.00  0.00     0.352 A 
HETATM   27  C   UNL     1      29.414  42.499  53.845  1.00  0.00     0.012 A 
ENDBRANCH  18  19
ENDBRANCH  15  18
ENDBRANCH  13  14
ENDBRANCH  12  13
ENDBRANCH   4  12
BRANCH   1  28
HETATM   28  C   UNL     1      21.901  46.357  47.854  1.00  0.00     0.237 C 
BRANCH  28  29
HETATM   29  C   UNL     1      20.874  47.331  48.419  1.00  0.00     0.240 C 
HETATM   30  N   UNL     1      20.681  48.438  47.608  1.00  0.00    -0.325 N 
HETATM   31  H   UNL     1      20.819  48.264  46.611  1.00  0.00     0.169 HD
HETATM   32  O   UNL     1      20.272  47.086  49.461  1.00  0.00    -0.271 OA
BRANCH  30  33
HETATM   33  C   UNL     1      19.979  49.611  47.964  1.00  0.00     0.042 A 
HETATM   34  C   UNL     1      20.590  50.834  48.306  1.00  0.00    -0.035 A 
HETATM   35  C   UNL     1      22.075  51.077  48.272  1.00  0.00     0.050 C 
HETATM   36  C   UNL     1      19.775  51.929  48.656  1.00  0.00     0.011 A 
HETATM   37  C   UNL     1      18.386  51.834  48.616  1.00  0.00     0.024 A 
HETATM   38  C   UNL     1      17.795  50.642  48.219  1.00  0.00     0.036 A 
HETATM   39  C   UNL     1      18.579  49.540  47.882  1.00  0.00     0.053 A 
HETATM   40 CL   UNL     1      16.078  50.525  48.149  1.00  0.00    -0.084 Cl
ENDBRANCH  30  33
ENDBRANCH  28  29
ENDBRANCH   1  28
TORSDOF 8
ENDMDL
MODEL 5
REMARK VINA RESULT:      -9.6      4.673     11.254
REMARK  8 active torsions:
REMARK  status: ('A' for Active; 'I' for Inactive)
REMARK    1  A    between atoms: C_3  and  N_4 
REMARK       I    between atoms: N_4  and  C_5 
REMARK    2  A    between atoms: C_5  and  C_6 
REMARK    3  A    between atoms: C_6  and  N_7 
REMARK    4  A    between atoms: N_10  and  C_11 
REMARK    5  A    between atoms: C_11  and  C_12 
REMARK    6  A    between atoms: C_12  and  C_13 
REMARK       I    between atoms: C_13  and  N_14 
REMARK    7  A    between atoms: N_14  and  C_15 
REMARK    8  A    between atoms: C_15  and  C_16 
ROOT
HETATM    1  N   UNL     1      22.567  47.763  48.307  1.00  0.00    -0.289 N 
HETATM    2  C   UNL     1      23.664  47.607  49.158  1.00  0.00     0.332 C 
HETATM    3  O   UNL     1      24.230  48.607  49.616  1.00  0.00    -0.246 OA
HETATM    4  N   UNL     1      24.085  46.301  49.465  1.00  0.00    -0.265 N 
HETATM    5  C   UNL     1      23.439  45.145  49.004  1.00  0.00     0.271 C 
HETATM    6  O   UNL     1      23.691  44.014  49.411  1.00  0.00    -0.266 OA
HETATM    7  C   UNL     1      22.433  45.403  48.012  1.00  0.00     0.100 A 
HETATM    8  C   UNL     1      22.011  46.659  47.671  1.00  0.00     0.062 A 
HETATM    9  S   UNL     1      21.619  44.175  47.166  1.00  0.00    -0.094 SA
HETATM   10  C   UNL     1      20.694  45.326  46.297  1.00  0.00     0.053 A 
HETATM   11  C   UNL     1      21.000  46.619  46.667  1.00  0.00     0.038 A 
ENDROOT
BRANCH   4  12
HETATM   12  C   UNL     1      25.171  46.228  50.460  1.00  0.00     0.146 C 
BRANCH  12  13
HETATM   13  C   UNL     1      26.600  45.997  49.976  1.00  0.00     0.123 C 
BRANCH  13  14
HETATM   14  C   UNL     1      27.120  44.636  50.380  1.00  0.00     0.219 C 
HETATM   15  N   UNL     1      27.532  44.599  51.691  1.00  0.00    -0.357 N 
HETATM   16  H   UNL     1      27.530  45.451  52.238  1.00  0.00     0.162 HD
HETATM   17  O   UNL     1      27.157  43.672  49.624  1.00  0.00    -0.274 OA
BRANCH  15  18
HETATM   18  C   UNL     1      28.022  43.396  52.322  1.00  0.00     0.161 C 
BRANCH  18  19
HETATM   19  C   UNL     1      28.835  43.757  53.538  1.00  0.00    -0.038 A 
HETATM   20  C   UNL     1      28.459  44.829  54.363  1.00  0.00     0.048 A 
HETATM   21  C   UNL     1      29.220  45.078  55.487  1.00  0.00     0.105 A 
HETATM   22  C   UNL     1      30.314  44.311  55.810  1.00  0.00     0.105 A 
HETATM   23  O   UNL     1      28.996  46.068  56.392  1.00  0.00    -0.323 OA
HETATM   24  O   UNL     1      30.915  44.720  56.958  1.00  0.00    -0.323 OA
HETATM   25  C   UNL     1      30.714  43.252  55.027  1.00  0.00     0.040 A 
HETATM   26  C   UNL     1      30.076  45.836  57.321  1.00  0.00     0.352 A 
HETATM   27  C   UNL     1      29.964  42.974  53.881  1.00  0.00     0.012 A 
ENDBRANCH  18  19
ENDBRANCH  15  18
ENDBRANCH  13  14
ENDBRANCH  12  13
ENDBRANCH   4  12
BRANCH   1  28
HETATM   28  C   UNL     1      22.019  49.108  48.157  1.00  0.00     0.237 C 
BRANCH  28  29
HETATM   29  C   UNL     1      20.557  49.203  48.579  1.00  0.00     0.240 C 
HETATM   30  N   UNL     1      19.738  49.688  47.572  1.00  0.00    -0.325 N 
HETATM   31  H   UNL     1      20.049  49.463  46.625  1.00  0.00     0.169 HD
HETATM   32  O   UNL     1      20.191  48.825  49.689  1.00  0.00    -0.271 OA
BRANCH  30  33
HETATM   33  C   UNL     1      18.397  50.103  47.726  1.00  0.00     0.042 A 
HETATM   34  C   UNL     1      18.002  51.341  48.271  1.00  0.00    -0.035 A 
HETATM   35  C   UNL     1      18.959  52.421  48.701  1.00  0.00     0.050 C 
HETATM   36  C   UNL     1      16.627  51.630  48.383  1.00  0.00     0.011 A 
HETATM   37  C   UNL     1      15.664  50.738  47.916  1.00  0.00     0.024 A 
HETATM   38  C   UNL     1      16.066  49.548  47.325  1.00  0.00     0.036 A 
HETATM   39  C   UNL     1      17.421  49.233  47.216  1.00  0.00     0.053 A 
HETATM   40 CL   UNL     1      14.881  48.450  46.728  1.00  0.00    -0.084 Cl
ENDBRANCH  30  33
ENDBRANCH  28  29
ENDBRANCH   1  28
TORSDOF 8
ENDMDL
MODEL 6
REMARK VINA RESULT:      -9.4      3.087      5.626
REMARK  8 active torsions:
REMARK  status: ('A' for Active; 'I' for Inactive)
REMARK    1  A    between atoms: C_3  and  N_4 
REMARK       I    between atoms: N_4  and  C_5 
REMARK    2  A    between atoms: C_5  and  C_6 
REMARK    3  A    between atoms: C_6  and  N_7 
REMARK    4  A    between atoms: N_10  and  C_11 
REMARK    5  A    between atoms: C_11  and  C_12 
REMARK    6  A    between atoms: C_12  and  C_13 
REMARK       I    between atoms: C_13  and  N_14 
REMARK    7  A    between atoms: N_14  and  C_15 
REMARK    8  A    between atoms: C_15  and  C_16 
ROOT
HETATM    1  N   UNL     1      26.020  42.230  51.049  1.00  0.00    -0.289 N 
HETATM    2  C   UNL     1      25.265  43.365  51.350  1.00  0.00     0.332 C 
HETATM    3  O   UNL     1      25.286  43.828  52.497  1.00  0.00    -0.246 OA
HETATM    4  N   UNL     1      24.502  43.947  50.322  1.00  0.00    -0.265 N 
HETATM    5  C   UNL     1      24.490  43.480  49.000  1.00  0.00     0.271 C 
HETATM    6  O   UNL     1      23.971  44.086  48.066  1.00  0.00    -0.266 OA
HETATM    7  C   UNL     1      25.162  42.221  48.827  1.00  0.00     0.100 A 
HETATM    8  C   UNL     1      25.896  41.615  49.809  1.00  0.00     0.062 A 
HETATM    9  S   UNL     1      25.151  41.351  47.369  1.00  0.00    -0.094 SA
HETATM   10  C   UNL     1      26.124  40.115  48.048  1.00  0.00     0.053 A 
HETATM   11  C   UNL     1      26.456  40.383  49.361  1.00  0.00     0.038 A 
ENDROOT
BRANCH   4  12
HETATM   12  C   UNL     1      23.830  45.205  50.696  1.00  0.00     0.146 C 
BRANCH  12  13
HETATM   13  C   UNL     1      24.630  46.505  50.671  1.00  0.00     0.123 C 
BRANCH  13  14
HETATM   14  C   UNL     1      24.084  47.484  49.657  1.00  0.00     0.219 C 
HETATM   15  N   UNL     1      22.994  46.987  48.982  1.00  0.00    -0.357 N 
HETATM   16  H   UNL     1      22.699  46.033  49.146  1.00  0.00     0.162 HD
HETATM   17  O   UNL     1      24.554  48.599  49.470  1.00  0.00    -0.274 OA
BRANCH  15  18
HETATM   18  C   UNL     1      22.269  47.756  47.998  1.00  0.00     0.161 C 
BRANCH  18  19
HETATM   19  C   UNL     1      21.156  48.518  48.670  1.00  0.00    -0.038 A 
HETATM   20  C   UNL     1      21.091  49.917  48.588  1.00  0.00     0.048 A 
HETATM   21  C   UNL     1      20.021  50.551  49.187  1.00  0.00     0.105 A 
HETATM   22  C   UNL     1      19.036  49.853  49.844  1.00  0.00     0.105 A 
HETATM   23  O   UNL     1      19.800  51.894  49.199  1.00  0.00    -0.323 OA
HETATM   24  O   UNL     1      18.073  50.666  50.352  1.00  0.00    -0.323 OA
HETATM   25  C   UNL     1      19.064  48.480  49.945  1.00  0.00     0.040 A 
HETATM   26  C   UNL     1      18.565  51.959  49.942  1.00  0.00     0.352 A 
HETATM   27  C   UNL     1      20.136  47.809  49.349  1.00  0.00     0.012 A 
ENDBRANCH  18  19
ENDBRANCH  15  18
ENDBRANCH  13  14
ENDBRANCH  12  13
ENDBRANCH   4  12
BRANCH   1  28
HETATM   28  C   UNL     1      26.957  41.758  52.064  1.00  0.00     0.237 C 
BRANCH  28  29
HETATM   29  C   UNL     1      27.892  42.854  52.563  1.00  0.00     0.240 C 
HETATM   30  N   UNL     1      27.782  43.073  53.927  1.00  0.00    -0.325 N 
HETATM   31  H   UNL     1      27.522  42.248  54.471  1.00  0.00     0.169 HD
HETATM   32  O   UNL     1      28.677  43.414  51.803  1.00  0.00    -0.271 OA
BRANCH  30  33
HETATM   33  C   UNL     1      28.336  44.161  54.637  1.00  0.00     0.042 A 
HETATM   34  C   UNL     1      29.626  44.169  55.205  1.00  0.00    -0.035 A 
HETATM   35  C   UNL     1      30.617  43.044  55.071  1.00  0.00     0.050 C 
HETATM   36  C   UNL     1      30.056  45.315  55.903  1.00  0.00     0.011 A 
HETATM   37  C   UNL     1      29.252  46.449  55.991  1.00  0.00     0.024 A 
HETATM   38  C   UNL     1      28.007  46.451  55.376  1.00  0.00     0.036 A 
HETATM   39  C   UNL     1      27.553  45.324  54.692  1.00  0.00     0.053 A 
HETATM   40 CL   UNL     1      27.016  47.857  55.466  1.00  0.00    -0.084 Cl
ENDBRANCH  30  33
ENDBRANCH  28  29
ENDBRANCH   1  28
TORSDOF 8
ENDMDL
MODEL 7
REMARK VINA RESULT:      -9.4      3.059      5.541
REMARK  8 active torsions:
REMARK  status: ('A' for Active; 'I' for Inactive)
REMARK    1  A    between atoms: C_3  and  N_4 
REMARK       I    between atoms: N_4  and  C_5 
REMARK    2  A    between atoms: C_5  and  C_6 
REMARK    3  A    between atoms: C_6  and  N_7 
REMARK    4  A    between atoms: N_10  and  C_11 
REMARK    5  A    between atoms: C_11  and  C_12 
REMARK    6  A    between atoms: C_12  and  C_13 
REMARK       I    between atoms: C_13  and  N_14 
REMARK    7  A    between atoms: N_14  and  C_15 
REMARK    8  A    between atoms: C_15  and  C_16 
ROOT
HETATM    1  N   UNL     1      26.380  42.020  51.191  1.00  0.00    -0.289 N 
HETATM    2  C   UNL     1      25.664  43.150  51.592  1.00  0.00     0.332 C 
HETATM    3  O   UNL     1      25.718  43.524  52.769  1.00  0.00    -0.246 OA
HETATM    4  N   UNL     1      24.901  43.828  50.625  1.00  0.00    -0.265 N 
HETATM    5  C   UNL     1      24.853  43.462  49.272  1.00  0.00     0.271 C 
HETATM    6  O   UNL     1      24.336  44.151  48.396  1.00  0.00    -0.266 OA
HETATM    7  C   UNL     1      25.484  42.202  48.993  1.00  0.00     0.100 A 
HETATM    8  C   UNL     1      26.218  41.503  49.911  1.00  0.00     0.062 A 
HETATM    9  S   UNL     1      25.424  41.445  47.473  1.00  0.00    -0.094 SA
HETATM   10  C   UNL     1      26.372  40.134  48.040  1.00  0.00     0.053 A 
HETATM   11  C   UNL     1      26.733  40.294  49.362  1.00  0.00     0.038 A 
ENDROOT
BRANCH   4  12
HETATM   12  C   UNL     1      24.273  45.073  51.105  1.00  0.00     0.146 C 
BRANCH  12  13
HETATM   13  C   UNL     1      25.062  46.376  51.026  1.00  0.00     0.123 C 
BRANCH  13  14
HETATM   14  C   UNL     1      24.450  47.350  50.045  1.00  0.00     0.219 C 
HETATM   15  N   UNL     1      23.356  46.824  49.398  1.00  0.00    -0.357 N 
HETATM   16  H   UNL     1      23.100  45.857  49.557  1.00  0.00     0.162 HD
HETATM   17  O   UNL     1      24.875  48.483  49.859  1.00  0.00    -0.274 OA
BRANCH  15  18
HETATM   18  C   UNL     1      22.572  47.580  48.450  1.00  0.00     0.161 C 
BRANCH  18  19
HETATM   19  C   UNL     1      21.164  47.044  48.414  1.00  0.00    -0.038 A 
HETATM   20  C   UNL     1      20.084  47.831  48.841  1.00  0.00     0.048 A 
HETATM   21  C   UNL     1      18.815  47.298  48.740  1.00  0.00     0.105 A 
HETATM   22  C   UNL     1      18.593  46.038  48.236  1.00  0.00     0.105 A 
HETATM   23  O   UNL     1      17.662  47.923  49.101  1.00  0.00    -0.323 OA
HETATM   24  O   UNL     1      17.274  45.712  48.216  1.00  0.00    -0.323 OA
HETATM   25  C   UNL     1      19.626  45.237  47.807  1.00  0.00     0.040 A 
HETATM   26  C   UNL     1      16.689  46.910  48.768  1.00  0.00     0.352 A 
HETATM   27  C   UNL     1      20.924  45.748  47.897  1.00  0.00     0.012 A 
ENDBRANCH  18  19
ENDBRANCH  15  18
ENDBRANCH  13  14
ENDBRANCH  12  13
ENDBRANCH   4  12
BRANCH   1  28
HETATM   28  C   UNL     1      27.321  41.447  52.150  1.00  0.00     0.237 C 
BRANCH  28  29
HETATM   29  C   UNL     1      28.361  42.451  52.633  1.00  0.00     0.240 C 
HETATM   30  N   UNL     1      28.394  42.568  54.013  1.00  0.00    -0.325 N 
HETATM   31  H   UNL     1      28.140  41.717  54.519  1.00  0.00     0.169 HD
HETATM   32  O   UNL     1      29.101  43.029  51.842  1.00  0.00    -0.271 OA
BRANCH  30  33
HETATM   33  C   UNL     1      29.076  43.567  54.743  1.00  0.00     0.042 A 
HETATM   34  C   UNL     1      28.671  44.915  54.818  1.00  0.00    -0.035 A 
HETATM   35  C   UNL     1      27.418  45.460  54.189  1.00  0.00     0.050 C 
HETATM   36  C   UNL     1      29.449  45.819  55.571  1.00  0.00     0.011 A 
HETATM   37  C   UNL     1      30.570  45.389  56.276  1.00  0.00     0.024 A 
HETATM   38  C   UNL     1      30.924  44.047  56.243  1.00  0.00     0.036 A 
HETATM   39  C   UNL     1      30.179  43.136  55.495  1.00  0.00     0.053 A 
HETATM   40 CL   UNL     1      32.298  43.507  57.130  1.00  0.00    -0.084 Cl
ENDBRANCH  30  33
ENDBRANCH  28  29
ENDBRANCH   1  28
TORSDOF 8
ENDMDL
MODEL 8
REMARK VINA RESULT:      -9.3      4.003      9.972
REMARK  8 active torsions:
REMARK  status: ('A' for Active; 'I' for Inactive)
REMARK    1  A    between atoms: C_3  and  N_4 
REMARK       I    between atoms: N_4  and  C_5 
REMARK    2  A    between atoms: C_5  and  C_6 
REMARK    3  A    between atoms: C_6  and  N_7 
REMARK    4  A    between atoms: N_10  and  C_11 
REMARK    5  A    between atoms: C_11  and  C_12 
REMARK    6  A    between atoms: C_12  and  C_13 
REMARK       I    between atoms: C_13  and  N_14 
REMARK    7  A    between atoms: N_14  and  C_15 
REMARK    8  A    between atoms: C_15  and  C_16 
ROOT
HETATM    1  N   UNL     1      22.734  43.463  48.195  1.00  0.00    -0.289 N 
HETATM    2  C   UNL     1      23.967  43.322  48.834  1.00  0.00     0.332 C 
HETATM    3  O   UNL     1      24.349  44.191  49.627  1.00  0.00    -0.246 OA
HETATM    4  N   UNL     1      24.736  42.180  48.547  1.00  0.00    -0.265 N 
HETATM    5  C   UNL     1      24.316  41.152  47.691  1.00  0.00     0.271 C 
HETATM    6  O   UNL     1      24.899  40.077  47.578  1.00  0.00    -0.266 OA
HETATM    7  C   UNL     1      23.118  41.463  46.961  1.00  0.00     0.100 A 
HETATM    8  C   UNL     1      22.355  42.573  47.197  1.00  0.00     0.062 A 
HETATM    9  S   UNL     1      22.487  40.469  45.736  1.00  0.00    -0.094 SA
HETATM   10  C   UNL     1      21.175  41.541  45.481  1.00  0.00     0.053 A 
HETATM   11  C   UNL     1      21.223  42.626  46.333  1.00  0.00     0.038 A 
ENDROOT
BRANCH   4  12
HETATM   12  C   UNL     1      25.966  42.054  49.351  1.00  0.00     0.146 C 
BRANCH  12  13
HETATM   13  C   UNL     1      25.960  41.138  50.571  1.00  0.00     0.123 C 
BRANCH  13  14
HETATM   14  C   UNL     1      27.312  41.086  51.245  1.00  0.00     0.219 C 
HETATM   15  N   UNL     1      27.222  41.192  52.613  1.00  0.00    -0.357 N 
HETATM   16  H   UNL     1      26.321  41.363  53.041  1.00  0.00     0.162 HD
HETATM   17  O   UNL     1      28.368  40.952  50.638  1.00  0.00    -0.274 OA
BRANCH  15  18
HETATM   18  C   UNL     1      28.375  41.119  53.479  1.00  0.00     0.161 C 
BRANCH  18  19
HETATM   19  C   UNL     1      28.664  42.482  54.053  1.00  0.00    -0.038 A 
HETATM   20  C   UNL     1      27.698  43.499  54.015  1.00  0.00     0.048 A 
HETATM   21  C   UNL     1      28.009  44.710  54.599  1.00  0.00     0.105 A 
HETATM   22  C   UNL     1      29.221  44.933  55.208  1.00  0.00     0.105 A 
HETATM   23  O   UNL     1      27.192  45.796  54.656  1.00  0.00    -0.323 OA
HETATM   24  O   UNL     1      29.318  46.187  55.726  1.00  0.00    -0.323 OA
HETATM   25  C   UNL     1      30.193  43.962  55.267  1.00  0.00     0.040 A 
HETATM   26  C   UNL     1      28.030  46.729  55.370  1.00  0.00     0.352 A 
HETATM   27  C   UNL     1      29.909  42.724  54.683  1.00  0.00     0.012 A 
ENDBRANCH  18  19
ENDBRANCH  15  18
ENDBRANCH  13  14
ENDBRANCH  12  13
ENDBRANCH   4  12
BRANCH   1  28
HETATM   28  C   UNL     1      21.862  44.543  48.649  1.00  0.00     0.237 C 
BRANCH  28  29
HETATM   29  C   UNL     1      22.245  45.899  48.068  1.00  0.00     0.240 C 
HETATM   30  N   UNL     1      22.633  46.809  49.038  1.00  0.00    -0.325 N 
HETATM   31  H   UNL     1      23.073  46.392  49.861  1.00  0.00     0.169 HD
HETATM   32  O   UNL     1      22.243  46.093  46.855  1.00  0.00    -0.271 OA
BRANCH  30  33
HETATM   33  C   UNL     1      22.820  48.195  48.844  1.00  0.00     0.042 A 
HETATM   34  C   UNL     1      21.802  49.162  48.961  1.00  0.00    -0.035 A 
HETATM   35  C   UNL     1      20.388  48.857  49.379  1.00  0.00     0.050 C 
HETATM   36  C   UNL     1      22.117  50.516  48.728  1.00  0.00     0.011 A 
HETATM   37  C   UNL     1      23.420  50.912  48.438  1.00  0.00     0.024 A 
HETATM   38  C   UNL     1      24.427  49.958  48.385  1.00  0.00     0.036 A 
HETATM   39  C   UNL     1      24.139  48.610  48.598  1.00  0.00     0.053 A 
HETATM   40 CL   UNL     1      26.044  50.444  48.047  1.00  0.00    -0.084 Cl
ENDBRANCH  30  33
ENDBRANCH  28  29
ENDBRANCH   1  28
TORSDOF 8
ENDMDL
MODEL 9
REMARK VINA RESULT:      -9.3      3.919      6.143
REMARK  8 active torsions:
REMARK  status: ('A' for Active; 'I' for Inactive)
REMARK    1  A    between atoms: C_3  and  N_4 
REMARK       I    between atoms: N_4  and  C_5 
REMARK    2  A    between atoms: C_5  and  C_6 
REMARK    3  A    between atoms: C_6  and  N_7 
REMARK    4  A    between atoms: N_10  and  C_11 
REMARK    5  A    between atoms: C_11  and  C_12 
REMARK    6  A    between atoms: C_12  and  C_13 
REMARK       I    between atoms: C_13  and  N_14 
REMARK    7  A    between atoms: N_14  and  C_15 
REMARK    8  A    between atoms: C_15  and  C_16 
ROOT
HETATM    1  N   UNL     1      24.140  45.232  49.558  1.00  0.00    -0.289 N 
HETATM    2  C   UNL     1      22.900  44.678  49.230  1.00  0.00     0.332 C 
HETATM    3  O   UNL     1      22.751  43.451  49.259  1.00  0.00    -0.246 OA
HETATM    4  N   UNL     1      21.856  45.551  48.877  1.00  0.00    -0.265 N 
HETATM    5  C   UNL     1      21.974  46.949  48.880  1.00  0.00     0.271 C 
HETATM    6  O   UNL     1      21.022  47.714  48.748  1.00  0.00    -0.266 OA
HETATM    7  C   UNL     1      23.320  47.414  49.068  1.00  0.00     0.100 A 
HETATM    8  C   UNL     1      24.365  46.593  49.392  1.00  0.00     0.062 A 
HETATM    9  S   UNL     1      23.769  49.047  48.945  1.00  0.00    -0.094 SA
HETATM   10  C   UNL     1      25.402  48.672  49.302  1.00  0.00     0.053 A 
HETATM   11  C   UNL     1      25.583  47.322  49.525  1.00  0.00     0.038 A 
ENDROOT
BRANCH   4  12
HETATM   12  C   UNL     1      20.555  44.892  48.661  1.00  0.00     0.146 C 
BRANCH  12  13
HETATM   13  C   UNL     1      19.905  44.975  47.283  1.00  0.00     0.123 C 
BRANCH  13  14
HETATM   14  C   UNL     1      18.418  45.230  47.374  1.00  0.00     0.219 C 
HETATM   15  N   UNL     1      18.121  46.344  48.123  1.00  0.00    -0.357 N 
HETATM   16  H   UNL     1      18.867  46.841  48.595  1.00  0.00     0.162 HD
HETATM   17  O   UNL     1      17.574  44.527  46.831  1.00  0.00    -0.274 OA
BRANCH  15  18
HETATM   18  C   UNL     1      16.771  46.820  48.315  1.00  0.00     0.161 C 
BRANCH  18  19
HETATM   19  C   UNL     1      16.786  48.309  48.542  1.00  0.00    -0.038 A 
HETATM   20  C   UNL     1      17.858  48.925  49.208  1.00  0.00     0.048 A 
HETATM   21  C   UNL     1      17.832  50.298  49.343  1.00  0.00     0.105 A 
HETATM   22  C   UNL     1      16.802  51.059  48.845  1.00  0.00     0.105 A 
HETATM   23  O   UNL     1      18.786  51.053  49.952  1.00  0.00    -0.323 OA
HETATM   24  O   UNL     1      16.977  52.387  49.077  1.00  0.00    -0.323 OA
HETATM   25  C   UNL     1      15.735  50.493  48.186  1.00  0.00     0.040 A 
HETATM   26  C   UNL     1      18.236  52.376  49.781  1.00  0.00     0.352 A 
HETATM   27  C   UNL     1      15.730  49.103  48.033  1.00  0.00     0.012 A 
ENDBRANCH  18  19
ENDBRANCH  15  18
ENDBRANCH  13  14
ENDBRANCH  12  13
ENDBRANCH   4  12
BRANCH   1  28
HETATM   28  C   UNL     1      25.150  44.336  50.113  1.00  0.00     0.237 C 
BRANCH  28  29
HETATM   29  C   UNL     1      25.411  44.582  51.594  1.00  0.00     0.240 C 
HETATM   30  N   UNL     1      26.656  45.140  51.835  1.00  0.00    -0.325 N 
HETATM   31  H   UNL     1      27.008  45.737  51.083  1.00  0.00     0.169 HD
HETATM   32  O   UNL     1      24.552  44.341  52.439  1.00  0.00    -0.271 OA
BRANCH  30  33
HETATM   33  C   UNL     1      27.275  45.269  53.098  1.00  0.00     0.042 A 
HETATM   34  C   UNL     1      26.996  46.297  54.021  1.00  0.00    -0.035 A 
HETATM   35  C   UNL     1      25.951  47.359  53.816  1.00  0.00     0.050 C 
HETATM   36  C   UNL     1      27.695  46.321  55.246  1.00  0.00     0.011 A 
HETATM   37  C   UNL     1      28.607  45.321  55.574  1.00  0.00     0.024 A 
HETATM   38  C   UNL     1      28.829  44.280  54.682  1.00  0.00     0.036 A 
HETATM   39  C   UNL     1      28.161  44.242  53.458  1.00  0.00     0.053 A 
HETATM   40 CL   UNL     1      29.942  43.031  55.090  1.00  0.00    -0.084 Cl
ENDBRANCH  30  33
ENDBRANCH  28  29
ENDBRANCH   1  28
TORSDOF 8
ENDMDL
MODEL 10
REMARK VINA RESULT:      -9.2      4.742     11.305
REMARK  8 active torsions:
REMARK  status: ('A' for Active; 'I' for Inactive)
REMARK    1  A    between atoms: C_3  and  N_4 
REMARK       I    between atoms: N_4  and  C_5 
REMARK    2  A    between atoms: C_5  and  C_6 
REMARK    3  A    between atoms: C_6  and  N_7 
REMARK    4  A    between atoms: N_10  and  C_11 
REMARK    5  A    between atoms: C_11  and  C_12 
REMARK    6  A    between atoms: C_12  and  C_13 
REMARK       I    between atoms: C_13  and  N_14 
REMARK    7  A    between atoms: N_14  and  C_15 
REMARK    8  A    between atoms: C_15  and  C_16 
ROOT
HETATM    1  N   UNL     1      22.143  47.464  48.139  1.00  0.00    -0.289 N 
HETATM    2  C   UNL     1      22.480  46.267  48.773  1.00  0.00     0.332 C 
HETATM    3  O   UNL     1      21.655  45.347  48.824  1.00  0.00    -0.246 OA
HETATM    4  N   UNL     1      23.764  46.153  49.336  1.00  0.00    -0.265 N 
HETATM    5  C   UNL     1      24.741  47.155  49.257  1.00  0.00     0.271 C 
HETATM    6  O   UNL     1      25.914  46.993  49.587  1.00  0.00    -0.266 OA
HETATM    7  C   UNL     1      24.250  48.400  48.735  1.00  0.00     0.100 A 
HETATM    8  C   UNL     1      23.002  48.555  48.198  1.00  0.00     0.062 A 
HETATM    9  S   UNL     1      25.176  49.824  48.690  1.00  0.00    -0.094 SA
HETATM   10  C   UNL     1      23.889  50.691  47.964  1.00  0.00     0.053 A 
HETATM   11  C   UNL     1      22.785  49.891  47.752  1.00  0.00     0.038 A 
ENDROOT
BRANCH   4  12
HETATM   12  C   UNL     1      24.076  44.819  49.881  1.00  0.00     0.146 C 
BRANCH  12  13
HETATM   13  C   UNL     1      24.569  44.706  51.321  1.00  0.00     0.123 C 
BRANCH  13  14
HETATM   14  C   UNL     1      25.928  44.049  51.403  1.00  0.00     0.219 C 
HETATM   15  N   UNL     1      26.087  43.314  52.554  1.00  0.00    -0.357 N 
HETATM   16  H   UNL     1      25.358  43.326  53.258  1.00  0.00     0.162 HD
HETATM   17  O   UNL     1      26.784  44.152  50.534  1.00  0.00    -0.274 OA
BRANCH  15  18
HETATM   18  C   UNL     1      27.282  42.555  52.837  1.00  0.00     0.161 C 
BRANCH  18  19
HETATM   19  C   UNL     1      28.120  43.287  53.852  1.00  0.00    -0.038 A 
HETATM   20  C   UNL     1      29.311  42.728  54.341  1.00  0.00     0.048 A 
HETATM   21  C   UNL     1      30.056  43.470  55.235  1.00  0.00     0.105 A 
HETATM   22  C   UNL     1      29.664  44.722  55.645  1.00  0.00     0.105 A 
HETATM   23  O   UNL     1      31.231  43.084  55.800  1.00  0.00    -0.323 OA
HETATM   24  O   UNL     1      30.543  45.282  56.518  1.00  0.00    -0.323 OA
HETATM   25  C   UNL     1      28.504  45.305  55.188  1.00  0.00     0.040 A 
HETATM   26  C   UNL     1      31.533  44.237  56.614  1.00  0.00     0.352 A 
HETATM   27  C   UNL     1      27.727  44.578  54.282  1.00  0.00     0.012 A 
ENDBRANCH  18  19
ENDBRANCH  15  18
ENDBRANCH  13  14
ENDBRANCH  12  13
ENDBRANCH   4  12
BRANCH   1  28
HETATM   28  C   UNL     1      20.891  47.498  47.389  1.00  0.00     0.237 C 
BRANCH  28  29
HETATM   29  C   UNL     1      19.785  48.256  48.114  1.00  0.00     0.240 C 
HETATM   30  N   UNL     1      19.571  49.522  47.593  1.00  0.00    -0.325 N 
HETATM   31  H   UNL     1      19.766  49.609  46.594  1.00  0.00     0.169 HD
HETATM   32  O   UNL     1      19.147  47.732  49.025  1.00  0.00    -0.271 OA
BRANCH  30  33
HETATM   33  C   UNL     1      18.788  50.538  48.185  1.00  0.00     0.042 A 
HETATM   34  C   UNL     1      19.138  51.232  49.361  1.00  0.00    -0.035 A 
HETATM   35  C   UNL     1      20.429  51.033  50.109  1.00  0.00     0.050 C 
HETATM   36  C   UNL     1      18.261  52.217  49.857  1.00  0.00     0.011 A 
HETATM   37  C   UNL     1      17.091  52.548  49.178  1.00  0.00     0.024 A 
HETATM   38  C   UNL     1      16.787  51.900  47.988  1.00  0.00     0.036 A 
HETATM   39  C   UNL     1      17.631  50.912  47.484  1.00  0.00     0.053 A 
HETATM   40 CL   UNL     1      15.352  52.319  47.134  1.00  0.00    -0.084 Cl
ENDBRANCH  30  33
ENDBRANCH  28  29
ENDBRANCH   1  28
TORSDOF 8
ENDMDL
