MODEL 1
REMARK VINA RESULT:      -9.7      0.000      0.000
REMARK  6 active torsions:
REMARK  status: ('A' for Active; 'I' for Inactive)
REMARK    1  A    between atoms: C_6  and  C_7 
REMARK    2  A    between atoms: C_7  and  C_8 
REMARK       I    between atoms: C_8  and  N_9 
REMARK    3  A    between atoms: N_9  and  C_10 
REMARK    4  A    between atoms: C_12  and  C_13 
REMARK       I    between atoms: C_13  and  N_14 
REMARK    5  A    between atoms: N_14  and  C_15 
REMARK    6  A    between atoms: C_15  and  C_16 
ROOT
HETATM    1  C   UNL     1      25.693  47.217  50.488  1.00  0.00     0.035 A 
HETATM    2  C   UNL     1      26.042  47.506  51.813  1.00  0.00     0.046 A 
HETATM    3  C   UNL     1      26.340  46.469  52.711  1.00  0.00     0.034 A 
HETATM    4  C   UNL     1      26.278  45.140  52.265  1.00  0.00     0.017 A 
HETATM    5  C   UNL     1      25.922  44.846  50.952  1.00  0.00     0.003 A 
HETATM    6  C   UNL     1      25.629  45.881  50.069  1.00  0.00     0.029 A 
ENDROOT
BRANCH   1   7
HETATM    7  N   UNL     1      25.376  48.191  49.525  1.00  0.00    -0.327 N 
HETATM    8  C   UNL     1      26.228  49.019  48.819  1.00  0.00     0.227 C 
HETATM    9  O   UNL     1      27.455  49.033  48.918  1.00  0.00    -0.273 OA
HETATM   10  H   UNL     1      24.394  48.256  49.245  1.00  0.00     0.169 HD
BRANCH   8  11
HETATM   11  C   UNL     1      25.516  50.040  47.936  1.00  0.00     0.164 C 
BRANCH  11  12
HETATM   12  C   UNL     1      24.029  50.074  48.096  1.00  0.00     0.065 A 
HETATM   13  N   UNL     1      23.267  49.050  47.674  1.00  0.00    -0.179 NA
HETATM   14  N   UNL     1      22.018  49.408  48.023  1.00  0.00    -0.282 N 
HETATM   15  C   UNL     1      21.952  50.618  48.653  1.00  0.00     0.026 A 
HETATM   16  H   UNL     1      21.256  48.773  47.808  1.00  0.00     0.189 HD
HETATM   17  C   UNL     1      20.677  51.197  49.135  1.00  0.00     0.070 C 
HETATM   18  C   UNL     1      23.247  51.081  48.709  1.00  0.00     0.055 A 
ENDBRANCH  11  12
ENDBRANCH   8  11
ENDBRANCH   1   7
BRANCH   3  19
HETATM   19  C   UNL     1      26.695  46.689  54.148  1.00  0.00     0.252 C 
HETATM   20  N   UNL     1      27.934  46.278  54.592  1.00  0.00    -0.353 N 
HETATM   21  H   UNL     1      28.510  45.665  54.033  1.00  0.00     0.163 HD
HETATM   22  O   UNL     1      25.881  47.226  54.895  1.00  0.00    -0.268 OA
BRANCH  20  23
HETATM   23  C   UNL     1      28.283  46.417  55.991  1.00  0.00     0.161 C 
BRANCH  23  24
HETATM   24  C   UNL     1      29.440  45.546  56.409  1.00  0.00    -0.041 A 
HETATM   25  C   UNL     1      30.022  45.656  57.681  1.00  0.00     0.009 A 
HETATM   26  C   UNL     1      31.045  44.789  58.073  1.00  0.00     0.001 A 
HETATM   27  C   UNL     1      31.486  43.790  57.207  1.00  0.00     0.000 A 
HETATM   28  C   UNL     1      30.905  43.657  55.949  1.00  0.00     0.001 A 
HETATM   29  C   UNL     1      29.886  44.527  55.552  1.00  0.00     0.009 A 
ENDBRANCH  23  24
ENDBRANCH  20  23
ENDBRANCH   3  19
TORSDOF 6
ENDMDL
MODEL 2
REMARK VINA RESULT:      -9.2      3.765      6.923
REMARK  6 active torsions:
REMARK  status: ('A' for Active; 'I' for Inactive)
REMARK    1  A    between atoms: C_6  and  C_7 
REMARK    2  A    between atoms: C_7  and  C_8 
REMARK       I    between atoms: C_8  and  N_9 
REMARK    3  A    between atoms: N_9  and  C_10 
REMARK    4  A    between atoms: C_12  and  C_13 
REMARK       I    between atoms: C_13  and  N_14 
REMARK    5  A    between atoms: N_14  and  C_15 
REMARK    6  A    between atoms: C_15  and  C_16 
ROOT
HETATM    1  C   UNL     1      26.553  44.649  50.684  1.00  0.00     0.035 A 
HETATM    2  C   UNL     1      26.840  44.840  52.042  1.00  0.00     0.046 A 
HETATM    3  C   UNL     1      26.515  46.052  52.672  1.00  0.00     0.034 A 
HETATM    4  C   UNL     1      25.903  47.069  51.923  1.00  0.00     0.017 A 
HETATM    5  C   UNL     1      25.625  46.888  50.571  1.00  0.00     0.003 A 
HETATM    6  C   UNL     1      25.952  45.683  49.956  1.00  0.00     0.029 A 
ENDROOT
BRANCH   1   7
HETATM    7  N   UNL     1      26.849  43.471  49.974  1.00  0.00    -0.327 N 
HETATM    8  C   UNL     1      26.135  42.289  49.924  1.00  0.00     0.227 C 
HETATM    9  O   UNL     1      25.076  42.069  50.512  1.00  0.00    -0.273 OA
HETATM   10  H   UNL     1      27.657  43.504  49.348  1.00  0.00     0.169 HD
BRANCH   8  11
HETATM   11  C   UNL     1      26.822  41.178  49.136  1.00  0.00     0.164 C 
BRANCH  11  12
HETATM   12  C   UNL     1      27.811  40.377  49.922  1.00  0.00     0.065 A 
HETATM   13  N   UNL     1      28.242  40.799  51.122  1.00  0.00    -0.179 NA
HETATM   14  N   UNL     1      29.064  39.819  51.538  1.00  0.00    -0.282 N 
HETATM   15  C   UNL     1      29.174  38.785  50.652  1.00  0.00     0.026 A 
HETATM   16  H   UNL     1      29.513  39.916  52.444  1.00  0.00     0.189 HD
HETATM   17  C   UNL     1      30.015  37.595  50.915  1.00  0.00     0.070 C 
HETATM   18  C   UNL     1      28.374  39.123  49.584  1.00  0.00     0.055 A 
ENDBRANCH  11  12
ENDBRANCH   8  11
ENDBRANCH   1   7
BRANCH   3  19
HETATM   19  C   UNL     1      26.810  46.348  54.108  1.00  0.00     0.252 C 
HETATM   20  N   UNL     1      28.090  46.139  54.575  1.00  0.00    -0.353 N 
HETATM   21  H   UNL     1      28.762  45.611  54.036  1.00  0.00     0.163 HD
HETATM   22  O   UNL     1      25.912  46.767  54.835  1.00  0.00    -0.268 OA
BRANCH  20  23
HETATM   23  C   UNL     1      28.392  46.354  55.976  1.00  0.00     0.161 C 
BRANCH  23  24
HETATM   24  C   UNL     1      29.542  45.516  56.476  1.00  0.00    -0.041 A 
HETATM   25  C   UNL     1      30.061  45.676  57.770  1.00  0.00     0.009 A 
HETATM   26  C   UNL     1      31.078  44.840  58.236  1.00  0.00     0.001 A 
HETATM   27  C   UNL     1      31.574  43.823  57.425  1.00  0.00     0.000 A 
HETATM   28  C   UNL     1      31.056  43.639  56.146  1.00  0.00     0.001 A 
HETATM   29  C   UNL     1      30.044  44.478  55.675  1.00  0.00     0.009 A 
ENDBRANCH  23  24
ENDBRANCH  20  23
ENDBRANCH   3  19
TORSDOF 6
ENDMDL
MODEL 3
REMARK VINA RESULT:      -9.0      2.227      9.945
REMARK  6 active torsions:
REMARK  status: ('A' for Active; 'I' for Inactive)
REMARK    1  A    between atoms: C_6  and  C_7 
REMARK    2  A    between atoms: C_7  and  C_8 
REMARK       I    between atoms: C_8  and  N_9 
REMARK    3  A    between atoms: N_9  and  C_10 
REMARK    4  A    between atoms: C_12  and  C_13 
REMARK       I    between atoms: C_13  and  N_14 
REMARK    5  A    between atoms: N_14  and  C_15 
REMARK    6  A    between atoms: C_15  and  C_16 
ROOT
HETATM    1  C   UNL     1      25.696  47.484  50.438  1.00  0.00     0.035 A 
HETATM    2  C   UNL     1      24.557  47.955  49.774  1.00  0.00     0.046 A 
HETATM    3  C   UNL     1      24.669  48.948  48.788  1.00  0.00     0.034 A 
HETATM    4  C   UNL     1      25.936  49.466  48.482  1.00  0.00     0.017 A 
HETATM    5  C   UNL     1      27.072  49.009  49.145  1.00  0.00     0.003 A 
HETATM    6  C   UNL     1      26.949  48.024  50.121  1.00  0.00     0.029 A 
ENDROOT
BRANCH   1   7
HETATM    7  N   UNL     1      25.674  46.496  51.439  1.00  0.00    -0.327 N 
HETATM    8  C   UNL     1      25.600  46.655  52.809  1.00  0.00     0.227 C 
HETATM    9  O   UNL     1      25.533  47.733  53.400  1.00  0.00    -0.273 OA
HETATM   10  H   UNL     1      25.631  45.524  51.123  1.00  0.00     0.169 HD
BRANCH   8  11
HETATM   11  C   UNL     1      25.716  45.354  53.596  1.00  0.00     0.164 C 
BRANCH  11  12
HETATM   12  C   UNL     1      27.034  44.660  53.464  1.00  0.00     0.065 A 
HETATM   13  N   UNL     1      27.506  44.301  52.257  1.00  0.00    -0.179 NA
HETATM   14  N   UNL     1      28.709  43.761  52.525  1.00  0.00    -0.282 N 
HETATM   15  C   UNL     1      29.026  43.763  53.853  1.00  0.00     0.026 A 
HETATM   16  H   UNL     1      29.268  43.418  51.749  1.00  0.00     0.189 HD
HETATM   17  C   UNL     1      30.308  43.230  54.368  1.00  0.00     0.070 C 
HETATM   18  C   UNL     1      27.950  44.336  54.492  1.00  0.00     0.055 A 
ENDBRANCH  11  12
ENDBRANCH   8  11
ENDBRANCH   1   7
BRANCH   3  19
HETATM   19  C   UNL     1      23.501  49.524  48.051  1.00  0.00     0.252 C 
HETATM   20  N   UNL     1      22.244  49.023  48.312  1.00  0.00    -0.353 N 
HETATM   21  H   UNL     1      22.123  48.161  48.824  1.00  0.00     0.163 HD
HETATM   22  O   UNL     1      23.688  50.424  47.235  1.00  0.00    -0.268 OA
BRANCH  20  23
HETATM   23  C   UNL     1      21.102  49.515  47.568  1.00  0.00     0.161 C 
BRANCH  23  24
HETATM   24  C   UNL     1      20.189  50.394  48.384  1.00  0.00    -0.041 A 
HETATM   25  C   UNL     1      19.856  51.694  47.972  1.00  0.00     0.009 A 
HETATM   26  C   UNL     1      18.951  52.463  48.706  1.00  0.00     0.001 A 
HETATM   27  C   UNL     1      18.352  51.938  49.849  1.00  0.00     0.000 A 
HETATM   28  C   UNL     1      18.658  50.643  50.260  1.00  0.00     0.001 A 
HETATM   29  C   UNL     1      19.568  49.874  49.531  1.00  0.00     0.009 A 
ENDBRANCH  23  24
ENDBRANCH  20  23
ENDBRANCH   3  19
TORSDOF 6
ENDMDL
MODEL 4
REMARK VINA RESULT:      -9.0      2.207      2.877
REMARK  6 active torsions:
REMARK  status: ('A' for Active; 'I' for Inactive)
REMARK    1  A    between atoms: C_6  and  C_7 
REMARK    2  A    between atoms: C_7  and  C_8 
REMARK       I    between atoms: C_8  and  N_9 
REMARK    3  A    between atoms: N_9  and  C_10 
REMARK    4  A    between atoms: C_12  and  C_13 
REMARK       I    between atoms: C_13  and  N_14 
REMARK    5  A    between atoms: N_14  and  C_15 
REMARK    6  A    between atoms: C_15  and  C_16 
ROOT
HETATM    1  C   UNL     1      26.364  44.911  50.119  1.00  0.00     0.035 A 
HETATM    2  C   UNL     1      27.437  44.477  50.908  1.00  0.00     0.046 A 
HETATM    3  C   UNL     1      27.457  43.172  51.424  1.00  0.00     0.034 A 
HETATM    4  C   UNL     1      26.385  42.310  51.144  1.00  0.00     0.017 A 
HETATM    5  C   UNL     1      25.311  42.739  50.369  1.00  0.00     0.003 A 
HETATM    6  C   UNL     1      25.301  44.035  49.862  1.00  0.00     0.029 A 
ENDROOT
BRANCH   1   7
HETATM    7  N   UNL     1      26.261  46.200  49.567  1.00  0.00    -0.327 N 
HETATM    8  C   UNL     1      26.256  47.421  50.215  1.00  0.00     0.227 C 
HETATM    9  O   UNL     1      26.350  47.584  51.431  1.00  0.00    -0.273 OA
HETATM   10  H   UNL     1      26.266  46.264  48.546  1.00  0.00     0.169 HD
BRANCH   8  11
HETATM   11  C   UNL     1      26.011  48.614  49.296  1.00  0.00     0.164 C 
BRANCH  11  12
HETATM   12  C   UNL     1      24.578  49.024  49.175  1.00  0.00     0.065 A 
HETATM   13  N   UNL     1      23.614  48.366  49.842  1.00  0.00    -0.179 NA
HETATM   14  N   UNL     1      22.488  49.035  49.533  1.00  0.00    -0.282 N 
HETATM   15  C   UNL     1      22.694  50.096  48.699  1.00  0.00     0.026 A 
HETATM   16  H   UNL     1      21.612  48.718  49.936  1.00  0.00     0.189 HD
HETATM   17  C   UNL     1      21.596  50.977  48.244  1.00  0.00     0.070 C 
HETATM   18  C   UNL     1      24.046  50.111  48.441  1.00  0.00     0.055 A 
ENDBRANCH  11  12
ENDBRANCH   8  11
ENDBRANCH   1   7
BRANCH   3  19
HETATM   19  C   UNL     1      28.550  42.638  52.295  1.00  0.00     0.252 C 
HETATM   20  N   UNL     1      29.204  43.509  53.141  1.00  0.00    -0.353 N 
HETATM   21  H   UNL     1      29.103  44.509  53.039  1.00  0.00     0.163 HD
HETATM   22  O   UNL     1      28.839  41.445  52.238  1.00  0.00    -0.268 OA
BRANCH  20  23
HETATM   23  C   UNL     1      30.310  43.037  53.948  1.00  0.00     0.161 C 
BRANCH  23  24
HETATM   24  C   UNL     1      30.400  43.712  55.294  1.00  0.00    -0.041 A 
HETATM   25  C   UNL     1      31.274  43.252  56.291  1.00  0.00     0.009 A 
HETATM   26  C   UNL     1      31.393  43.936  57.502  1.00  0.00     0.001 A 
HETATM   27  C   UNL     1      30.658  45.098  57.725  1.00  0.00     0.000 A 
HETATM   28  C   UNL     1      29.801  45.577  56.738  1.00  0.00     0.001 A 
HETATM   29  C   UNL     1      29.675  44.891  55.528  1.00  0.00     0.009 A 
ENDBRANCH  23  24
ENDBRANCH  20  23
ENDBRANCH   3  19
TORSDOF 6
ENDMDL
MODEL 5
REMARK VINA RESULT:      -9.0      2.213      3.753
REMARK  6 active torsions:
REMARK  status: ('A' for Active; 'I' for Inactive)
REMARK    1  A    between atoms: C_6  and  C_7 
REMARK    2  A    between atoms: C_7  and  C_8 
REMARK       I    between atoms: C_8  and  N_9 
REMARK    3  A    between atoms: N_9  and  C_10 
REMARK    4  A    between atoms: C_12  and  C_13 
REMARK       I    between atoms: C_13  and  N_14 
REMARK    5  A    between atoms: N_14  and  C_15 
REMARK    6  A    between atoms: C_15  and  C_16 
ROOT
HETATM    1  C   UNL     1      24.825  49.210  48.728  1.00  0.00     0.035 A 
HETATM    2  C   UNL     1      24.836  48.095  49.574  1.00  0.00     0.046 A 
HETATM    3  C   UNL     1      26.048  47.597  50.078  1.00  0.00     0.034 A 
HETATM    4  C   UNL     1      27.248  48.230  49.719  1.00  0.00     0.017 A 
HETATM    5  C   UNL     1      27.245  49.333  48.870  1.00  0.00     0.003 A 
HETATM    6  C   UNL     1      26.037  49.818  48.375  1.00  0.00     0.029 A 
ENDROOT
BRANCH   1   7
HETATM    7  N   UNL     1      23.659  49.770  48.175  1.00  0.00    -0.327 N 
HETATM    8  C   UNL     1      22.733  50.603  48.772  1.00  0.00     0.227 C 
HETATM    9  O   UNL     1      22.784  51.013  49.932  1.00  0.00    -0.273 OA
HETATM   10  H   UNL     1      23.502  49.609  47.176  1.00  0.00     0.169 HD
BRANCH   8  11
HETATM   11  C   UNL     1      21.525  50.923  47.897  1.00  0.00     0.164 C 
BRANCH  11  12
HETATM   12  C   UNL     1      20.245  51.115  48.646  1.00  0.00     0.065 A 
HETATM   13  N   UNL     1      19.817  50.195  49.528  1.00  0.00    -0.179 NA
HETATM   14  N   UNL     1      18.686  50.724  50.029  1.00  0.00    -0.282 N 
HETATM   15  C   UNL     1      18.375  51.946  49.505  1.00  0.00     0.026 A 
HETATM   16  H   UNL     1      18.179  50.199  50.735  1.00  0.00     0.189 HD
HETATM   17  C   UNL     1      17.181  52.714  49.925  1.00  0.00     0.070 C 
HETATM   18  C   UNL     1      19.369  52.226  48.595  1.00  0.00     0.055 A 
ENDBRANCH  11  12
ENDBRANCH   8  11
ENDBRANCH   1   7
BRANCH   3  19
HETATM   19  C   UNL     1      26.150  46.397  50.965  1.00  0.00     0.252 C 
HETATM   20  N   UNL     1      25.737  46.507  52.276  1.00  0.00    -0.353 N 
HETATM   21  H   UNL     1      25.564  47.411  52.692  1.00  0.00     0.163 HD
HETATM   22  O   UNL     1      26.598  45.347  50.509  1.00  0.00    -0.268 OA
BRANCH  20  23
HETATM   23  C   UNL     1      25.884  45.382  53.176  1.00  0.00     0.161 C 
BRANCH  23  24
HETATM   24  C   UNL     1      27.162  45.420  53.977  1.00  0.00    -0.041 A 
HETATM   25  C   UNL     1      27.466  46.495  54.826  1.00  0.00     0.009 A 
HETATM   26  C   UNL     1      28.620  46.474  55.613  1.00  0.00     0.001 A 
HETATM   27  C   UNL     1      29.472  45.373  55.577  1.00  0.00     0.000 A 
HETATM   28  C   UNL     1      29.173  44.291  54.753  1.00  0.00     0.001 A 
HETATM   29  C   UNL     1      28.023  44.312  53.960  1.00  0.00     0.009 A 
ENDBRANCH  23  24
ENDBRANCH  20  23
ENDBRANCH   3  19
TORSDOF 6
ENDMDL
MODEL 6
REMARK VINA RESULT:      -8.9      2.462      3.659
REMARK  6 active torsions:
REMARK  status: ('A' for Active; 'I' for Inactive)
REMARK    1  A    between atoms: C_6  and  C_7 
REMARK    2  A    between atoms: C_7  and  C_8 
REMARK       I    between atoms: C_8  and  N_9 
REMARK    3  A    between atoms: N_9  and  C_10 
REMARK    4  A    between atoms: C_12  and  C_13 
REMARK       I    between atoms: C_13  and  N_14 
REMARK    5  A    between atoms: N_14  and  C_15 
REMARK    6  A    between atoms: C_15  and  C_16 
ROOT
HETATM    1  C   UNL     1      24.114  47.560  49.609  1.00  0.00     0.035 A 
HETATM    2  C   UNL     1      24.733  46.371  50.015  1.00  0.00     0.046 A 
HETATM    3  C   UNL     1      26.132  46.281  50.067  1.00  0.00     0.034 A 
HETATM    4  C   UNL     1      26.903  47.396  49.701  1.00  0.00     0.017 A 
HETATM    5  C   UNL     1      26.293  48.577  49.287  1.00  0.00     0.003 A 
HETATM    6  C   UNL     1      24.904  48.655  49.239  1.00  0.00     0.029 A 
ENDROOT
BRANCH   1   7
HETATM    7  N   UNL     1      22.721  47.735  49.524  1.00  0.00    -0.327 N 
HETATM    8  C   UNL     1      21.892  47.561  48.432  1.00  0.00     0.227 C 
HETATM    9  O   UNL     1      22.254  47.205  47.311  1.00  0.00    -0.273 OA
HETATM   10  H   UNL     1      22.231  47.945  50.398  1.00  0.00     0.169 HD
BRANCH   8  11
HETATM   11  C   UNL     1      20.440  47.957  48.681  1.00  0.00     0.164 C 
BRANCH  11  12
HETATM   12  C   UNL     1      20.195  49.431  48.732  1.00  0.00     0.065 A 
HETATM   13  N   UNL     1      21.207  50.291  48.939  1.00  0.00    -0.179 NA
HETATM   14  N   UNL     1      20.624  51.503  48.872  1.00  0.00    -0.282 N 
HETATM   15  C   UNL     1      19.282  51.451  48.628  1.00  0.00     0.026 A 
HETATM   16  H   UNL     1      21.206  52.326  48.994  1.00  0.00     0.189 HD
HETATM   17  C   UNL     1      18.447  52.667  48.502  1.00  0.00     0.070 C 
HETATM   18  C   UNL     1      18.970  50.113  48.540  1.00  0.00     0.055 A 
ENDBRANCH  11  12
ENDBRANCH   8  11
ENDBRANCH   1   7
BRANCH   3  19
HETATM   19  C   UNL     1      26.873  45.043  50.464  1.00  0.00     0.252 C 
HETATM   20  N   UNL     1      27.016  44.762  51.806  1.00  0.00    -0.353 N 
HETATM   21  H   UNL     1      26.817  45.459  52.509  1.00  0.00     0.163 HD
HETATM   22  O   UNL     1      27.333  44.310  49.592  1.00  0.00    -0.268 OA
BRANCH  20  23
HETATM   23  C   UNL     1      27.784  43.606  52.223  1.00  0.00     0.161 C 
BRANCH  23  24
HETATM   24  C   UNL     1      28.686  43.880  53.401  1.00  0.00    -0.041 A 
HETATM   25  C   UNL     1      28.412  44.910  54.314  1.00  0.00     0.009 A 
HETATM   26  C   UNL     1      29.221  45.098  55.437  1.00  0.00     0.001 A 
HETATM   27  C   UNL     1      30.300  44.249  55.672  1.00  0.00     0.000 A 
HETATM   28  C   UNL     1      30.572  43.211  54.785  1.00  0.00     0.001 A 
HETATM   29  C   UNL     1      29.769  43.025  53.658  1.00  0.00     0.009 A 
ENDBRANCH  23  24
ENDBRANCH  20  23
ENDBRANCH   3  19
TORSDOF 6
ENDMDL
MODEL 7
REMARK VINA RESULT:      -8.9      2.319      4.143
REMARK  6 active torsions:
REMARK  status: ('A' for Active; 'I' for Inactive)
REMARK    1  A    between atoms: C_6  and  C_7 
REMARK    2  A    between atoms: C_7  and  C_8 
REMARK       I    between atoms: C_8  and  N_9 
REMARK    3  A    between atoms: N_9  and  C_10 
REMARK    4  A    between atoms: C_12  and  C_13 
REMARK       I    between atoms: C_13  and  N_14 
REMARK    5  A    between atoms: N_14  and  C_15 
REMARK    6  A    between atoms: C_15  and  C_16 
ROOT
HETATM    1  C   UNL     1      24.544  49.186  48.796  1.00  0.00     0.035 A 
HETATM    2  C   UNL     1      24.826  47.961  49.413  1.00  0.00     0.046 A 
HETATM    3  C   UNL     1      26.155  47.565  49.631  1.00  0.00     0.034 A 
HETATM    4  C   UNL     1      27.196  48.410  49.216  1.00  0.00     0.017 A 
HETATM    5  C   UNL     1      26.922  49.624  48.593  1.00  0.00     0.003 A 
HETATM    6  C   UNL     1      25.600  50.007  48.382  1.00  0.00     0.029 A 
ENDROOT
BRANCH   1   7
HETATM    7  N   UNL     1      23.244  49.657  48.536  1.00  0.00    -0.327 N 
HETATM    8  C   UNL     1      22.464  50.506  49.296  1.00  0.00     0.227 C 
HETATM    9  O   UNL     1      22.796  51.014  50.367  1.00  0.00    -0.273 OA
HETATM   10  H   UNL     1      22.838  49.407  47.630  1.00  0.00     0.169 HD
BRANCH   8  11
HETATM   11  C   UNL     1      21.052  50.709  48.755  1.00  0.00     0.164 C 
BRANCH  11  12
HETATM   12  C   UNL     1      20.153  49.523  48.897  1.00  0.00     0.065 A 
HETATM   13  N   UNL     1      20.637  48.336  49.302  1.00  0.00    -0.179 NA
HETATM   14  N   UNL     1      19.552  47.543  49.358  1.00  0.00    -0.282 N 
HETATM   15  C   UNL     1      18.393  48.176  49.008  1.00  0.00     0.026 A 
HETATM   16  H   UNL     1      19.672  46.579  49.653  1.00  0.00     0.189 HD
HETATM   17  C   UNL     1      17.079  47.494  49.013  1.00  0.00     0.070 C 
HETATM   18  C   UNL     1      18.754  49.467  48.695  1.00  0.00     0.055 A 
ENDBRANCH  11  12
ENDBRANCH   8  11
ENDBRANCH   1   7
BRANCH   3  19
HETATM   19  C   UNL     1      26.543  46.263  50.258  1.00  0.00     0.252 C 
HETATM   20  N   UNL     1      26.050  45.961  51.510  1.00  0.00    -0.353 N 
HETATM   21  H   UNL     1      25.612  46.669  52.082  1.00  0.00     0.163 HD
HETATM   22  O   UNL     1      27.288  45.499  49.649  1.00  0.00    -0.268 OA
BRANCH  20  23
HETATM   23  C   UNL     1      26.460  44.740  52.172  1.00  0.00     0.161 C 
BRANCH  23  24
HETATM   24  C   UNL     1      27.321  44.977  53.387  1.00  0.00    -0.041 A 
HETATM   25  C   UNL     1      28.344  44.087  53.750  1.00  0.00     0.009 A 
HETATM   26  C   UNL     1      29.175  44.365  54.837  1.00  0.00     0.001 A 
HETATM   27  C   UNL     1      29.010  45.542  55.562  1.00  0.00     0.000 A 
HETATM   28  C   UNL     1      28.012  46.444  55.202  1.00  0.00     0.001 A 
HETATM   29  C   UNL     1      27.174  46.166  54.120  1.00  0.00     0.009 A 
ENDBRANCH  23  24
ENDBRANCH  20  23
ENDBRANCH   3  19
TORSDOF 6
ENDMDL
MODEL 8
REMARK VINA RESULT:      -8.8      5.332      8.292
REMARK  6 active torsions:
REMARK  status: ('A' for Active; 'I' for Inactive)
REMARK    1  A    between atoms: C_6  and  C_7 
REMARK    2  A    between atoms: C_7  and  C_8 
REMARK       I    between atoms: C_8  and  N_9 
REMARK    3  A    between atoms: N_9  and  C_10 
REMARK    4  A    between atoms: C_12  and  C_13 
REMARK       I    between atoms: C_13  and  N_14 
REMARK    5  A    between atoms: N_14  and  C_15 
REMARK    6  A    between atoms: C_15  and  C_16 
ROOT
HETATM    1  C   UNL     1      26.493  41.570  50.221  1.00  0.00     0.035 A 
HETATM    2  C   UNL     1      27.076  42.537  51.050  1.00  0.00     0.046 A 
HETATM    3  C   UNL     1      26.295  43.566  51.600  1.00  0.00     0.034 A 
HETATM    4  C   UNL     1      24.924  43.614  51.303  1.00  0.00     0.017 A 
HETATM    5  C   UNL     1      24.341  42.662  50.472  1.00  0.00     0.003 A 
HETATM    6  C   UNL     1      25.125  41.646  49.932  1.00  0.00     0.029 A 
ENDROOT
BRANCH   1   7
HETATM    7  N   UNL     1      27.202  40.511  49.626  1.00  0.00    -0.327 N 
HETATM    8  C   UNL     1      27.906  40.501  48.437  1.00  0.00     0.227 C 
HETATM    9  O   UNL     1      28.038  41.461  47.678  1.00  0.00    -0.273 OA
HETATM   10  H   UNL     1      27.278  39.647  50.170  1.00  0.00     0.169 HD
BRANCH   8  11
HETATM   11  C   UNL     1      28.455  39.132  48.048  1.00  0.00     0.164 C 
BRANCH  11  12
HETATM   12  C   UNL     1      28.568  38.160  49.180  1.00  0.00     0.065 A 
HETATM   13  N   UNL     1      27.548  37.341  49.488  1.00  0.00    -0.179 NA
HETATM   14  N   UNL     1      28.023  36.595  50.502  1.00  0.00    -0.282 N 
HETATM   15  C   UNL     1      29.307  36.904  50.852  1.00  0.00     0.026 A 
HETATM   16  H   UNL     1      27.419  35.885  50.904  1.00  0.00     0.189 HD
HETATM   17  C   UNL     1      30.030  36.197  51.933  1.00  0.00     0.070 C 
HETATM   18  C   UNL     1      29.687  37.926  50.013  1.00  0.00     0.055 A 
ENDBRANCH  11  12
ENDBRANCH   8  11
ENDBRANCH   1   7
BRANCH   3  19
HETATM   19  C   UNL     1      26.842  44.651  52.471  1.00  0.00     0.252 C 
HETATM   20  N   UNL     1      27.666  44.303  53.520  1.00  0.00    -0.353 N 
HETATM   21  H   UNL     1      27.740  43.344  53.828  1.00  0.00     0.163 HD
HETATM   22  O   UNL     1      26.547  45.820  52.235  1.00  0.00    -0.268 OA
BRANCH  20  23
HETATM   23  C   UNL     1      28.159  45.324  54.421  1.00  0.00     0.161 C 
BRANCH  23  24
HETATM   24  C   UNL     1      29.227  44.828  55.362  1.00  0.00    -0.041 A 
HETATM   25  C   UNL     1      29.984  43.680  55.077  1.00  0.00     0.009 A 
HETATM   26  C   UNL     1      31.017  43.281  55.927  1.00  0.00     0.001 A 
HETATM   27  C   UNL     1      31.321  44.032  57.060  1.00  0.00     0.000 A 
HETATM   28  C   UNL     1      30.592  45.184  57.346  1.00  0.00     0.001 A 
HETATM   29  C   UNL     1      29.554  45.582  56.501  1.00  0.00     0.009 A 
ENDBRANCH  23  24
ENDBRANCH  20  23
ENDBRANCH   3  19
TORSDOF 6
ENDMDL
MODEL 9
REMARK VINA RESULT:      -8.8      2.395     10.048
REMARK  6 active torsions:
REMARK  status: ('A' for Active; 'I' for Inactive)
REMARK    1  A    between atoms: C_6  and  C_7 
REMARK    2  A    between atoms: C_7  and  C_8 
REMARK       I    between atoms: C_8  and  N_9 
REMARK    3  A    between atoms: N_9  and  C_10 
REMARK    4  A    between atoms: C_12  and  C_13 
REMARK       I    between atoms: C_13  and  N_14 
REMARK    5  A    between atoms: N_14  and  C_15 
REMARK    6  A    between atoms: C_15  and  C_16 
ROOT
HETATM    1  C   UNL     1      25.550  46.704  50.484  1.00  0.00     0.035 A 
HETATM    2  C   UNL     1      24.254  46.783  49.960  1.00  0.00     0.046 A 
HETATM    3  C   UNL     1      23.877  47.873  49.160  1.00  0.00     0.034 A 
HETATM    4  C   UNL     1      24.814  48.884  48.897  1.00  0.00     0.017 A 
HETATM    5  C   UNL     1      26.101  48.816  49.423  1.00  0.00     0.003 A 
HETATM    6  C   UNL     1      26.465  47.731  50.215  1.00  0.00     0.029 A 
ENDROOT
BRANCH   1   7
HETATM    7  N   UNL     1      26.010  45.652  51.297  1.00  0.00    -0.327 N 
HETATM    8  C   UNL     1      26.877  44.626  50.975  1.00  0.00     0.227 C 
HETATM    9  O   UNL     1      27.414  44.462  49.879  1.00  0.00    -0.273 OA
HETATM   10  H   UNL     1      25.734  45.679  52.282  1.00  0.00     0.169 HD
BRANCH   8  11
HETATM   11  C   UNL     1      27.060  43.593  52.082  1.00  0.00     0.164 C 
BRANCH  11  12
HETATM   12  C   UNL     1      27.945  44.033  53.205  1.00  0.00     0.065 A 
HETATM   13  N   UNL     1      27.665  45.144  53.908  1.00  0.00    -0.179 NA
HETATM   14  N   UNL     1      28.631  45.190  54.844  1.00  0.00    -0.282 N 
HETATM   15  C   UNL     1      29.514  44.151  54.769  1.00  0.00     0.026 A 
HETATM   16  H   UNL     1      28.621  45.955  55.511  1.00  0.00     0.189 HD
HETATM   17  C   UNL     1      30.647  43.998  55.711  1.00  0.00     0.070 C 
HETATM   18  C   UNL     1      29.098  43.383  53.705  1.00  0.00     0.055 A 
ENDBRANCH  11  12
ENDBRANCH   8  11
ENDBRANCH   1   7
BRANCH   3  19
HETATM   19  C   UNL     1      22.507  48.048  48.584  1.00  0.00     0.252 C 
HETATM   20  N   UNL     1      21.450  48.248  49.446  1.00  0.00    -0.353 N 
HETATM   21  H   UNL     1      21.547  48.080  50.437  1.00  0.00     0.163 HD
HETATM   22  O   UNL     1      22.356  48.008  47.365  1.00  0.00    -0.268 OA
BRANCH  20  23
HETATM   23  C   UNL     1      20.103  48.355  48.923  1.00  0.00     0.161 C 
BRANCH  23  24
HETATM   24  C   UNL     1      19.541  49.753  48.996  1.00  0.00    -0.041 A 
HETATM   25  C   UNL     1      18.444  50.063  49.814  1.00  0.00     0.009 A 
HETATM   26  C   UNL     1      17.987  51.379  49.922  1.00  0.00     0.001 A 
HETATM   27  C   UNL     1      18.632  52.402  49.231  1.00  0.00     0.000 A 
HETATM   28  C   UNL     1      19.734  52.112  48.431  1.00  0.00     0.001 A 
HETATM   29  C   UNL     1      20.189  50.796  48.316  1.00  0.00     0.009 A 
ENDBRANCH  23  24
ENDBRANCH  20  23
ENDBRANCH   3  19
TORSDOF 6
ENDMDL
MODEL 10
REMARK VINA RESULT:      -8.8      1.662      9.867
REMARK  6 active torsions:
REMARK  status: ('A' for Active; 'I' for Inactive)
REMARK    1  A    between atoms: C_6  and  C_7 
REMARK    2  A    between atoms: C_7  and  C_8 
REMARK       I    between atoms: C_8  and  N_9 
REMARK    3  A    between atoms: N_9  and  C_10 
REMARK    4  A    between atoms: C_12  and  C_13 
REMARK       I    between atoms: C_13  and  N_14 
REMARK    5  A    between atoms: N_14  and  C_15 
REMARK    6  A    between atoms: C_15  and  C_16 
ROOT
HETATM    1  C   UNL     1      26.040  46.271  52.210  1.00  0.00     0.035 A 
HETATM    2  C   UNL     1      25.491  47.297  51.430  1.00  0.00     0.046 A 
HETATM    3  C   UNL     1      24.498  47.012  50.480  1.00  0.00     0.034 A 
HETATM    4  C   UNL     1      24.068  45.686  50.317  1.00  0.00     0.017 A 
HETATM    5  C   UNL     1      24.618  44.661  51.082  1.00  0.00     0.003 A 
HETATM    6  C   UNL     1      25.601  44.954  52.022  1.00  0.00     0.029 A 
ENDROOT
BRANCH   1   7
HETATM    7  N   UNL     1      27.039  46.467  53.180  1.00  0.00    -0.327 N 
HETATM    8  C   UNL     1      26.907  46.916  54.480  1.00  0.00     0.227 C 
HETATM    9  O   UNL     1      25.847  47.225  55.024  1.00  0.00    -0.273 OA
HETATM   10  H   UNL     1      27.986  46.170  52.929  1.00  0.00     0.169 HD
BRANCH   8  11
HETATM   11  C   UNL     1      28.232  47.115  55.210  1.00  0.00     0.164 C 
BRANCH  11  12
HETATM   12  C   UNL     1      29.024  45.863  55.418  1.00  0.00     0.065 A 
HETATM   13  N   UNL     1      28.872  44.808  54.599  1.00  0.00    -0.179 NA
HETATM   14  N   UNL     1      29.763  43.909  55.056  1.00  0.00    -0.282 N 
HETATM   15  C   UNL     1      30.480  44.349  56.132  1.00  0.00     0.026 A 
HETATM   16  H   UNL     1      29.837  43.016  54.579  1.00  0.00     0.189 HD
HETATM   17  C   UNL     1      31.524  43.527  56.785  1.00  0.00     0.070 C 
HETATM   18  C   UNL     1      30.015  45.617  56.397  1.00  0.00     0.055 A 
ENDBRANCH  11  12
ENDBRANCH   8  11
ENDBRANCH   1   7
BRANCH   3  19
HETATM   19  C   UNL     1      23.879  48.043  49.589  1.00  0.00     0.252 C 
HETATM   20  N   UNL     1      22.632  47.792  49.058  1.00  0.00    -0.353 N 
HETATM   21  H   UNL     1      22.228  46.867  49.091  1.00  0.00     0.163 HD
HETATM   22  O   UNL     1      24.491  49.081  49.352  1.00  0.00    -0.268 OA
BRANCH  20  23
HETATM   23  C   UNL     1      22.034  48.740  48.140  1.00  0.00     0.161 C 
BRANCH  23  24
HETATM   24  C   UNL     1      20.990  49.619  48.783  1.00  0.00    -0.041 A 
HETATM   25  C   UNL     1      20.902  50.989  48.492  1.00  0.00     0.009 A 
HETATM   26  C   UNL     1      19.883  51.768  49.043  1.00  0.00     0.001 A 
HETATM   27  C   UNL     1      18.928  51.186  49.874  1.00  0.00     0.000 A 
HETATM   28  C   UNL     1      18.991  49.824  50.155  1.00  0.00     0.001 A 
HETATM   29  C   UNL     1      20.014  49.044  49.611  1.00  0.00     0.009 A 
ENDBRANCH  23  24
ENDBRANCH  20  23
ENDBRANCH   3  19
TORSDOF 6
ENDMDL
