MODEL 1
REMARK VINA RESULT:      -9.4      0.000      0.000
REMARK  6 active torsions:
REMARK  status: ('A' for Active; 'I' for Inactive)
REMARK    1  A    between atoms: CG_8  and  CB_9 
REMARK    2  A    between atoms: CB_9  and  CA_10 
REMARK    3  A    between atoms: CA_10  and  N_11 
REMARK    4  A    between atoms: CA_10  and  C_12 
REMARK       I    between atoms: N_11  and  C_18 
REMARK    5  A    between atoms: C_12  and  O_13 
REMARK       I    between atoms: C_18  and  N_19 
REMARK    6  A    between atoms: N_19  and  C_20 
ROOT
ATOM      1  CA  TRP A   1      26.853  44.987  53.562  1.00  0.00     0.114 C 
ENDROOT
BRANCH   1   2
ATOM      2  CB  TRP A   1      28.354  44.733  53.824  1.00  0.00     0.068 C 
BRANCH   2   3
ATOM      3  CG  TRP A   1      28.795  45.195  55.185  1.00  0.00    -0.028 A 
ATOM      4  CD2 TRP A   1      29.864  44.648  55.966  1.00  0.00    -0.002 A 
ATOM      5  CE3 TRP A   1      30.782  43.596  55.770  1.00  0.00     0.014 A 
ATOM      6  CE2 TRP A   1      29.940  45.387  57.147  1.00  0.00     0.042 A 
ATOM      7  CZ3 TRP A   1      31.742  43.327  56.752  1.00  0.00     0.001 A 
ATOM      8  CH2 TRP A   1      31.795  44.084  57.920  1.00  0.00     0.002 A 
ATOM      9  CZ2 TRP A   1      30.892  45.128  58.142  1.00  0.00     0.030 A 
ATOM     10  NE1 TRP A   1      28.957  46.345  57.089  1.00  0.00    -0.365 N 
ATOM     11  HE1 TRP A   1      28.788  47.035  57.807  1.00  0.00     0.165 HD
ATOM     12  CD1 TRP A   1      28.262  46.242  55.914  1.00  0.00     0.096 A 
ENDBRANCH   2   3
ENDBRANCH   1   2
BRANCH   1  13
ATOM     13  N   TRP A   1      26.576  45.344  52.163  1.00  0.00    -0.336 N 
HETATM   14  C   UNK A   0      26.070  46.581  51.818  1.00  0.00     0.321 C 
HETATM   15  N   UNK A   0      25.770  46.627  50.474  1.00  0.00    -0.309 N 
HETATM   16  O   UNK A   0      25.940  47.491  52.624  1.00  0.00    -0.247 OA
HETATM   17  H   UNK A   0      26.192  45.901  49.915  1.00  0.00     0.170 HD
ATOM     18  H   TRP A   1      26.218  44.577  51.612  1.00  0.00     0.164 HD
BRANCH  15  19
HETATM   19  C   UNK A   0      25.111  47.663  49.782  1.00  0.00     0.036 A 
HETATM   20  C   UNK A   0      23.724  47.714  49.611  1.00  0.00     0.039 A 
HETATM   21  C   UNK A   0      23.179  48.767  48.892  1.00  0.00    -0.024 A 
HETATM   22  C   UNK A   0      23.975  49.762  48.350  1.00  0.00    -0.026 A 
HETATM   23  C   UNK A   0      21.755  49.057  48.592  1.00  0.00     0.207 C 
HETATM   24  C   UNK A   0      23.114  50.759  47.667  1.00  0.00     0.207 C 
HETATM   25  C   UNK A   0      25.348  49.737  48.504  1.00  0.00     0.012 A 
HETATM   26  O   UNK A   0      21.797  50.162  47.656  1.00  0.00    -0.382 OA
HETATM   27  C   UNK A   0      25.915  48.675  49.219  1.00  0.00     0.030 A 
ENDBRANCH  15  19
ENDBRANCH   1  13
BRANCH   1  28
ATOM     28  C   TRP A   1      26.001  43.801  54.055  1.00  0.00     0.189 C 
BRANCH  28  29
ATOM     29  O   TRP A   1      24.766  43.752  53.341  1.00  0.00    -0.399 OA
ATOM     30  H   TRP A   1      24.958  43.326  52.486  1.00  0.00     0.209 HD
ENDBRANCH  28  29
ENDBRANCH   1  28
TORSDOF 6
ENDMDL
MODEL 2
REMARK VINA RESULT:      -9.1      1.949      2.561
REMARK  6 active torsions:
REMARK  status: ('A' for Active; 'I' for Inactive)
REMARK    1  A    between atoms: CG_8  and  CB_9 
REMARK    2  A    between atoms: CB_9  and  CA_10 
REMARK    3  A    between atoms: CA_10  and  N_11 
REMARK    4  A    between atoms: CA_10  and  C_12 
REMARK       I    between atoms: N_11  and  C_18 
REMARK    5  A    between atoms: C_12  and  O_13 
REMARK       I    between atoms: C_18  and  N_19 
REMARK    6  A    between atoms: N_19  and  C_20 
ROOT
ATOM      1  CA  TRP A   1      28.252  42.707  52.697  1.00  0.00     0.114 C 
ENDROOT
BRANCH   1   2
ATOM      2  CB  TRP A   1      29.590  43.108  53.356  1.00  0.00     0.068 C 
BRANCH   2   3
ATOM      3  CG  TRP A   1      29.417  44.105  54.468  1.00  0.00    -0.028 A 
ATOM      4  CD2 TRP A   1      30.163  44.156  55.690  1.00  0.00    -0.002 A 
ATOM      5  CE3 TRP A   1      31.205  43.379  56.236  1.00  0.00     0.014 A 
ATOM      6  CE2 TRP A   1      29.691  45.246  56.423  1.00  0.00     0.042 A 
ATOM      7  CZ3 TRP A   1      31.740  43.721  57.483  1.00  0.00     0.001 A 
ATOM      8  CH2 TRP A   1      31.250  44.817  58.189  1.00  0.00     0.002 A 
ATOM      9  CZ2 TRP A   1      30.212  45.600  57.674  1.00  0.00     0.030 A 
ATOM     10  NE1 TRP A   1      28.698  45.835  55.678  1.00  0.00    -0.365 N 
ATOM     11  HE1 TRP A   1      28.185  46.659  55.958  1.00  0.00     0.165 HD
ATOM     12  CD1 TRP A   1      28.525  45.160  54.500  1.00  0.00     0.096 A 
ENDBRANCH   2   3
ENDBRANCH   1   2
BRANCH   1  13
ATOM     13  N   TRP A   1      27.891  43.582  51.572  1.00  0.00    -0.336 N 
HETATM   14  C   UNK A   0      26.646  44.169  51.481  1.00  0.00     0.321 C 
HETATM   15  N   UNK A   0      26.503  44.828  50.279  1.00  0.00    -0.309 N 
HETATM   16  O   UNK A   0      25.816  44.103  52.378  1.00  0.00    -0.247 OA
HETATM   17  H   UNK A   0      27.364  45.014  49.788  1.00  0.00     0.170 HD
ATOM     18  H   TRP A   1      28.280  43.287  50.688  1.00  0.00     0.164 HD
BRANCH  15  19
HETATM   19  C   UNK A   0      25.334  45.424  49.766  1.00  0.00     0.036 A 
HETATM   20  C   UNK A   0      25.025  46.778  49.930  1.00  0.00     0.039 A 
HETATM   21  C   UNK A   0      23.835  47.259  49.405  1.00  0.00    -0.024 A 
HETATM   22  C   UNK A   0      22.958  46.432  48.725  1.00  0.00    -0.026 A 
HETATM   23  C   UNK A   0      23.294  48.640  49.426  1.00  0.00     0.207 C 
HETATM   24  C   UNK A   0      21.795  47.228  48.261  1.00  0.00     0.207 C 
HETATM   25  C   UNK A   0      23.237  45.090  48.549  1.00  0.00     0.012 A 
HETATM   26  O   UNK A   0      21.947  48.512  48.907  1.00  0.00    -0.382 OA
HETATM   27  C   UNK A   0      24.431  44.587  49.081  1.00  0.00     0.030 A 
ENDBRANCH  15  19
ENDBRANCH   1  13
BRANCH   1  28
ATOM     28  C   TRP A   1      28.254  41.214  52.315  1.00  0.00     0.189 C 
BRANCH  28  29
ATOM     29  O   TRP A   1      26.915  40.730  52.215  1.00  0.00    -0.399 OA
ATOM     30  H   TRP A   1      26.637  40.873  51.294  1.00  0.00     0.209 HD
ENDBRANCH  28  29
ENDBRANCH   1  28
TORSDOF 6
ENDMDL
MODEL 3
REMARK VINA RESULT:      -8.7      2.249      8.965
REMARK  6 active torsions:
REMARK  status: ('A' for Active; 'I' for Inactive)
REMARK    1  A    between atoms: CG_8  and  CB_9 
REMARK    2  A    between atoms: CB_9  and  CA_10 
REMARK    3  A    between atoms: CA_10  and  N_11 
REMARK    4  A    between atoms: CA_10  and  C_12 
REMARK       I    between atoms: N_11  and  C_18 
REMARK    5  A    between atoms: C_12  and  O_13 
REMARK       I    between atoms: C_18  and  N_19 
REMARK    6  A    between atoms: N_19  and  C_20 
ROOT
ATOM      1  CA  TRP A   1      25.364  44.825  50.743  1.00  0.00     0.114 C 
ENDROOT
BRANCH   1   2
ATOM      2  CB  TRP A   1      24.741  46.118  51.314  1.00  0.00     0.068 C 
BRANCH   2   3
ATOM      3  CG  TRP A   1      24.556  47.186  50.271  1.00  0.00    -0.028 A 
ATOM      4  CD2 TRP A   1      25.569  48.059  49.756  1.00  0.00    -0.002 A 
ATOM      5  CE3 TRP A   1      26.945  48.222  50.013  1.00  0.00     0.014 A 
ATOM      6  CE2 TRP A   1      24.969  48.874  48.796  1.00  0.00     0.042 A 
ATOM      7  CZ3 TRP A   1      27.670  49.184  49.301  1.00  0.00     0.001 A 
ATOM      8  CH2 TRP A   1      27.044  49.982  48.346  1.00  0.00     0.002 A 
ATOM      9  CZ2 TRP A   1      25.679  49.845  48.077  1.00  0.00     0.030 A 
ATOM     10  NE1 TRP A   1      23.645  48.514  48.729  1.00  0.00    -0.365 N 
ATOM     11  HE1 TRP A   1      22.970  48.931  48.104  1.00  0.00     0.165 HD
ATOM     12  CD1 TRP A   1      23.384  47.499  49.609  1.00  0.00     0.096 A 
ENDBRANCH   2   3
ENDBRANCH   1   2
BRANCH   1  13
ATOM     13  N   TRP A   1      26.680  44.527  51.326  1.00  0.00    -0.336 N 
HETATM   14  C   UNK A   0      26.921  44.659  52.679  1.00  0.00     0.321 C 
HETATM   15  N   UNK A   0      28.254  44.455  52.959  1.00  0.00    -0.309 N 
HETATM   16  O   UNK A   0      26.037  44.906  53.487  1.00  0.00    -0.247 OA
HETATM   17  H   UNK A   0      28.780  43.995  52.232  1.00  0.00     0.170 HD
ATOM     18  H   TRP A   1      27.455  44.794  50.736  1.00  0.00     0.164 HD
BRANCH  15  19
HETATM   19  C   UNK A   0      28.904  44.641  54.196  1.00  0.00     0.036 A 
HETATM   20  C   UNK A   0      29.854  43.751  54.708  1.00  0.00     0.039 A 
HETATM   21  C   UNK A   0      30.416  44.017  55.948  1.00  0.00    -0.024 A 
HETATM   22  C   UNK A   0      30.060  45.137  56.679  1.00  0.00    -0.026 A 
HETATM   23  C   UNK A   0      31.446  43.250  56.691  1.00  0.00     0.207 C 
HETATM   24  C   UNK A   0      30.841  45.167  57.940  1.00  0.00     0.207 C 
HETATM   25  C   UNK A   0      29.124  46.032  56.197  1.00  0.00     0.012 A 
HETATM   26  O   UNK A   0      31.502  43.881  57.994  1.00  0.00    -0.382 OA
HETATM   27  C   UNK A   0      28.541  45.774  54.951  1.00  0.00     0.030 A 
ENDBRANCH  15  19
ENDBRANCH   1  13
BRANCH   1  28
ATOM     28  C   TRP A   1      24.380  43.645  50.858  1.00  0.00     0.189 C 
BRANCH  28  29
ATOM     29  O   TRP A   1      23.036  44.126  50.898  1.00  0.00    -0.399 OA
ATOM     30  H   TRP A   1      22.511  43.523  50.343  1.00  0.00     0.209 HD
ENDBRANCH  28  29
ENDBRANCH   1  28
TORSDOF 6
ENDMDL
MODEL 4
REMARK VINA RESULT:      -8.6      3.401      8.860
REMARK  6 active torsions:
REMARK  status: ('A' for Active; 'I' for Inactive)
REMARK    1  A    between atoms: CG_8  and  CB_9 
REMARK    2  A    between atoms: CB_9  and  CA_10 
REMARK    3  A    between atoms: CA_10  and  N_11 
REMARK    4  A    between atoms: CA_10  and  C_12 
REMARK       I    between atoms: N_11  and  C_18 
REMARK    5  A    between atoms: C_12  and  O_13 
REMARK       I    between atoms: C_18  and  N_19 
REMARK    6  A    between atoms: N_19  and  C_20 
ROOT
ATOM      1  CA  TRP A   1      27.523  42.145  50.539  1.00  0.00     0.114 C 
ENDROOT
BRANCH   1   2
ATOM      2  CB  TRP A   1      26.590  42.636  49.410  1.00  0.00     0.068 C 
BRANCH   2   3
ATOM      3  CG  TRP A   1      25.622  43.691  49.871  1.00  0.00    -0.028 A 
ATOM      4  CD2 TRP A   1      25.850  45.105  49.895  1.00  0.00    -0.002 A 
ATOM      5  CE3 TRP A   1      26.938  45.928  49.543  1.00  0.00     0.014 A 
ATOM      6  CE2 TRP A   1      24.686  45.708  50.373  1.00  0.00     0.042 A 
ATOM      7  CZ3 TRP A   1      26.823  47.317  49.674  1.00  0.00     0.001 A 
ATOM      8  CH2 TRP A   1      25.647  47.890  50.152  1.00  0.00     0.002 A 
ATOM      9  CZ2 TRP A   1      24.555  47.096  50.514  1.00  0.00     0.030 A 
ATOM     10  NE1 TRP A   1      23.785  44.702  50.630  1.00  0.00    -0.365 N 
ATOM     11  HE1 TRP A   1      22.847  44.850  50.974  1.00  0.00     0.165 HD
ATOM     12  CD1 TRP A   1      24.335  43.485  50.331  1.00  0.00     0.096 A 
ENDBRANCH   2   3
ENDBRANCH   1   2
BRANCH   1  13
ATOM     13  N   TRP A   1      27.359  42.914  51.782  1.00  0.00    -0.336 N 
HETATM   14  C   UNK A   0      28.443  43.294  52.547  1.00  0.00     0.321 C 
HETATM   15  N   UNK A   0      28.028  43.880  53.723  1.00  0.00    -0.309 N 
HETATM   16  O   UNK A   0      29.599  43.129  52.184  1.00  0.00    -0.247 OA
HETATM   17  H   UNK A   0      27.066  44.183  53.735  1.00  0.00     0.170 HD
ATOM     18  H   TRP A   1      26.541  42.654  52.315  1.00  0.00     0.164 HD
BRANCH  15  19
HETATM   19  C   UNK A   0      28.833  44.267  54.813  1.00  0.00     0.036 A 
HETATM   20  C   UNK A   0      29.913  43.512  55.279  1.00  0.00     0.039 A 
HETATM   21  C   UNK A   0      30.627  43.973  56.375  1.00  0.00    -0.024 A 
HETATM   22  C   UNK A   0      30.294  45.158  57.008  1.00  0.00    -0.026 A 
HETATM   23  C   UNK A   0      31.810  43.374  57.040  1.00  0.00     0.207 C 
HETATM   24  C   UNK A   0      31.244  45.402  58.121  1.00  0.00     0.207 C 
HETATM   25  C   UNK A   0      29.231  45.924  56.570  1.00  0.00     0.012 A 
HETATM   26  O   UNK A   0      32.004  44.176  58.231  1.00  0.00    -0.382 OA
HETATM   27  C   UNK A   0      28.495  45.468  55.469  1.00  0.00     0.030 A 
ENDBRANCH  15  19
ENDBRANCH   1  13
BRANCH   1  28
ATOM     28  C   TRP A   1      27.374  40.627  50.753  1.00  0.00     0.189 C 
BRANCH  28  29
ATOM     29  O   TRP A   1      26.280  40.358  51.631  1.00  0.00    -0.399 OA
ATOM     30  H   TRP A   1      25.748  39.664  51.203  1.00  0.00     0.209 HD
ENDBRANCH  28  29
ENDBRANCH   1  28
TORSDOF 6
ENDMDL
MODEL 5
REMARK VINA RESULT:      -8.5      5.014      7.174
REMARK  6 active torsions:
REMARK  status: ('A' for Active; 'I' for Inactive)
REMARK    1  A    between atoms: CG_8  and  CB_9 
REMARK    2  A    between atoms: CB_9  and  CA_10 
REMARK    3  A    between atoms: CA_10  and  N_11 
REMARK    4  A    between atoms: CA_10  and  C_12 
REMARK       I    between atoms: N_11  and  C_18 
REMARK    5  A    between atoms: C_12  and  O_13 
REMARK       I    between atoms: C_18  and  N_19 
REMARK    6  A    between atoms: N_19  and  C_20 
ROOT
ATOM      1  CA  TRP A   1      26.712  43.540  53.304  1.00  0.00     0.114 C 
ENDROOT
BRANCH   1   2
ATOM      2  CB  TRP A   1      27.732  44.684  53.110  1.00  0.00     0.068 C 
BRANCH   2   3
ATOM      3  CG  TRP A   1      28.261  45.220  54.412  1.00  0.00    -0.028 A 
ATOM      4  CD2 TRP A   1      29.309  44.651  55.205  1.00  0.00    -0.002 A 
ATOM      5  CE3 TRP A   1      30.129  43.511  55.074  1.00  0.00     0.014 A 
ATOM      6  CE2 TRP A   1      29.491  45.478  56.314  1.00  0.00     0.042 A 
ATOM      7  CZ3 TRP A   1      31.099  43.244  56.047  1.00  0.00     0.001 A 
ATOM      8  CH2 TRP A   1      31.258  44.090  57.142  1.00  0.00     0.002 A 
ATOM      9  CZ2 TRP A   1      30.454  45.223  57.299  1.00  0.00     0.030 A 
ATOM     10  NE1 TRP A   1      28.589  46.509  56.202  1.00  0.00    -0.365 N 
ATOM     11  HE1 TRP A   1      28.505  47.269  56.862  1.00  0.00     0.165 HD
ATOM     12  CD1 TRP A   1      27.845  46.366  55.062  1.00  0.00     0.096 A 
ENDBRANCH   2   3
ENDBRANCH   1   2
BRANCH   1  13
ATOM     13  N   TRP A   1      27.268  42.223  52.959  1.00  0.00    -0.336 N 
HETATM   14  C   UNK A   0      27.380  41.805  51.648  1.00  0.00     0.321 C 
HETATM   15  N   UNK A   0      27.799  40.493  51.589  1.00  0.00    -0.309 N 
HETATM   16  O   UNK A   0      27.146  42.537  50.697  1.00  0.00    -0.247 OA
HETATM   17  H   UNK A   0      28.207  40.135  52.439  1.00  0.00     0.170 HD
ATOM     18  H   TRP A   1      27.018  41.493  53.611  1.00  0.00     0.164 HD
BRANCH  15  19
HETATM   19  C   UNK A   0      27.895  39.679  50.443  1.00  0.00     0.036 A 
HETATM   20  C   UNK A   0      26.835  39.474  49.554  1.00  0.00     0.039 A 
HETATM   21  C   UNK A   0      27.028  38.634  48.467  1.00  0.00    -0.024 A 
HETATM   22  C   UNK A   0      28.241  38.004  48.247  1.00  0.00    -0.026 A 
HETATM   23  C   UNK A   0      26.082  38.274  47.383  1.00  0.00     0.207 C 
HETATM   24  C   UNK A   0      28.155  37.199  47.004  1.00  0.00     0.207 C 
HETATM   25  C   UNK A   0      29.305  38.188  49.109  1.00  0.00     0.012 A 
HETATM   26  O   UNK A   0      26.754  37.225  46.645  1.00  0.00    -0.382 OA
HETATM   27  C   UNK A   0      29.123  39.027  50.216  1.00  0.00     0.030 A 
ENDBRANCH  15  19
ENDBRANCH   1  13
BRANCH   1  28
ATOM     28  C   TRP A   1      26.106  43.578  54.719  1.00  0.00     0.189 C 
BRANCH  28  29
ATOM     29  O   TRP A   1      24.710  43.873  54.649  1.00  0.00    -0.399 OA
ATOM     30  H   TRP A   1      24.244  43.023  54.730  1.00  0.00     0.209 HD
ENDBRANCH  28  29
ENDBRANCH   1  28
TORSDOF 6
ENDMDL
MODEL 6
REMARK VINA RESULT:      -8.4      6.120      8.148
REMARK  6 active torsions:
REMARK  status: ('A' for Active; 'I' for Inactive)
REMARK    1  A    between atoms: CG_8  and  CB_9 
REMARK    2  A    between atoms: CB_9  and  CA_10 
REMARK    3  A    between atoms: CA_10  and  N_11 
REMARK    4  A    between atoms: CA_10  and  C_12 
REMARK       I    between atoms: N_11  and  C_18 
REMARK    5  A    between atoms: C_12  and  O_13 
REMARK       I    between atoms: C_18  and  N_19 
REMARK    6  A    between atoms: N_19  and  C_20 
ROOT
ATOM      1  CA  TRP A   1      28.915  41.990  52.824  1.00  0.00     0.114 C 
ENDROOT
BRANCH   1   2
ATOM      2  CB  TRP A   1      30.121  42.836  53.289  1.00  0.00     0.068 C 
BRANCH   2   3
ATOM      3  CG  TRP A   1      29.741  43.895  54.286  1.00  0.00    -0.028 A 
ATOM      4  CD2 TRP A   1      30.289  44.065  55.598  1.00  0.00    -0.002 A 
ATOM      5  CE3 TRP A   1      31.266  43.380  56.349  1.00  0.00     0.014 A 
ATOM      6  CE2 TRP A   1      29.670  45.177  56.169  1.00  0.00     0.042 A 
ATOM      7  CZ3 TRP A   1      31.591  43.832  57.633  1.00  0.00     0.001 A 
ATOM      8  CH2 TRP A   1      30.956  44.947  58.175  1.00  0.00     0.002 A 
ATOM      9  CZ2 TRP A   1      29.980  45.640  57.455  1.00  0.00     0.030 A 
ATOM     10  NE1 TRP A   1      28.779  45.664  55.243  1.00  0.00    -0.365 N 
ATOM     11  HE1 TRP A   1      28.197  46.479  55.382  1.00  0.00     0.165 HD
ATOM     12  CD1 TRP A   1      28.813  44.903  54.106  1.00  0.00     0.096 A 
ENDBRANCH   2   3
ENDBRANCH   1   2
BRANCH   1  13
ATOM     13  N   TRP A   1      29.317  40.825  52.023  1.00  0.00    -0.336 N 
HETATM   14  C   UNK A   0      28.577  40.402  50.937  1.00  0.00     0.321 C 
HETATM   15  N   UNK A   0      29.077  39.220  50.436  1.00  0.00    -0.309 N 
HETATM   16  O   UNK A   0      27.624  41.032  50.500  1.00  0.00    -0.247 OA
HETATM   17  H   UNK A   0      30.013  38.991  50.733  1.00  0.00     0.170 HD
ATOM     18  H   TRP A   1      29.723  40.078  52.568  1.00  0.00     0.164 HD
BRANCH  15  19
HETATM   19  C   UNK A   0      28.512  38.414  49.428  1.00  0.00     0.036 A 
HETATM   20  C   UNK A   0      28.899  38.475  48.086  1.00  0.00     0.039 A 
HETATM   21  C   UNK A   0      28.262  37.652  47.169  1.00  0.00    -0.024 A 
HETATM   22  C   UNK A   0      27.261  36.778  47.556  1.00  0.00    -0.026 A 
HETATM   23  C   UNK A   0      28.500  37.515  45.711  1.00  0.00     0.207 C 
HETATM   24  C   UNK A   0      26.791  36.017  46.372  1.00  0.00     0.207 C 
HETATM   25  C   UNK A   0      26.858  36.696  48.875  1.00  0.00     0.012 A 
HETATM   26  O   UNK A   0      27.424  36.666  45.244  1.00  0.00    -0.382 OA
HETATM   27  C   UNK A   0      27.486  37.527  49.812  1.00  0.00     0.030 A 
ENDBRANCH  15  19
ENDBRANCH   1  13
BRANCH   1  28
ATOM     28  C   TRP A   1      28.017  41.612  54.017  1.00  0.00     0.189 C 
BRANCH  28  29
ATOM     29  O   TRP A   1      26.802  42.361  53.977  1.00  0.00    -0.399 OA
ATOM     30  H   TRP A   1      26.634  42.563  53.040  1.00  0.00     0.209 HD
ENDBRANCH  28  29
ENDBRANCH   1  28
TORSDOF 6
ENDMDL
MODEL 7
REMARK VINA RESULT:      -8.4      4.676      7.041
REMARK  6 active torsions:
REMARK  status: ('A' for Active; 'I' for Inactive)
REMARK    1  A    between atoms: CG_8  and  CB_9 
REMARK    2  A    between atoms: CB_9  and  CA_10 
REMARK    3  A    between atoms: CA_10  and  N_11 
REMARK    4  A    between atoms: CA_10  and  C_12 
REMARK       I    between atoms: N_11  and  C_18 
REMARK    5  A    between atoms: C_12  and  O_13 
REMARK       I    between atoms: C_18  and  N_19 
REMARK    6  A    between atoms: N_19  and  C_20 
ROOT
ATOM      1  CA  TRP A   1      25.970  44.790  52.641  1.00  0.00     0.114 C 
ENDROOT
BRANCH   1   2
ATOM      2  CB  TRP A   1      25.805  45.118  54.141  1.00  0.00     0.068 C 
BRANCH   2   3
ATOM      3  CG  TRP A   1      27.093  45.538  54.792  1.00  0.00    -0.028 A 
ATOM      4  CD2 TRP A   1      28.277  44.743  54.931  1.00  0.00    -0.002 A 
ATOM      5  CE3 TRP A   1      28.624  43.429  54.559  1.00  0.00     0.014 A 
ATOM      6  CE2 TRP A   1      29.235  45.528  55.574  1.00  0.00     0.042 A 
ATOM      7  CZ3 TRP A   1      29.910  42.951  54.834  1.00  0.00     0.001 A 
ATOM      8  CH2 TRP A   1      30.846  43.760  55.475  1.00  0.00     0.002 A 
ATOM      9  CZ2 TRP A   1      30.525  45.064  55.861  1.00  0.00     0.030 A 
ATOM     10  NE1 TRP A   1      28.658  46.752  55.818  1.00  0.00    -0.365 N 
ATOM     11  HE1 TRP A   1      29.129  47.527  56.263  1.00  0.00     0.165 HD
ATOM     12  CD1 TRP A   1      27.372  46.771  55.351  1.00  0.00     0.096 A 
ENDBRANCH   2   3
ENDBRANCH   1   2
BRANCH   1  13
ATOM     13  N   TRP A   1      25.852  43.352  52.360  1.00  0.00    -0.336 N 
HETATM   14  C   UNK A   0      26.642  42.731  51.414  1.00  0.00     0.321 C 
HETATM   15  N   UNK A   0      26.253  41.421  51.238  1.00  0.00    -0.309 N 
HETATM   16  O   UNK A   0      27.564  43.299  50.845  1.00  0.00    -0.247 OA
HETATM   17  H   UNK A   0      25.673  41.044  51.971  1.00  0.00     0.170 HD
ATOM     18  H   TRP A   1      24.904  43.006  52.406  1.00  0.00     0.164 HD
BRANCH  15  19
HETATM   19  C   UNK A   0      26.724  40.514  50.267  1.00  0.00     0.036 A 
HETATM   20  C   UNK A   0      27.966  39.875  50.348  1.00  0.00     0.039 A 
HETATM   21  C   UNK A   0      28.343  39.018  49.325  1.00  0.00    -0.024 A 
HETATM   22  C   UNK A   0      27.520  38.784  48.238  1.00  0.00    -0.026 A 
HETATM   23  C   UNK A   0      29.582  38.215  49.188  1.00  0.00     0.207 C 
HETATM   24  C   UNK A   0      28.175  37.810  47.329  1.00  0.00     0.207 C 
HETATM   25  C   UNK A   0      26.288  39.402  48.131  1.00  0.00     0.012 A 
HETATM   26  O   UNK A   0      29.518  37.671  47.846  1.00  0.00    -0.382 OA
HETATM   27  C   UNK A   0      25.896  40.277  49.151  1.00  0.00     0.030 A 
ENDBRANCH  15  19
ENDBRANCH   1  13
BRANCH   1  28
ATOM     28  C   TRP A   1      25.018  45.645  51.784  1.00  0.00     0.189 C 
BRANCH  28  29
ATOM     29  O   TRP A   1      23.864  44.885  51.421  1.00  0.00    -0.399 OA
ATOM     30  H   TRP A   1      23.400  45.398  50.737  1.00  0.00     0.209 HD
ENDBRANCH  28  29
ENDBRANCH   1  28
TORSDOF 6
ENDMDL
MODEL 8
REMARK VINA RESULT:      -8.3      4.092      6.204
REMARK  6 active torsions:
REMARK  status: ('A' for Active; 'I' for Inactive)
REMARK    1  A    between atoms: CG_8  and  CB_9 
REMARK    2  A    between atoms: CB_9  and  CA_10 
REMARK    3  A    between atoms: CA_10  and  N_11 
REMARK    4  A    between atoms: CA_10  and  C_12 
REMARK       I    between atoms: N_11  and  C_18 
REMARK    5  A    between atoms: C_12  and  O_13 
REMARK       I    between atoms: C_18  and  N_19 
REMARK    6  A    between atoms: N_19  and  C_20 
ROOT
ATOM      1  CA  TRP A   1      25.752  48.602  48.948  1.00  0.00     0.114 C 
ENDROOT
BRANCH   1   2
ATOM      2  CB  TRP A   1      26.778  47.851  49.826  1.00  0.00     0.068 C 
BRANCH   2   3
ATOM      3  CG  TRP A   1      26.243  46.556  50.370  1.00  0.00    -0.028 A 
ATOM      4  CD2 TRP A   1      26.046  46.228  51.750  1.00  0.00    -0.002 A 
ATOM      5  CE3 TRP A   1      26.262  46.916  52.962  1.00  0.00     0.014 A 
ATOM      6  CE2 TRP A   1      25.514  44.939  51.803  1.00  0.00     0.042 A 
ATOM      7  CZ3 TRP A   1      25.935  46.297  54.174  1.00  0.00     0.001 A 
ATOM      8  CH2 TRP A   1      25.403  45.010  54.193  1.00  0.00     0.002 A 
ATOM      9  CZ2 TRP A   1      25.185  44.304  53.007  1.00  0.00     0.030 A 
ATOM     10  NE1 TRP A   1      25.392  44.498  50.507  1.00  0.00    -0.365 N 
ATOM     11  HE1 TRP A   1      25.019  43.598  50.242  1.00  0.00     0.165 HD
ATOM     12  CD1 TRP A   1      25.825  45.461  49.636  1.00  0.00     0.096 A 
ENDBRANCH   2   3
ENDBRANCH   1   2
BRANCH   1  13
ATOM     13  N   TRP A   1      24.478  48.834  49.643  1.00  0.00    -0.336 N 
HETATM   14  C   UNK A   0      23.295  48.999  48.950  1.00  0.00     0.321 C 
HETATM   15  N   UNK A   0      22.271  49.337  49.808  1.00  0.00    -0.309 N 
HETATM   16  O   UNK A   0      23.209  48.841  47.741  1.00  0.00    -0.247 OA
HETATM   17  H   UNK A   0      22.451  49.154  50.783  1.00  0.00     0.170 HD
ATOM     18  H   TRP A   1      24.564  49.412  50.467  1.00  0.00     0.164 HD
BRANCH  15  19
HETATM   19  C   UNK A   0      20.960  49.720  49.462  1.00  0.00     0.036 A 
HETATM   20  C   UNK A   0      20.606  51.028  49.116  1.00  0.00     0.039 A 
HETATM   21  C   UNK A   0      19.280  51.302  48.814  1.00  0.00    -0.024 A 
HETATM   22  C   UNK A   0      18.312  50.314  48.845  1.00  0.00    -0.026 A 
HETATM   23  C   UNK A   0      18.661  52.586  48.403  1.00  0.00     0.207 C 
HETATM   24  C   UNK A   0      17.005  50.897  48.453  1.00  0.00     0.207 C 
HETATM   25  C   UNK A   0      18.633  49.013  49.184  1.00  0.00     0.012 A 
HETATM   26  O   UNK A   0      17.236  52.324  48.413  1.00  0.00    -0.382 OA
HETATM   27  C   UNK A   0      19.965  48.721  49.500  1.00  0.00     0.030 A 
ENDBRANCH  15  19
ENDBRANCH   1  13
BRANCH   1  28
ATOM     28  C   TRP A   1      26.363  49.894  48.374  1.00  0.00     0.189 C 
BRANCH  28  29
ATOM     29  O   TRP A   1      25.651  50.298  47.204  1.00  0.00    -0.399 OA
ATOM     30  H   TRP A   1      24.719  50.061  47.352  1.00  0.00     0.209 HD
ENDBRANCH  28  29
ENDBRANCH   1  28
TORSDOF 6
ENDMDL
MODEL 9
REMARK VINA RESULT:      -8.3      6.722     10.285
REMARK  6 active torsions:
REMARK  status: ('A' for Active; 'I' for Inactive)
REMARK    1  A    between atoms: CG_8  and  CB_9 
REMARK    2  A    between atoms: CB_9  and  CA_10 
REMARK    3  A    between atoms: CA_10  and  N_11 
REMARK    4  A    between atoms: CA_10  and  C_12 
REMARK       I    between atoms: N_11  and  C_18 
REMARK    5  A    between atoms: C_12  and  O_13 
REMARK       I    between atoms: C_18  and  N_19 
REMARK    6  A    between atoms: N_19  and  C_20 
ROOT
ATOM      1  CA  TRP A   1      28.964  39.000  50.167  1.00  0.00     0.114 C 
ENDROOT
BRANCH   1   2
ATOM      2  CB  TRP A   1      27.571  38.621  49.617  1.00  0.00     0.068 C 
BRANCH   2   3
ATOM      3  CG  TRP A   1      27.602  38.243  48.162  1.00  0.00    -0.028 A 
ATOM      4  CD2 TRP A   1      27.826  39.127  47.057  1.00  0.00    -0.002 A 
ATOM      5  CE3 TRP A   1      28.064  40.512  46.941  1.00  0.00     0.014 A 
ATOM      6  CE2 TRP A   1      27.793  38.358  45.893  1.00  0.00     0.042 A 
ATOM      7  CZ3 TRP A   1      28.266  41.073  45.676  1.00  0.00     0.001 A 
ATOM      8  CH2 TRP A   1      28.230  40.279  44.532  1.00  0.00     0.002 A 
ATOM      9  CZ2 TRP A   1      27.989  38.905  44.618  1.00  0.00     0.030 A 
ATOM     10  NE1 TRP A   1      27.558  37.058  46.273  1.00  0.00    -0.365 N 
ATOM     11  HE1 TRP A   1      27.497  36.278  45.635  1.00  0.00     0.165 HD
ATOM     12  CD1 TRP A   1      27.443  36.976  47.634  1.00  0.00     0.096 A 
ENDBRANCH   2   3
ENDBRANCH   1   2
BRANCH   1  13
ATOM     13  N   TRP A   1      28.909  39.499  51.549  1.00  0.00    -0.336 N 
HETATM   14  C   UNK A   0      28.668  40.829  51.830  1.00  0.00     0.321 C 
HETATM   15  N   UNK A   0      28.799  41.073  53.180  1.00  0.00    -0.309 N 
HETATM   16  O   UNK A   0      28.365  41.643  50.969  1.00  0.00    -0.247 OA
HETATM   17  H   UNK A   0      28.777  40.254  53.768  1.00  0.00     0.170 HD
ATOM     18  H   TRP A   1      29.571  39.054  52.168  1.00  0.00     0.164 HD
BRANCH  15  19
HETATM   19  C   UNK A   0      28.768  42.325  53.827  1.00  0.00     0.036 A 
HETATM   20  C   UNK A   0      29.850  42.849  54.541  1.00  0.00     0.039 A 
HETATM   21  C   UNK A   0      29.705  44.082  55.161  1.00  0.00    -0.024 A 
HETATM   22  C   UNK A   0      28.522  44.796  55.083  1.00  0.00    -0.026 A 
HETATM   23  C   UNK A   0      30.696  44.854  55.950  1.00  0.00     0.207 C 
HETATM   24  C   UNK A   0      28.676  46.078  55.815  1.00  0.00     0.207 C 
HETATM   25  C   UNK A   0      27.437  44.302  54.384  1.00  0.00     0.012 A 
HETATM   26  O   UNK A   0      29.940  45.957  56.507  1.00  0.00    -0.382 OA
HETATM   27  C   UNK A   0      27.564  43.055  53.760  1.00  0.00     0.030 A 
ENDBRANCH  15  19
ENDBRANCH   1  13
BRANCH   1  28
ATOM     28  C   TRP A   1      29.959  37.837  49.993  1.00  0.00     0.189 C 
BRANCH  28  29
ATOM     29  O   TRP A   1      31.255  38.342  49.670  1.00  0.00    -0.399 OA
ATOM     30  H   TRP A   1      31.266  39.273  49.951  1.00  0.00     0.209 HD
ENDBRANCH  28  29
ENDBRANCH   1  28
TORSDOF 6
ENDMDL
MODEL 10
REMARK VINA RESULT:      -8.3      2.611      4.277
REMARK  6 active torsions:
REMARK  status: ('A' for Active; 'I' for Inactive)
REMARK    1  A    between atoms: CG_8  and  CB_9 
REMARK    2  A    between atoms: CB_9  and  CA_10 
REMARK    3  A    between atoms: CA_10  and  N_11 
REMARK    4  A    between atoms: CA_10  and  C_12 
REMARK       I    between atoms: N_11  and  C_18 
REMARK    5  A    between atoms: C_12  and  O_13 
REMARK       I    between atoms: C_18  and  N_19 
REMARK    6  A    between atoms: N_19  and  C_20 
ROOT
ATOM      1  CA  TRP A   1      25.196  45.768  50.249  1.00  0.00     0.114 C 
ENDROOT
BRANCH   1   2
ATOM      2  CB  TRP A   1      24.962  45.727  51.775  1.00  0.00     0.068 C 
BRANCH   2   3
ATOM      3  CG  TRP A   1      26.098  45.085  52.522  1.00  0.00    -0.028 A 
ATOM      4  CD2 TRP A   1      26.930  45.709  53.507  1.00  0.00    -0.002 A 
ATOM      5  CE3 TRP A   1      26.986  47.001  54.067  1.00  0.00     0.014 A 
ATOM      6  CE2 TRP A   1      27.838  44.749  53.956  1.00  0.00     0.042 A 
ATOM      7  CZ3 TRP A   1      27.938  47.286  55.053  1.00  0.00     0.001 A 
ATOM      8  CH2 TRP A   1      28.830  46.306  55.482  1.00  0.00     0.002 A 
ATOM      9  CZ2 TRP A   1      28.800  45.018  54.939  1.00  0.00     0.030 A 
ATOM     10  NE1 TRP A   1      27.571  43.588  53.272  1.00  0.00    -0.365 N 
ATOM     11  HE1 TRP A   1      28.068  42.719  53.405  1.00  0.00     0.165 HD
ATOM     12  CD1 TRP A   1      26.526  43.776  52.408  1.00  0.00     0.096 A 
ENDBRANCH   2   3
ENDBRANCH   1   2
BRANCH   1  13
ATOM     13  N   TRP A   1      24.020  46.250  49.510  1.00  0.00    -0.336 N 
HETATM   14  C   UNK A   0      23.577  47.552  49.622  1.00  0.00     0.321 C 
HETATM   15  N   UNK A   0      22.389  47.723  48.945  1.00  0.00    -0.309 N 
HETATM   16  O   UNK A   0      24.195  48.411  50.235  1.00  0.00    -0.247 OA
HETATM   17  H   UNK A   0      22.169  47.001  48.277  1.00  0.00     0.170 HD
ATOM     18  H   TRP A   1      23.284  45.563  49.426  1.00  0.00     0.164 HD
BRANCH  15  19
HETATM   19  C   UNK A   0      21.564  48.866  48.945  1.00  0.00     0.036 A 
HETATM   20  C   UNK A   0      20.296  48.900  49.533  1.00  0.00     0.039 A 
HETATM   21  C   UNK A   0      19.556  50.071  49.456  1.00  0.00    -0.024 A 
HETATM   22  C   UNK A   0      20.048  51.196  48.817  1.00  0.00    -0.026 A 
HETATM   23  C   UNK A   0      18.212  50.365  50.009  1.00  0.00     0.207 C 
HETATM   24  C   UNK A   0      19.052  52.291  48.920  1.00  0.00     0.207 C 
HETATM   25  C   UNK A   0      21.298  51.191  48.228  1.00  0.00     0.012 A 
HETATM   26  O   UNK A   0      17.867  51.661  49.460  1.00  0.00    -0.382 OA
HETATM   27  C   UNK A   0      22.053  50.014  48.290  1.00  0.00     0.030 A 
ENDBRANCH  15  19
ENDBRANCH   1  13
BRANCH   1  28
ATOM     28  C   TRP A   1      26.476  46.555  49.911  1.00  0.00     0.189 C 
BRANCH  28  29
ATOM     29  O   TRP A   1      27.440  45.692  49.307  1.00  0.00    -0.399 OA
ATOM     30  H   TRP A   1      27.780  45.119  50.016  1.00  0.00     0.209 HD
ENDBRANCH  28  29
ENDBRANCH   1  28
TORSDOF 6
ENDMDL
