MODEL 1
REMARK VINA RESULT:      -9.8      0.000      0.000
REMARK  7 active torsions:
REMARK  status: ('A' for Active; 'I' for Inactive)
REMARK    1  A    between atoms: S_2  and  C_3 
REMARK    2  A    between atoms: C_3  and  C_4 
REMARK    3  A    between atoms: C_4  and  C_5 
REMARK    4  A    between atoms: C_5  and  N_6 
REMARK    5  A    between atoms: C_5  and  C_26 
REMARK       I    between atoms: N_6  and  C_7 
REMARK    6  A    between atoms: C_7  and  C_8 
REMARK    7  A    between atoms: C_8  and  N_9 
ROOT
HETATM    1  N   UNL     1      22.549  44.687  49.835  1.00  0.00    -0.348 N 
HETATM    2  C   UNL     1      22.906  43.350  49.845  1.00  0.00     0.236 C 
HETATM    3  O   UNL     1      22.504  42.544  49.013  1.00  0.00    -0.272 OA
HETATM    4  H   UNL     1      23.295  45.290  50.179  1.00  0.00     0.163 HD
ENDROOT
BRANCH   2   5
HETATM    5  C   UNL     1      23.997  42.966  50.847  1.00  0.00     0.239 C 
BRANCH   5   6
HETATM    6  N   UNL     1      24.933  44.024  51.171  1.00  0.00    -0.259 N 
HETATM    7  C   UNL     1      25.765  44.618  50.281  1.00  0.00     0.326 A 
HETATM    8  O   UNL     1      25.723  44.493  49.068  1.00  0.00    -0.247 OA
HETATM    9  N   UNL     1      26.634  45.435  50.952  1.00  0.00    -0.320 N 
HETATM   10  C   UNL     1      26.442  45.395  52.390  1.00  0.00     0.144 A 
HETATM   11  H   UNL     1      27.405  45.894  50.484  1.00  0.00     0.165 HD
HETATM   12  C   UNL     1      27.630  44.766  53.108  1.00  0.00    -0.014 A 
HETATM   13  C   UNL     1      26.084  46.802  52.888  1.00  0.00     0.047 C 
HETATM   14  C   UNL     1      25.205  44.457  52.441  1.00  0.00     0.261 A 
HETATM   15  C   UNL     1      28.090  45.289  54.335  1.00  0.00    -0.049 A 
HETATM   16  C   UNL     1      28.249  43.606  52.599  1.00  0.00     0.011 A 
HETATM   17  C   UNL     1      29.151  44.659  55.007  1.00  0.00     0.007 A 
HETATM   18  C   UNL     1      27.514  46.549  54.934  1.00  0.00     0.039 C 
HETATM   19  C   UNL     1      29.744  43.511  54.488  1.00  0.00     0.001 A 
HETATM   20  C   UNL     1      29.295  42.986  53.283  1.00  0.00     0.001 A 
HETATM   21  C   UNL     1      26.125  46.891  54.409  1.00  0.00     0.008 C 
HETATM   22  O   UNL     1      24.591  44.129  53.448  1.00  0.00    -0.270 OA
ENDBRANCH   5   6
ENDBRANCH   2   5
BRANCH   1  23
HETATM   23  C   UNL     1      21.788  45.271  48.727  1.00  0.00     0.155 C 
BRANCH  23  24
HETATM   24  C   UNL     1      20.271  44.993  48.689  1.00  0.00     0.043 C 
BRANCH  24  25
HETATM   25  C   UNL     1      19.682  44.831  47.291  1.00  0.00     0.076 C 
BRANCH  25  26
HETATM   26  S   UNL     1      18.675  46.303  46.892  1.00  0.00    -0.173 SA
HETATM   27  C   UNL     1      17.395  46.126  48.154  1.00  0.00     0.089 C 
ENDBRANCH  25  26
ENDBRANCH  24  25
ENDBRANCH  23  24
BRANCH  23  28
HETATM   28  C   UNL     1      22.065  46.752  48.669  1.00  0.00     0.128 A 
HETATM   29  N   UNL     1      23.088  47.327  48.066  1.00  0.00    -0.231 NA
HETATM   30  C   UNL     1      22.962  48.672  48.309  1.00  0.00     0.085 A 
HETATM   31  C   UNL     1      21.832  48.932  49.075  1.00  0.00     0.062 A 
HETATM   32  C   UNL     1      23.783  49.736  47.914  1.00  0.00     0.034 A 
HETATM   33  N   UNL     1      21.266  47.700  49.267  1.00  0.00    -0.341 N 
HETATM   34  C   UNL     1      21.471  50.214  49.497  1.00  0.00     0.032 A 
HETATM   35  H   UNL     1      20.429  47.506  49.796  1.00  0.00     0.167 HD
HETATM   36  C   UNL     1      22.310  51.263  49.101  1.00  0.00     0.002 A 
HETATM   37  C   UNL     1      23.445  51.032  48.320  1.00  0.00     0.002 A 
ENDBRANCH  23  28
ENDBRANCH   1  23
TORSDOF 7
ENDMDL
MODEL 2
REMARK VINA RESULT:      -9.8      2.053      3.533
REMARK  7 active torsions:
REMARK  status: ('A' for Active; 'I' for Inactive)
REMARK    1  A    between atoms: S_2  and  C_3 
REMARK    2  A    between atoms: C_3  and  C_4 
REMARK    3  A    between atoms: C_4  and  C_5 
REMARK    4  A    between atoms: C_5  and  N_6 
REMARK    5  A    between atoms: C_5  and  C_26 
REMARK       I    between atoms: N_6  and  C_7 
REMARK    6  A    between atoms: C_7  and  C_8 
REMARK    7  A    between atoms: C_8  and  N_9 
ROOT
HETATM    1  N   UNL     1      23.755  46.362  50.047  1.00  0.00    -0.348 N 
HETATM    2  C   UNL     1      25.091  46.012  50.140  1.00  0.00     0.236 C 
HETATM    3  O   UNL     1      25.759  45.661  49.173  1.00  0.00    -0.272 OA
HETATM    4  H   UNL     1      23.499  47.087  50.716  1.00  0.00     0.163 HD
ENDROOT
BRANCH   2   5
HETATM    5  C   UNL     1      25.749  46.272  51.496  1.00  0.00     0.239 C 
BRANCH   5   6
HETATM    6  N   UNL     1      26.105  45.083  52.244  1.00  0.00    -0.259 N 
HETATM    7  C   UNL     1      25.383  44.573  53.271  1.00  0.00     0.326 A 
HETATM    8  O   UNL     1      24.256  44.914  53.593  1.00  0.00    -0.247 OA
HETATM    9  N   UNL     1      26.093  43.566  53.866  1.00  0.00    -0.320 N 
HETATM   10  C   UNL     1      27.399  43.371  53.263  1.00  0.00     0.144 A 
HETATM   11  H   UNL     1      25.777  43.120  54.717  1.00  0.00     0.165 HD
HETATM   12  C   UNL     1      28.529  43.737  54.216  1.00  0.00    -0.014 A 
HETATM   13  C   UNL     1      27.486  41.943  52.708  1.00  0.00     0.047 C 
HETATM   14  C   UNL     1      27.289  44.407  52.111  1.00  0.00     0.261 A 
HETATM   15  C   UNL     1      29.706  42.961  54.270  1.00  0.00    -0.049 A 
HETATM   16  C   UNL     1      28.454  44.899  55.011  1.00  0.00     0.011 A 
HETATM   17  C   UNL     1      30.758  43.351  55.116  1.00  0.00     0.007 A 
HETATM   18  C   UNL     1      29.858  41.682  53.485  1.00  0.00     0.039 C 
HETATM   19  C   UNL     1      30.664  44.505  55.889  1.00  0.00     0.001 A 
HETATM   20  C   UNL     1      29.512  45.278  55.839  1.00  0.00     0.001 A 
HETATM   21  C   UNL     1      28.910  41.582  52.297  1.00  0.00     0.008 C 
HETATM   22  O   UNL     1      28.128  44.613  51.245  1.00  0.00    -0.270 OA
ENDBRANCH   5   6
ENDBRANCH   2   5
BRANCH   1  23
HETATM   23  C   UNL     1      23.084  46.497  48.752  1.00  0.00     0.155 C 
BRANCH  23  24
HETATM   24  C   UNL     1      22.297  45.276  48.236  1.00  0.00     0.043 C 
BRANCH  24  25
HETATM   25  C   UNL     1      22.074  44.171  49.266  1.00  0.00     0.076 C 
BRANCH  25  26
HETATM   26  S   UNL     1      23.144  42.747  48.858  1.00  0.00    -0.173 SA
HETATM   27  C   UNL     1      24.049  42.612  50.415  1.00  0.00     0.089 C 
ENDBRANCH  25  26
ENDBRANCH  24  25
ENDBRANCH  23  24
BRANCH  23  28
HETATM   28  C   UNL     1      22.212  47.727  48.777  1.00  0.00     0.128 A 
HETATM   29  N   UNL     1      22.575  48.943  48.417  1.00  0.00    -0.231 NA
HETATM   30  C   UNL     1      21.486  49.747  48.647  1.00  0.00     0.085 A 
HETATM   31  C   UNL     1      20.425  49.007  49.157  1.00  0.00     0.062 A 
HETATM   32  C   UNL     1      21.332  51.126  48.455  1.00  0.00     0.034 A 
HETATM   33  N   UNL     1      20.903  47.725  49.203  1.00  0.00    -0.341 N 
HETATM   34  C   UNL     1      19.198  49.572  49.510  1.00  0.00     0.032 A 
HETATM   35  H   UNL     1      20.401  46.915  49.536  1.00  0.00     0.167 HD
HETATM   36  C   UNL     1      19.065  50.953  49.320  1.00  0.00     0.002 A 
HETATM   37  C   UNL     1      20.111  51.719  48.798  1.00  0.00     0.002 A 
ENDBRANCH  23  28
ENDBRANCH   1  23
TORSDOF 7
ENDMDL
MODEL 3
REMARK VINA RESULT:      -9.6      1.813      3.104
REMARK  7 active torsions:
REMARK  status: ('A' for Active; 'I' for Inactive)
REMARK    1  A    between atoms: S_2  and  C_3 
REMARK    2  A    between atoms: C_3  and  C_4 
REMARK    3  A    between atoms: C_4  and  C_5 
REMARK    4  A    between atoms: C_5  and  N_6 
REMARK    5  A    between atoms: C_5  and  C_26 
REMARK       I    between atoms: N_6  and  C_7 
REMARK    6  A    between atoms: C_7  and  C_8 
REMARK    7  A    between atoms: C_8  and  N_9 
ROOT
HETATM    1  N   UNL     1      23.650  46.119  49.940  1.00  0.00    -0.348 N 
HETATM    2  C   UNL     1      24.919  45.570  49.982  1.00  0.00     0.236 C 
HETATM    3  O   UNL     1      25.394  44.911  49.063  1.00  0.00    -0.272 OA
HETATM    4  H   UNL     1      23.595  47.004  50.444  1.00  0.00     0.163 HD
ENDROOT
BRANCH   2   5
HETATM    5  C   UNL     1      25.784  45.996  51.170  1.00  0.00     0.239 C 
BRANCH   5   6
HETATM    6  N   UNL     1      26.154  44.927  52.075  1.00  0.00    -0.259 N 
HETATM    7  C   UNL     1      25.397  44.499  53.114  1.00  0.00     0.326 A 
HETATM    8  O   UNL     1      24.236  44.807  53.329  1.00  0.00    -0.247 OA
HETATM    9  N   UNL     1      26.119  43.612  53.865  1.00  0.00    -0.320 N 
HETATM   10  C   UNL     1      27.469  43.425  53.364  1.00  0.00     0.144 A 
HETATM   11  H   UNL     1      25.775  43.250  54.745  1.00  0.00     0.165 HD
HETATM   12  C   UNL     1      28.517  43.967  54.327  1.00  0.00    -0.014 A 
HETATM   13  C   UNL     1      27.666  41.949  52.991  1.00  0.00     0.047 C 
HETATM   14  C   UNL     1      27.377  44.311  52.091  1.00  0.00     0.261 A 
HETATM   15  C   UNL     1      29.727  43.274  54.541  1.00  0.00    -0.049 A 
HETATM   16  C   UNL     1      28.331  45.208  54.971  1.00  0.00     0.011 A 
HETATM   17  C   UNL     1      30.702  43.822  55.391  1.00  0.00     0.007 A 
HETATM   18  C   UNL     1      29.995  41.922  53.925  1.00  0.00     0.039 C 
HETATM   19  C   UNL     1      30.500  45.052  56.013  1.00  0.00     0.001 A 
HETATM   20  C   UNL     1      29.314  45.743  55.805  1.00  0.00     0.001 A 
HETATM   21  C   UNL     1      29.129  41.628  52.706  1.00  0.00     0.008 C 
HETATM   22  O   UNL     1      28.257  44.463  51.255  1.00  0.00    -0.270 OA
ENDBRANCH   5   6
ENDBRANCH   2   5
BRANCH   1  23
HETATM   23  C   UNL     1      22.839  46.089  48.720  1.00  0.00     0.155 C 
BRANCH  23  24
HETATM   24  C   UNL     1      21.900  44.881  48.529  1.00  0.00     0.043 C 
BRANCH  24  25
HETATM   25  C   UNL     1      22.394  43.833  47.535  1.00  0.00     0.076 C 
BRANCH  25  26
HETATM   26  S   UNL     1      21.098  43.536  46.282  1.00  0.00    -0.173 SA
HETATM   27  C   UNL     1      19.767  44.519  47.008  1.00  0.00     0.089 C 
ENDBRANCH  25  26
ENDBRANCH  24  25
ENDBRANCH  23  24
BRANCH  23  28
HETATM   28  C   UNL     1      22.079  47.386  48.605  1.00  0.00     0.128 A 
HETATM   29  N   UNL     1      21.238  47.710  47.641  1.00  0.00    -0.231 NA
HETATM   30  C   UNL     1      20.821  48.988  47.917  1.00  0.00     0.085 A 
HETATM   31  C   UNL     1      21.415  49.461  49.081  1.00  0.00     0.062 A 
HETATM   32  C   UNL     1      19.941  49.817  47.210  1.00  0.00     0.034 A 
HETATM   33  N   UNL     1      22.186  48.415  49.513  1.00  0.00    -0.341 N 
HETATM   34  C   UNL     1      21.194  50.744  49.587  1.00  0.00     0.032 A 
HETATM   35  H   UNL     1      22.775  48.409  50.333  1.00  0.00     0.167 HD
HETATM   36  C   UNL     1      20.320  51.562  48.861  1.00  0.00     0.002 A 
HETATM   37  C   UNL     1      19.699  51.108  47.694  1.00  0.00     0.002 A 
ENDBRANCH  23  28
ENDBRANCH   1  23
TORSDOF 7
ENDMDL
MODEL 4
REMARK VINA RESULT:      -9.2      1.630      2.962
REMARK  7 active torsions:
REMARK  status: ('A' for Active; 'I' for Inactive)
REMARK    1  A    between atoms: S_2  and  C_3 
REMARK    2  A    between atoms: C_3  and  C_4 
REMARK    3  A    between atoms: C_4  and  C_5 
REMARK    4  A    between atoms: C_5  and  N_6 
REMARK    5  A    between atoms: C_5  and  C_26 
REMARK       I    between atoms: N_6  and  C_7 
REMARK    6  A    between atoms: C_7  and  C_8 
REMARK    7  A    between atoms: C_8  and  N_9 
ROOT
HETATM    1  N   UNL     1      22.973  46.285  49.229  1.00  0.00    -0.348 N 
HETATM    2  C   UNL     1      23.977  45.384  48.921  1.00  0.00     0.236 C 
HETATM    3  O   UNL     1      23.869  44.536  48.041  1.00  0.00    -0.272 OA
HETATM    4  H   UNL     1      23.341  47.185  49.535  1.00  0.00     0.163 HD
ENDROOT
BRANCH   2   5
HETATM    5  C   UNL     1      25.320  45.630  49.612  1.00  0.00     0.239 C 
BRANCH   5   6
HETATM    6  N   UNL     1      25.652  44.688  50.662  1.00  0.00    -0.259 N 
HETATM    7  C   UNL     1      24.760  44.163  51.537  1.00  0.00     0.326 A 
HETATM    8  O   UNL     1      23.545  44.251  51.462  1.00  0.00    -0.247 OA
HETATM    9  N   UNL     1      25.433  43.463  52.501  1.00  0.00    -0.320 N 
HETATM   10  C   UNL     1      26.873  43.520  52.331  1.00  0.00     0.144 A 
HETATM   11  H   UNL     1      24.962  43.076  53.309  1.00  0.00     0.165 HD
HETATM   12  C   UNL     1      27.553  44.291  53.455  1.00  0.00    -0.014 A 
HETATM   13  C   UNL     1      27.412  42.096  52.134  1.00  0.00     0.047 C 
HETATM   14  C   UNL     1      26.926  44.321  51.001  1.00  0.00     0.261 A 
HETATM   15  C   UNL     1      28.782  43.852  53.990  1.00  0.00    -0.049 A 
HETATM   16  C   UNL     1      27.003  45.496  53.937  1.00  0.00     0.011 A 
HETATM   17  C   UNL     1      29.417  44.610  54.988  1.00  0.00     0.007 A 
HETATM   18  C   UNL     1      29.424  42.555  53.563  1.00  0.00     0.039 C 
HETATM   19  C   UNL     1      28.859  45.802  55.445  1.00  0.00     0.001 A 
HETATM   20  C   UNL     1      27.651  46.243  54.922  1.00  0.00     0.001 A 
HETATM   21  C   UNL     1      28.935  42.052  52.210  1.00  0.00     0.008 C 
HETATM   22  O   UNL     1      27.936  44.607  50.372  1.00  0.00    -0.270 OA
ENDBRANCH   5   6
ENDBRANCH   2   5
BRANCH   1  23
HETATM   23  C   UNL     1      21.762  46.395  48.411  1.00  0.00     0.155 C 
BRANCH  23  24
HETATM   24  C   UNL     1      20.738  45.246  48.510  1.00  0.00     0.043 C 
BRANCH  24  25
HETATM   25  C   UNL     1      20.388  44.581  47.181  1.00  0.00     0.076 C 
BRANCH  25  26
HETATM   26  S   UNL     1      19.261  45.672  46.243  1.00  0.00    -0.173 SA
HETATM   27  C   UNL     1      17.779  44.640  46.264  1.00  0.00     0.089 C 
ENDBRANCH  25  26
ENDBRANCH  24  25
ENDBRANCH  23  24
BRANCH  23  28
HETATM   28  C   UNL     1      21.106  47.725  48.684  1.00  0.00     0.128 A 
HETATM   29  N   UNL     1      20.009  47.919  49.389  1.00  0.00    -0.231 NA
HETATM   30  C   UNL     1      19.758  49.268  49.334  1.00  0.00     0.085 A 
HETATM   31  C   UNL     1      20.727  49.921  48.581  1.00  0.00     0.062 A 
HETATM   32  C   UNL     1      18.710  50.009  49.896  1.00  0.00     0.034 A 
HETATM   33  N   UNL     1      21.586  48.923  48.204  1.00  0.00    -0.341 N 
HETATM   34  C   UNL     1      20.708  51.295  48.334  1.00  0.00     0.032 A 
HETATM   35  H   UNL     1      22.409  49.033  47.630  1.00  0.00     0.167 HD
HETATM   36  C   UNL     1      19.648  52.018  48.895  1.00  0.00     0.002 A 
HETATM   37  C   UNL     1      18.667  51.390  49.666  1.00  0.00     0.002 A 
ENDBRANCH  23  28
ENDBRANCH   1  23
TORSDOF 7
ENDMDL
MODEL 5
REMARK VINA RESULT:      -8.6     13.801     16.818
REMARK  7 active torsions:
REMARK  status: ('A' for Active; 'I' for Inactive)
REMARK    1  A    between atoms: S_2  and  C_3 
REMARK    2  A    between atoms: C_3  and  C_4 
REMARK    3  A    between atoms: C_4  and  C_5 
REMARK    4  A    between atoms: C_5  and  N_6 
REMARK    5  A    between atoms: C_5  and  C_26 
REMARK       I    between atoms: N_6  and  C_7 
REMARK    6  A    between atoms: C_7  and  C_8 
REMARK    7  A    between atoms: C_8  and  N_9 
ROOT
HETATM    1  N   UNL     1      35.845  53.144  40.508  1.00  0.00    -0.348 N 
HETATM    2  C   UNL     1      35.797  51.960  39.794  1.00  0.00     0.236 C 
HETATM    3  O   UNL     1      36.635  51.652  38.952  1.00  0.00    -0.272 OA
HETATM    4  H   UNL     1      35.475  53.041  41.453  1.00  0.00     0.163 HD
ENDROOT
BRANCH   2   5
HETATM    5  C   UNL     1      34.738  50.955  40.251  1.00  0.00     0.239 C 
BRANCH   5   6
HETATM    6  N   UNL     1      33.602  51.531  40.942  1.00  0.00    -0.259 N 
HETATM    7  C   UNL     1      33.561  51.798  42.270  1.00  0.00     0.326 A 
HETATM    8  O   UNL     1      34.512  51.775  43.036  1.00  0.00    -0.247 OA
HETATM    9  N   UNL     1      32.288  52.159  42.619  1.00  0.00    -0.320 N 
HETATM   10  C   UNL     1      31.367  52.111  41.499  1.00  0.00     0.144 A 
HETATM   11  H   UNL     1      32.018  52.302  43.583  1.00  0.00     0.165 HD
HETATM   12  C   UNL     1      30.317  51.020  41.667  1.00  0.00    -0.014 A 
HETATM   13  C   UNL     1      30.782  53.512  41.270  1.00  0.00     0.047 C 
HETATM   14  C   UNL     1      32.374  51.742  40.375  1.00  0.00     0.261 A 
HETATM   15  C   UNL     1      28.979  51.242  41.282  1.00  0.00    -0.049 A 
HETATM   16  C   UNL     1      30.676  49.743  42.145  1.00  0.00     0.011 A 
HETATM   17  C   UNL     1      28.041  50.202  41.395  1.00  0.00     0.007 A 
HETATM   18  C   UNL     1      28.497  52.587  40.797  1.00  0.00     0.039 C 
HETATM   19  C   UNL     1      28.418  48.946  41.864  1.00  0.00     0.001 A 
HETATM   20  C   UNL     1      29.735  48.717  42.242  1.00  0.00     0.001 A 
HETATM   21  C   UNL     1      29.617  53.485  40.286  1.00  0.00     0.008 C 
HETATM   22  O   UNL     1      32.114  51.625  39.185  1.00  0.00    -0.270 OA
ENDBRANCH   5   6
ENDBRANCH   2   5
BRANCH   1  23
HETATM   23  C   UNL     1      36.997  54.046  40.426  1.00  0.00     0.155 C 
BRANCH  23  24
HETATM   24  C   UNL     1      36.862  55.279  39.511  1.00  0.00     0.043 C 
BRANCH  24  25
HETATM   25  C   UNL     1      35.484  55.466  38.882  1.00  0.00     0.076 C 
BRANCH  25  26
HETATM   26  S   UNL     1      34.723  56.989  39.548  1.00  0.00    -0.173 SA
HETATM   27  C   UNL     1      35.013  58.091  38.147  1.00  0.00     0.089 C 
ENDBRANCH  25  26
ENDBRANCH  24  25
ENDBRANCH  23  24
BRANCH  23  28
HETATM   28  C   UNL     1      37.402  54.452  41.820  1.00  0.00     0.128 A 
HETATM   29  N   UNL     1      38.154  55.487  42.140  1.00  0.00    -0.231 NA
HETATM   30  C   UNL     1      38.299  55.443  43.504  1.00  0.00     0.085 A 
HETATM   31  C   UNL     1      37.614  54.358  44.039  1.00  0.00     0.062 A 
HETATM   32  C   UNL     1      39.011  56.294  44.359  1.00  0.00     0.034 A 
HETATM   33  N   UNL     1      37.031  53.762  42.953  1.00  0.00    -0.341 N 
HETATM   34  C   UNL     1      37.610  54.051  45.401  1.00  0.00     0.032 A 
HETATM   35  H   UNL     1      36.463  52.928  42.966  1.00  0.00     0.167 HD
HETATM   36  C   UNL     1      38.336  54.906  46.239  1.00  0.00     0.002 A 
HETATM   37  C   UNL     1      39.023  56.012  45.730  1.00  0.00     0.002 A 
ENDBRANCH  23  28
ENDBRANCH   1  23
TORSDOF 7
ENDMDL
MODEL 6
REMARK VINA RESULT:      -8.5      5.196      8.978
REMARK  7 active torsions:
REMARK  status: ('A' for Active; 'I' for Inactive)
REMARK    1  A    between atoms: S_2  and  C_3 
REMARK    2  A    between atoms: C_3  and  C_4 
REMARK    3  A    between atoms: C_4  and  C_5 
REMARK    4  A    between atoms: C_5  and  N_6 
REMARK    5  A    between atoms: C_5  and  C_26 
REMARK       I    between atoms: N_6  and  C_7 
REMARK    6  A    between atoms: C_7  and  C_8 
REMARK    7  A    between atoms: C_8  and  N_9 
ROOT
HETATM    1  N   UNL     1      26.775  43.047  51.519  1.00  0.00    -0.348 N 
HETATM    2  C   UNL     1      26.895  42.792  50.165  1.00  0.00     0.236 C 
HETATM    3  O   UNL     1      26.937  43.679  49.318  1.00  0.00    -0.272 OA
HETATM    4  H   UNL     1      27.265  42.356  52.088  1.00  0.00     0.163 HD
ENDROOT
BRANCH   2   5
HETATM    5  C   UNL     1      27.170  41.335  49.788  1.00  0.00     0.239 C 
BRANCH   5   6
HETATM    6  N   UNL     1      26.873  40.990  48.413  1.00  0.00    -0.259 N 
HETATM    7  C   UNL     1      25.640  40.680  47.944  1.00  0.00     0.326 A 
HETATM    8  O   UNL     1      24.587  40.825  48.545  1.00  0.00    -0.247 OA
HETATM    9  N   UNL     1      25.746  40.228  46.656  1.00  0.00    -0.320 N 
HETATM   10  C   UNL     1      27.122  40.175  46.195  1.00  0.00     0.144 A 
HETATM   11  H   UNL     1      24.954  39.848  46.155  1.00  0.00     0.165 HD
HETATM   12  C   UNL     1      27.591  38.745  45.958  1.00  0.00    -0.014 A 
HETATM   13  C   UNL     1      27.278  41.094  44.976  1.00  0.00     0.047 C 
HETATM   14  C   UNL     1      27.817  40.786  47.442  1.00  0.00     0.261 A 
HETATM   15  C   UNL     1      28.412  38.429  44.856  1.00  0.00    -0.049 A 
HETATM   16  C   UNL     1      27.273  37.722  46.875  1.00  0.00     0.011 A 
HETATM   17  C   UNL     1      28.878  37.114  44.690  1.00  0.00     0.007 A 
HETATM   18  C   UNL     1      28.770  39.451  43.805  1.00  0.00     0.039 C 
HETATM   19  C   UNL     1      28.557  36.120  45.611  1.00  0.00     0.001 A 
HETATM   20  C   UNL     1      27.752  36.423  46.701  1.00  0.00     0.001 A 
HETATM   21  C   UNL     1      28.620  40.891  44.281  1.00  0.00     0.008 C 
HETATM   22  O   UNL     1      29.013  41.020  47.558  1.00  0.00    -0.270 OA
ENDBRANCH   5   6
ENDBRANCH   2   5
BRANCH   1  23
HETATM   23  C   UNL     1      26.854  44.408  52.056  1.00  0.00     0.155 C 
BRANCH  23  24
HETATM   24  C   UNL     1      25.525  45.100  52.423  1.00  0.00     0.043 C 
BRANCH  24  25
HETATM   25  C   UNL     1      25.360  46.512  51.866  1.00  0.00     0.076 C 
BRANCH  25  26
HETATM   26  S   UNL     1      24.550  46.420  50.231  1.00  0.00    -0.173 SA
HETATM   27  C   UNL     1      25.060  48.021  49.568  1.00  0.00     0.089 C 
ENDBRANCH  25  26
ENDBRANCH  24  25
ENDBRANCH  23  24
BRANCH  23  28
HETATM   28  C   UNL     1      27.808  44.420  53.224  1.00  0.00     0.128 A 
HETATM   29  N   UNL     1      27.867  45.339  54.168  1.00  0.00    -0.231 NA
HETATM   30  C   UNL     1      28.903  44.970  54.990  1.00  0.00     0.085 A 
HETATM   31  C   UNL     1      29.492  43.793  54.545  1.00  0.00     0.062 A 
HETATM   32  C   UNL     1      29.408  45.600  56.135  1.00  0.00     0.034 A 
HETATM   33  N   UNL     1      28.760  43.450  53.439  1.00  0.00    -0.341 N 
HETATM   34  C   UNL     1      30.588  43.199  55.174  1.00  0.00     0.032 A 
HETATM   35  H   UNL     1      28.917  42.647  52.848  1.00  0.00     0.167 HD
HETATM   36  C   UNL     1      31.086  43.849  56.311  1.00  0.00     0.002 A 
HETATM   37  C   UNL     1      30.506  45.027  56.788  1.00  0.00     0.002 A 
ENDBRANCH  23  28
ENDBRANCH   1  23
TORSDOF 7
ENDMDL
MODEL 7
REMARK VINA RESULT:      -8.4      3.205      7.755
REMARK  7 active torsions:
REMARK  status: ('A' for Active; 'I' for Inactive)
REMARK    1  A    between atoms: S_2  and  C_3 
REMARK    2  A    between atoms: C_3  and  C_4 
REMARK    3  A    between atoms: C_4  and  C_5 
REMARK    4  A    between atoms: C_5  and  N_6 
REMARK    5  A    between atoms: C_5  and  C_26 
REMARK       I    between atoms: N_6  and  C_7 
REMARK    6  A    between atoms: C_7  and  C_8 
REMARK    7  A    between atoms: C_8  and  N_9 
ROOT
HETATM    1  N   UNL     1      20.557  45.318  48.140  1.00  0.00    -0.348 N 
HETATM    2  C   UNL     1      19.307  44.896  47.723  1.00  0.00     0.236 C 
HETATM    3  O   UNL     1      19.091  43.768  47.293  1.00  0.00    -0.272 OA
HETATM    4  H   UNL     1      20.504  45.986  48.908  1.00  0.00     0.163 HD
ENDROOT
BRANCH   2   5
HETATM    5  C   UNL     1      18.155  45.860  48.011  1.00  0.00     0.239 C 
BRANCH   5   6
HETATM    6  N   UNL     1      18.356  47.216  47.542  1.00  0.00    -0.259 N 
HETATM    7  C   UNL     1      18.534  47.565  46.244  1.00  0.00     0.326 A 
HETATM    8  O   UNL     1      18.366  46.839  45.277  1.00  0.00    -0.247 OA
HETATM    9  N   UNL     1      18.878  48.888  46.175  1.00  0.00    -0.320 N 
HETATM   10  C   UNL     1      18.991  49.505  47.484  1.00  0.00     0.144 A 
HETATM   11  H   UNL     1      19.155  49.324  45.306  1.00  0.00     0.165 HD
HETATM   12  C   UNL     1      20.425  49.905  47.807  1.00  0.00    -0.014 A 
HETATM   13  C   UNL     1      17.982  50.658  47.584  1.00  0.00     0.047 C 
HETATM   14  C   UNL     1      18.543  48.300  48.357  1.00  0.00     0.261 A 
HETATM   15  C   UNL     1      20.702  51.114  48.477  1.00  0.00    -0.049 A 
HETATM   16  C   UNL     1      21.499  49.042  47.507  1.00  0.00     0.011 A 
HETATM   17  C   UNL     1      22.028  51.435  48.814  1.00  0.00     0.007 A 
HETATM   18  C   UNL     1      19.622  52.116  48.803  1.00  0.00     0.039 C 
HETATM   19  C   UNL     1      23.073  50.565  48.513  1.00  0.00     0.001 A 
HETATM   20  C   UNL     1      22.809  49.370  47.857  1.00  0.00     0.001 A 
HETATM   21  C   UNL     1      18.222  51.514  48.823  1.00  0.00     0.008 C 
HETATM   22  O   UNL     1      18.407  48.303  49.573  1.00  0.00    -0.270 OA
ENDBRANCH   5   6
ENDBRANCH   2   5
BRANCH   1  23
HETATM   23  C   UNL     1      21.685  44.389  48.250  1.00  0.00     0.155 C 
BRANCH  23  24
HETATM   24  C   UNL     1      22.312  43.883  46.935  1.00  0.00     0.043 C 
BRANCH  24  25
HETATM   25  C   UNL     1      22.289  42.368  46.753  1.00  0.00     0.076 C 
BRANCH  25  26
HETATM   26  S   UNL     1      23.999  41.729  46.829  1.00  0.00    -0.173 SA
HETATM   27  C   UNL     1      24.078  41.329  48.588  1.00  0.00     0.089 C 
ENDBRANCH  25  26
ENDBRANCH  24  25
ENDBRANCH  23  24
BRANCH  23  28
HETATM   28  C   UNL     1      22.734  44.996  49.148  1.00  0.00     0.128 A 
HETATM   29  N   UNL     1      23.377  46.128  48.936  1.00  0.00    -0.231 NA
HETATM   30  C   UNL     1      24.260  46.262  49.977  1.00  0.00     0.085 A 
HETATM   31  C   UNL     1      24.156  45.189  50.855  1.00  0.00     0.062 A 
HETATM   32  C   UNL     1      25.196  47.272  50.236  1.00  0.00     0.034 A 
HETATM   33  N   UNL     1      23.161  44.415  50.321  1.00  0.00    -0.341 N 
HETATM   34  C   UNL     1      24.955  45.049  51.992  1.00  0.00     0.032 A 
HETATM   35  H   UNL     1      22.824  43.540  50.693  1.00  0.00     0.167 HD
HETATM   36  C   UNL     1      25.891  46.063  52.229  1.00  0.00     0.002 A 
HETATM   37  C   UNL     1      26.010  47.159  51.370  1.00  0.00     0.002 A 
ENDBRANCH  23  28
ENDBRANCH   1  23
TORSDOF 7
ENDMDL
MODEL 8
REMARK VINA RESULT:      -8.4      7.195     10.069
REMARK  7 active torsions:
REMARK  status: ('A' for Active; 'I' for Inactive)
REMARK    1  A    between atoms: S_2  and  C_3 
REMARK    2  A    between atoms: C_3  and  C_4 
REMARK    3  A    between atoms: C_4  and  C_5 
REMARK    4  A    between atoms: C_5  and  N_6 
REMARK    5  A    between atoms: C_5  and  C_26 
REMARK       I    between atoms: N_6  and  C_7 
REMARK    6  A    between atoms: C_7  and  C_8 
REMARK    7  A    between atoms: C_8  and  N_9 
ROOT
HETATM    1  N   UNL     1      16.032  51.295  47.659  1.00  0.00    -0.348 N 
HETATM    2  C   UNL     1      15.330  51.794  46.576  1.00  0.00     0.236 C 
HETATM    3  O   UNL     1      15.146  52.994  46.394  1.00  0.00    -0.272 OA
HETATM    4  H   UNL     1      16.543  50.443  47.428  1.00  0.00     0.163 HD
ENDROOT
BRANCH   2   5
HETATM    5  C   UNL     1      14.955  50.771  45.503  1.00  0.00     0.239 C 
BRANCH   5   6
HETATM    6  N   UNL     1      15.506  49.446  45.698  1.00  0.00    -0.259 N 
HETATM    7  C   UNL     1      14.800  48.371  46.126  1.00  0.00     0.326 A 
HETATM    8  O   UNL     1      13.585  48.307  46.227  1.00  0.00    -0.247 OA
HETATM    9  N   UNL     1      15.659  47.336  46.376  1.00  0.00    -0.320 N 
HETATM   10  C   UNL     1      17.048  47.697  46.154  1.00  0.00     0.144 A 
HETATM   11  H   UNL     1      15.347  46.473  46.800  1.00  0.00     0.165 HD
HETATM   12  C   UNL     1      17.849  47.708  47.450  1.00  0.00    -0.014 A 
HETATM   13  C   UNL     1      17.634  46.789  45.064  1.00  0.00     0.047 C 
HETATM   14  C   UNL     1      16.839  49.140  45.620  1.00  0.00     0.261 A 
HETATM   15  C   UNL     1      19.172  47.221  47.483  1.00  0.00    -0.049 A 
HETATM   16  C   UNL     1      17.311  48.270  48.625  1.00  0.00     0.011 A 
HETATM   17  C   UNL     1      19.911  47.294  48.676  1.00  0.00     0.007 A 
HETATM   18  C   UNL     1      19.816  46.567  46.285  1.00  0.00     0.039 C 
HETATM   19  C   UNL     1      19.361  47.859  49.824  1.00  0.00     0.001 A 
HETATM   20  C   UNL     1      18.061  48.344  49.800  1.00  0.00     0.001 A 
HETATM   21  C   UNL     1      19.149  46.931  44.963  1.00  0.00     0.008 C 
HETATM   22  O   UNL     1      17.717  49.895  45.224  1.00  0.00    -0.270 OA
ENDBRANCH   5   6
ENDBRANCH   2   5
BRANCH   1  23
HETATM   23  C   UNL     1      16.750  52.176  48.583  1.00  0.00     0.155 C 
BRANCH  23  24
HETATM   24  C   UNL     1      16.173  52.326  50.005  1.00  0.00     0.043 C 
BRANCH  24  25
HETATM   25  C   UNL     1      14.715  52.777  50.063  1.00  0.00     0.076 C 
BRANCH  25  26
HETATM   26  S   UNL     1      14.578  54.221  51.175  1.00  0.00    -0.173 SA
HETATM   27  C   UNL     1      14.821  55.539  49.964  1.00  0.00     0.089 C 
ENDBRANCH  25  26
ENDBRANCH  24  25
ENDBRANCH  23  24
BRANCH  23  28
HETATM   28  C   UNL     1      18.198  51.760  48.631  1.00  0.00     0.128 A 
HETATM   29  N   UNL     1      18.914  51.319  47.615  1.00  0.00    -0.231 NA
HETATM   30  C   UNL     1      20.152  51.020  48.125  1.00  0.00     0.085 A 
HETATM   31  C   UNL     1      20.203  51.288  49.488  1.00  0.00     0.062 A 
HETATM   32  C   UNL     1      21.286  50.503  47.485  1.00  0.00     0.034 A 
HETATM   33  N   UNL     1      18.960  51.783  49.778  1.00  0.00    -0.341 N 
HETATM   34  C   UNL     1      21.333  51.052  50.274  1.00  0.00     0.032 A 
HETATM   35  H   UNL     1      18.633  52.073  50.688  1.00  0.00     0.167 HD
HETATM   36  C   UNL     1      22.453  50.526  49.618  1.00  0.00     0.002 A 
HETATM   37  C   UNL     1      22.434  50.258  48.247  1.00  0.00     0.002 A 
ENDBRANCH  23  28
ENDBRANCH   1  23
TORSDOF 7
ENDMDL
MODEL 9
REMARK VINA RESULT:      -8.2      2.464      5.304
REMARK  7 active torsions:
REMARK  status: ('A' for Active; 'I' for Inactive)
REMARK    1  A    between atoms: S_2  and  C_3 
REMARK    2  A    between atoms: C_3  and  C_4 
REMARK    3  A    between atoms: C_4  and  C_5 
REMARK    4  A    between atoms: C_5  and  N_6 
REMARK    5  A    between atoms: C_5  and  C_26 
REMARK       I    between atoms: N_6  and  C_7 
REMARK    6  A    between atoms: C_7  and  C_8 
REMARK    7  A    between atoms: C_8  and  N_9 
ROOT
HETATM    1  N   UNL     1      23.566  44.881  50.690  1.00  0.00    -0.348 N 
HETATM    2  C   UNL     1      24.845  45.407  50.730  1.00  0.00     0.236 C 
HETATM    3  O   UNL     1      25.504  45.642  49.722  1.00  0.00    -0.272 OA
HETATM    4  H   UNL     1      22.983  45.223  51.453  1.00  0.00     0.163 HD
ENDROOT
BRANCH   2   5
HETATM    5  C   UNL     1      25.328  45.865  52.108  1.00  0.00     0.239 C 
BRANCH   5   6
HETATM    6  N   UNL     1      25.950  44.835  52.915  1.00  0.00    -0.259 N 
HETATM    7  C   UNL     1      25.386  44.266  54.008  1.00  0.00     0.326 A 
HETATM    8  O   UNL     1      24.225  44.392  54.363  1.00  0.00    -0.247 OA
HETATM    9  N   UNL     1      26.311  43.474  54.633  1.00  0.00    -0.320 N 
HETATM   10  C   UNL     1      27.607  43.507  53.979  1.00  0.00     0.144 A 
HETATM   11  H   UNL     1      26.126  43.038  55.526  1.00  0.00     0.165 HD
HETATM   12  C   UNL     1      28.669  44.168  54.848  1.00  0.00    -0.014 A 
HETATM   13  C   UNL     1      27.971  42.089  53.517  1.00  0.00     0.047 C 
HETATM   14  C   UNL     1      27.243  44.408  52.768  1.00  0.00     0.261 A 
HETATM   15  C   UNL     1      29.983  43.657  54.895  1.00  0.00    -0.049 A 
HETATM   16  C   UNL     1      28.381  45.347  55.567  1.00  0.00     0.011 A 
HETATM   17  C   UNL     1      30.960  44.317  55.660  1.00  0.00     0.007 A 
HETATM   18  C   UNL     1      30.371  42.381  54.190  1.00  0.00     0.039 C 
HETATM   19  C   UNL     1      30.654  45.483  56.358  1.00  0.00     0.001 A 
HETATM   20  C   UNL     1      29.365  45.997  56.314  1.00  0.00     0.001 A 
HETATM   21  C   UNL     1      29.423  41.999  53.060  1.00  0.00     0.008 C 
HETATM   22  O   UNL     1      27.990  44.716  51.849  1.00  0.00    -0.270 OA
ENDBRANCH   5   6
ENDBRANCH   2   5
BRANCH   1  23
HETATM   23  C   UNL     1      22.841  44.719  49.427  1.00  0.00     0.155 C 
BRANCH  23  24
HETATM   24  C   UNL     1      22.773  45.943  48.491  1.00  0.00     0.043 C 
BRANCH  24  25
HETATM   25  C   UNL     1      21.372  46.301  48.001  1.00  0.00     0.076 C 
BRANCH  25  26
HETATM   26  S   UNL     1      20.916  47.951  48.640  1.00  0.00    -0.173 SA
HETATM   27  C   UNL     1      22.355  48.885  48.074  1.00  0.00     0.089 C 
ENDBRANCH  25  26
ENDBRANCH  24  25
ENDBRANCH  23  24
BRANCH  23  28
HETATM   28  C   UNL     1      23.385  43.516  48.700  1.00  0.00     0.128 A 
HETATM   29  N   UNL     1      23.956  42.465  49.256  1.00  0.00    -0.231 NA
HETATM   30  C   UNL     1      24.335  41.648  48.221  1.00  0.00     0.085 A 
HETATM   31  C   UNL     1      23.984  42.205  46.997  1.00  0.00     0.062 A 
HETATM   32  C   UNL     1      24.996  40.412  48.248  1.00  0.00     0.034 A 
HETATM   33  N   UNL     1      23.358  43.377  47.330  1.00  0.00    -0.341 N 
HETATM   34  C   UNL     1      24.272  41.603  45.770  1.00  0.00     0.032 A 
HETATM   35  H   UNL     1      22.980  44.053  46.684  1.00  0.00     0.167 HD
HETATM   36  C   UNL     1      24.942  40.374  45.817  1.00  0.00     0.002 A 
HETATM   37  C   UNL     1      25.296  39.784  47.033  1.00  0.00     0.002 A 
ENDBRANCH  23  28
ENDBRANCH   1  23
TORSDOF 7
ENDMDL
MODEL 10
REMARK VINA RESULT:      -8.0     13.081     16.713
REMARK  7 active torsions:
REMARK  status: ('A' for Active; 'I' for Inactive)
REMARK    1  A    between atoms: S_2  and  C_3 
REMARK    2  A    between atoms: C_3  and  C_4 
REMARK    3  A    between atoms: C_4  and  C_5 
REMARK    4  A    between atoms: C_5  and  N_6 
REMARK    5  A    between atoms: C_5  and  C_26 
REMARK       I    between atoms: N_6  and  C_7 
REMARK    6  A    between atoms: C_7  and  C_8 
REMARK    7  A    between atoms: C_8  and  N_9 
ROOT
HETATM    1  N   UNL     1      36.479  51.341  43.198  1.00  0.00    -0.348 N 
HETATM    2  C   UNL     1      35.552  51.625  42.211  1.00  0.00     0.236 C 
HETATM    3  O   UNL     1      35.737  52.474  41.344  1.00  0.00    -0.272 OA
HETATM    4  H   UNL     1      36.465  50.359  43.471  1.00  0.00     0.163 HD
ENDROOT
BRANCH   2   5
HETATM    5  C   UNL     1      34.352  50.680  42.141  1.00  0.00     0.239 C 
BRANCH   5   6
HETATM    6  N   UNL     1      33.057  51.324  42.234  1.00  0.00    -0.259 N 
HETATM    7  C   UNL     1      32.465  51.703  43.393  1.00  0.00     0.326 A 
HETATM    8  O   UNL     1      32.996  51.735  44.492  1.00  0.00    -0.247 OA
HETATM    9  N   UNL     1      31.183  52.105  43.135  1.00  0.00    -0.320 N 
HETATM   10  C   UNL     1      30.827  51.972  41.734  1.00  0.00     0.144 A 
HETATM   11  H   UNL     1      30.534  52.332  43.877  1.00  0.00     0.165 HD
HETATM   12  C   UNL     1      29.757  50.910  41.514  1.00  0.00    -0.014 A 
HETATM   13  C   UNL     1      30.459  53.354  41.176  1.00  0.00     0.047 C 
HETATM   14  C   UNL     1      32.199  51.498  41.181  1.00  0.00     0.261 A 
HETATM   15  C   UNL     1      28.723  51.111  40.577  1.00  0.00    -0.049 A 
HETATM   16  C   UNL     1      29.819  49.674  42.191  1.00  0.00     0.011 A 
HETATM   17  C   UNL     1      27.780  50.094  40.351  1.00  0.00     0.007 A 
HETATM   18  C   UNL     1      28.555  52.415  39.837  1.00  0.00     0.039 C 
HETATM   19  C   UNL     1      27.864  48.879  41.027  1.00  0.00     0.001 A 
HETATM   20  C   UNL     1      28.881  48.669  41.948  1.00  0.00     0.001 A 
HETATM   21  C   UNL     1      29.826  53.256  39.793  1.00  0.00     0.008 C 
HETATM   22  O   UNL     1      32.467  51.284  40.007  1.00  0.00    -0.270 OA
ENDBRANCH   5   6
ENDBRANCH   2   5
BRANCH   1  23
HETATM   23  C   UNL     1      37.824  51.923  43.181  1.00  0.00     0.155 C 
BRANCH  23  24
HETATM   24  C   UNL     1      37.996  53.318  43.815  1.00  0.00     0.043 C 
BRANCH  24  25
HETATM   25  C   UNL     1      37.239  53.527  45.125  1.00  0.00     0.076 C 
BRANCH  25  26
HETATM   26  S   UNL     1      38.219  54.618  46.215  1.00  0.00    -0.173 SA
HETATM   27  C   UNL     1      38.661  53.423  47.495  1.00  0.00     0.089 C 
ENDBRANCH  25  26
ENDBRANCH  24  25
ENDBRANCH  23  24
BRANCH  23  28
HETATM   28  C   UNL     1      38.793  50.936  43.780  1.00  0.00     0.128 A 
HETATM   29  N   UNL     1      40.012  51.206  44.206  1.00  0.00    -0.231 NA
HETATM   30  C   UNL     1      40.540  50.010  44.624  1.00  0.00     0.085 A 
HETATM   31  C   UNL     1      39.622  48.979  44.457  1.00  0.00     0.062 A 
HETATM   32  C   UNL     1      41.806  49.723  45.151  1.00  0.00     0.034 A 
HETATM   33  N   UNL     1      38.513  49.598  43.947  1.00  0.00    -0.341 N 
HETATM   34  C   UNL     1      39.900  47.648  44.774  1.00  0.00     0.032 A 
HETATM   35  H   UNL     1      37.647  49.149  43.688  1.00  0.00     0.167 HD
HETATM   36  C   UNL     1      41.174  47.378  45.289  1.00  0.00     0.002 A 
HETATM   37  C   UNL     1      42.112  48.396  45.479  1.00  0.00     0.002 A 
ENDBRANCH  23  28
ENDBRANCH   1  23
TORSDOF 7
ENDMDL
