MODEL 1
REMARK VINA RESULT:      -9.9      0.000      0.000
REMARK  8 active torsions:
REMARK  status: ('A' for Active; 'I' for Inactive)
REMARK    1  A    between atoms: C_6  and  N_7 
REMARK    2  A    between atoms: N_7  and  C_8 
REMARK    3  A    between atoms: C_8  and  N_9 
REMARK    4  A    between atoms: N_9  and  C_10 
REMARK    5  A    between atoms: N_9  and  C_25 
REMARK    6  A    between atoms: C_10  and  C_11 
REMARK    7  A    between atoms: C_25  and  C_26 
REMARK    8  A    between atoms: C_26  and  N_27 
ROOT
HETATM    1  N   UNL     1      26.036  45.686  52.341  1.00  0.00    -0.352 N 
ENDROOT
BRANCH   1   2
HETATM    2  C   UNL     1      26.330  45.485  53.672  1.00  0.00     0.174 C 
HETATM    3  S   UNL     1      25.445  44.393  54.587  1.00  0.00    -0.041 SA
BRANCH   2   4
HETATM    4  N   UNL     1      27.493  45.933  54.208  1.00  0.00    -0.333 N 
HETATM    5  H   UNL     1      27.737  46.871  53.894  1.00  0.00     0.168 HD
BRANCH   4   6
HETATM    6  C   UNL     1      28.565  45.253  54.823  1.00  0.00     0.035 A 
HETATM    7  C   UNL     1      29.080  45.816  55.997  1.00  0.00     0.053 A 
HETATM    8  C   UNL     1      30.145  45.206  56.662  1.00  0.00     0.036 A 
HETATM    9  C   UNL     1      30.722  44.047  56.154  1.00  0.00     0.024 A 
HETATM   10 CL   UNL     1      30.736  45.891  58.124  1.00  0.00    -0.084 Cl
HETATM   11  C   UNL     1      30.239  43.503  54.965  1.00  0.00     0.004 A 
HETATM   12  C   UNL     1      29.170  44.110  54.299  1.00  0.00     0.029 A 
ENDBRANCH   4   6
ENDBRANCH   2   4
ENDBRANCH   1   2
BRANCH   1  13
HETATM   13  C   UNL     1      25.229  44.652  51.654  1.00  0.00     0.169 C 
BRANCH  13  14
HETATM   14  C   UNL     1      26.047  43.665  50.866  1.00  0.00     0.029 A 
HETATM   15  C   UNL     1      25.816  43.601  49.391  1.00  0.00     0.253 A 
HETATM   16  O   UNL     1      25.138  44.446  48.811  1.00  0.00    -0.268 OA
HETATM   17  N   UNL     1      26.400  42.579  48.697  1.00  0.00    -0.322 N 
HETATM   18  C   UNL     1      27.204  41.596  49.286  1.00  0.00     0.048 A 
HETATM   19  H   UNL     1      26.198  42.533  47.705  1.00  0.00     0.169 HD
HETATM   20  C   UNL     1      27.451  41.662  50.673  1.00  0.00    -0.006 A 
HETATM   21  C   UNL     1      27.734  40.573  48.499  1.00  0.00     0.070 A 
HETATM   22  C   UNL     1      28.247  40.687  51.287  1.00  0.00     0.053 A 
HETATM   23  C   UNL     1      26.818  42.729  51.450  1.00  0.00     0.028 A 
HETATM   24  C   UNL     1      28.757  39.684  50.490  1.00  0.00     0.106 A 
HETATM   25  C   UNL     1      28.506  39.627  49.139  1.00  0.00     0.107 A 
HETATM   26  O   UNL     1      29.534  38.651  50.915  1.00  0.00    -0.323 OA
HETATM   27  O   UNL     1      29.094  38.552  48.547  1.00  0.00    -0.323 OA
HETATM   28  C   UNL     1      29.723  37.921  49.683  1.00  0.00     0.352 A 
ENDBRANCH  13  14
ENDBRANCH   1  13
BRANCH   1  29
HETATM   29  C   UNL     1      26.039  47.028  51.715  1.00  0.00     0.153 C 
BRANCH  29  30
HETATM   30  C   UNL     1      25.044  47.235  50.559  1.00  0.00     0.254 C 
BRANCH  30  31
HETATM   31  N   UNL     1      25.295  48.524  49.800  1.00  0.00    -0.066 N 
HETATM   32  H   UNL     1      25.263  49.290  50.490  1.00  0.00     0.280 HD
HETATM   33  C   UNL     1      26.669  48.601  49.146  1.00  0.00     0.261 C 
HETATM   34  C   UNL     1      26.805  49.938  48.405  1.00  0.00     0.195 C 
HETATM   35  O   UNL     1      25.766  50.094  47.432  1.00  0.00    -0.388 OA
HETATM   36  C   UNL     1      24.471  50.102  48.043  1.00  0.00     0.195 C 
HETATM   37  C   UNL     1      24.204  48.782  48.770  1.00  0.00     0.261 C 
ENDBRANCH  30  31
ENDBRANCH  29  30
ENDBRANCH   1  29
TORSDOF 8
ENDMDL
MODEL 2
REMARK VINA RESULT:      -9.6      3.695      7.871
REMARK  8 active torsions:
REMARK  status: ('A' for Active; 'I' for Inactive)
REMARK    1  A    between atoms: C_6  and  N_7 
REMARK    2  A    between atoms: N_7  and  C_8 
REMARK    3  A    between atoms: C_8  and  N_9 
REMARK    4  A    between atoms: N_9  and  C_10 
REMARK    5  A    between atoms: N_9  and  C_25 
REMARK    6  A    between atoms: C_10  and  C_11 
REMARK    7  A    between atoms: C_25  and  C_26 
REMARK    8  A    between atoms: C_26  and  N_27 
ROOT
HETATM    1  N   UNL     1      26.434  45.015  51.233  1.00  0.00    -0.352 N 
ENDROOT
BRANCH   1   2
HETATM    2  C   UNL     1      25.637  46.133  51.358  1.00  0.00     0.174 C 
HETATM    3  S   UNL     1      25.614  47.010  52.787  1.00  0.00    -0.041 SA
BRANCH   2   4
HETATM    4  N   UNL     1      25.075  46.718  50.271  1.00  0.00    -0.333 N 
HETATM    5  H   UNL     1      24.496  46.076  49.733  1.00  0.00     0.168 HD
BRANCH   4   6
HETATM    6  C   UNL     1      25.394  47.902  49.573  1.00  0.00     0.035 A 
HETATM    7  C   UNL     1      24.324  48.623  49.030  1.00  0.00     0.053 A 
HETATM    8  C   UNL     1      24.558  49.802  48.321  1.00  0.00     0.036 A 
HETATM    9  C   UNL     1      25.856  50.261  48.124  1.00  0.00     0.024 A 
HETATM   10 CL   UNL     1      23.227  50.694  47.696  1.00  0.00    -0.084 Cl
HETATM   11  C   UNL     1      26.927  49.527  48.629  1.00  0.00     0.004 A 
HETATM   12  C   UNL     1      26.696  48.348  49.343  1.00  0.00     0.029 A 
ENDBRANCH   4   6
ENDBRANCH   2   4
ENDBRANCH   1   2
BRANCH   1  13
HETATM   13  C   UNL     1      26.386  44.015  52.325  1.00  0.00     0.169 C 
BRANCH  13  14
HETATM   14  C   UNL     1      27.632  43.970  53.164  1.00  0.00     0.029 A 
HETATM   15  C   UNL     1      28.544  42.799  52.983  1.00  0.00     0.253 A 
HETATM   16  O   UNL     1      28.394  42.008  52.056  1.00  0.00    -0.268 OA
HETATM   17  N   UNL     1      29.568  42.643  53.874  1.00  0.00    -0.322 N 
HETATM   18  C   UNL     1      29.815  43.517  54.939  1.00  0.00     0.048 A 
HETATM   19  H   UNL     1      30.149  41.822  53.755  1.00  0.00     0.169 HD
HETATM   20  C   UNL     1      28.978  44.641  55.104  1.00  0.00    -0.006 A 
HETATM   21  C   UNL     1      30.869  43.259  55.817  1.00  0.00     0.070 A 
HETATM   22  C   UNL     1      29.200  45.527  56.165  1.00  0.00     0.053 A 
HETATM   23  C   UNL     1      27.855  44.822  54.183  1.00  0.00     0.028 A 
HETATM   24  C   UNL     1      30.246  45.249  57.021  1.00  0.00     0.106 A 
HETATM   25  C   UNL     1      31.053  44.148  56.854  1.00  0.00     0.107 A 
HETATM   26  O   UNL     1      30.598  45.987  58.108  1.00  0.00    -0.323 OA
HETATM   27  O   UNL     1      32.013  44.057  57.814  1.00  0.00    -0.323 OA
HETATM   28  C   UNL     1      31.703  45.213  58.623  1.00  0.00     0.352 A 
ENDBRANCH  13  14
ENDBRANCH   1  13
BRANCH   1  29
HETATM   29  C   UNL     1      26.925  44.526  49.925  1.00  0.00     0.153 C 
BRANCH  29  30
HETATM   30  C   UNL     1      26.106  43.393  49.279  1.00  0.00     0.254 C 
BRANCH  30  31
HETATM   31  N   UNL     1      26.724  42.026  49.507  1.00  0.00    -0.066 N 
HETATM   32  H   UNL     1      27.439  42.139  50.242  1.00  0.00     0.280 HD
HETATM   33  C   UNL     1      25.745  40.982  50.026  1.00  0.00     0.261 C 
HETATM   34  C   UNL     1      26.477  39.646  50.210  1.00  0.00     0.195 C 
HETATM   35  O   UNL     1      27.080  39.217  48.983  1.00  0.00    -0.388 OA
HETATM   36  C   UNL     1      28.061  40.154  48.525  1.00  0.00     0.195 C 
HETATM   37  C   UNL     1      27.424  41.520  48.254  1.00  0.00     0.261 C 
ENDBRANCH  30  31
ENDBRANCH  29  30
ENDBRANCH   1  29
TORSDOF 8
ENDMDL
MODEL 3
REMARK VINA RESULT:      -9.5      3.883      8.238
REMARK  8 active torsions:
REMARK  status: ('A' for Active; 'I' for Inactive)
REMARK    1  A    between atoms: C_6  and  N_7 
REMARK    2  A    between atoms: N_7  and  C_8 
REMARK    3  A    between atoms: C_8  and  N_9 
REMARK    4  A    between atoms: N_9  and  C_10 
REMARK    5  A    between atoms: N_9  and  C_25 
REMARK    6  A    between atoms: C_10  and  C_11 
REMARK    7  A    between atoms: C_25  and  C_26 
REMARK    8  A    between atoms: C_26  and  N_27 
ROOT
HETATM    1  N   UNL     1      25.474  46.118  51.862  1.00  0.00    -0.352 N 
ENDROOT
BRANCH   1   2
HETATM    2  C   UNL     1      25.508  46.572  50.561  1.00  0.00     0.174 C 
HETATM    3  S   UNL     1      26.870  46.341  49.610  1.00  0.00    -0.041 SA
BRANCH   2   4
HETATM    4  N   UNL     1      24.373  46.956  49.923  1.00  0.00    -0.333 N 
HETATM    5  H   UNL     1      23.763  46.172  49.698  1.00  0.00     0.168 HD
BRANCH   4   6
HETATM    6  C   UNL     1      24.041  48.139  49.230  1.00  0.00     0.035 A 
HETATM    7  C   UNL     1      22.710  48.279  48.820  1.00  0.00     0.053 A 
HETATM    8  C   UNL     1      22.304  49.419  48.125  1.00  0.00     0.036 A 
HETATM    9  C   UNL     1      23.221  50.417  47.809  1.00  0.00     0.024 A 
HETATM   10 CL   UNL     1      20.657  49.590  47.664  1.00  0.00    -0.084 Cl
HETATM   11  C   UNL     1      24.555  50.265  48.181  1.00  0.00     0.004 A 
HETATM   12  C   UNL     1      24.964  49.126  48.882  1.00  0.00     0.029 A 
ENDBRANCH   4   6
ENDBRANCH   2   4
ENDBRANCH   1   2
BRANCH   1  13
HETATM   13  C   UNL     1      25.631  47.121  52.940  1.00  0.00     0.169 C 
BRANCH  13  14
HETATM   14  C   UNL     1      26.529  46.674  54.060  1.00  0.00     0.029 A 
HETATM   15  C   UNL     1      26.613  47.550  55.268  1.00  0.00     0.253 A 
HETATM   16  O   UNL     1      25.839  48.489  55.433  1.00  0.00    -0.268 OA
HETATM   17  N   UNL     1      27.571  47.264  56.201  1.00  0.00    -0.322 N 
HETATM   18  C   UNL     1      28.470  46.197  56.092  1.00  0.00     0.048 A 
HETATM   19  H   UNL     1      27.634  47.894  56.991  1.00  0.00     0.169 HD
HETATM   20  C   UNL     1      28.382  45.346  54.969  1.00  0.00    -0.006 A 
HETATM   21  C   UNL     1      29.434  46.000  57.081  1.00  0.00     0.070 A 
HETATM   22  C   UNL     1      29.274  44.276  54.834  1.00  0.00     0.053 A 
HETATM   23  C   UNL     1      27.386  45.642  53.939  1.00  0.00     0.028 A 
HETATM   24  C   UNL     1      30.221  44.103  55.823  1.00  0.00     0.106 A 
HETATM   25  C   UNL     1      30.300  44.941  56.911  1.00  0.00     0.107 A 
HETATM   26  O   UNL     1      31.172  43.131  55.849  1.00  0.00    -0.323 OA
HETATM   27  O   UNL     1      31.310  44.600  57.756  1.00  0.00    -0.323 OA
HETATM   28  C   UNL     1      31.877  43.467  57.064  1.00  0.00     0.352 A 
ENDBRANCH  13  14
ENDBRANCH   1  13
BRANCH   1  29
HETATM   29  C   UNL     1      24.823  44.845  52.248  1.00  0.00     0.153 C 
BRANCH  29  30
HETATM   30  C   UNL     1      24.675  43.798  51.129  1.00  0.00     0.254 C 
BRANCH  30  31
HETATM   31  N   UNL     1      25.465  42.534  51.408  1.00  0.00    -0.066 N 
HETATM   32  H   UNL     1      25.004  42.061  52.201  1.00  0.00     0.280 HD
HETATM   33  C   UNL     1      25.460  41.533  50.260  1.00  0.00     0.261 C 
HETATM   34  C   UNL     1      26.292  40.305  50.652  1.00  0.00     0.195 C 
HETATM   35  O   UNL     1      27.630  40.680  50.998  1.00  0.00    -0.388 OA
HETATM   36  C   UNL     1      27.653  41.560  52.127  1.00  0.00     0.195 C 
HETATM   37  C   UNL     1      26.893  42.854  51.825  1.00  0.00     0.261 C 
ENDBRANCH  30  31
ENDBRANCH  29  30
ENDBRANCH   1  29
TORSDOF 8
ENDMDL
MODEL 4
REMARK VINA RESULT:      -9.5      1.623      7.312
REMARK  8 active torsions:
REMARK  status: ('A' for Active; 'I' for Inactive)
REMARK    1  A    between atoms: C_6  and  N_7 
REMARK    2  A    between atoms: N_7  and  C_8 
REMARK    3  A    between atoms: C_8  and  N_9 
REMARK    4  A    between atoms: N_9  and  C_10 
REMARK    5  A    between atoms: N_9  and  C_25 
REMARK    6  A    between atoms: C_10  and  C_11 
REMARK    7  A    between atoms: C_25  and  C_26 
REMARK    8  A    between atoms: C_26  and  N_27 
ROOT
HETATM    1  N   UNL     1      27.132  43.054  52.441  1.00  0.00    -0.352 N 
ENDROOT
BRANCH   1   2
HETATM    2  C   UNL     1      27.209  43.950  53.486  1.00  0.00     0.174 C 
HETATM    3  S   UNL     1      25.978  44.048  54.621  1.00  0.00    -0.041 SA
BRANCH   2   4
HETATM    4  N   UNL     1      28.377  44.568  53.794  1.00  0.00    -0.333 N 
HETATM    5  H   UNL     1      28.751  45.114  53.019  1.00  0.00     0.168 HD
BRANCH   4   6
HETATM    6  C   UNL     1      29.318  44.339  54.820  1.00  0.00     0.035 A 
HETATM    7  C   UNL     1      29.390  45.298  55.836  1.00  0.00     0.053 A 
HETATM    8  C   UNL     1      30.299  45.146  56.885  1.00  0.00     0.036 A 
HETATM    9  C   UNL     1      31.159  44.054  56.919  1.00  0.00     0.024 A 
HETATM   10 CL   UNL     1      30.345  46.316  58.144  1.00  0.00    -0.084 Cl
HETATM   11  C   UNL     1      31.118  43.115  55.891  1.00  0.00     0.004 A 
HETATM   12  C   UNL     1      30.205  43.263  54.841  1.00  0.00     0.029 A 
ENDBRANCH   4   6
ENDBRANCH   2   4
ENDBRANCH   1   2
BRANCH   1  13
HETATM   13  C   UNL     1      27.234  43.596  51.067  1.00  0.00     0.169 C 
BRANCH  13  14
HETATM   14  C   UNL     1      26.213  44.654  50.753  1.00  0.00     0.029 A 
HETATM   15  C   UNL     1      24.780  44.232  50.684  1.00  0.00     0.253 A 
HETATM   16  O   UNL     1      24.422  43.119  51.060  1.00  0.00    -0.268 OA
HETATM   17  N   UNL     1      23.871  45.132  50.205  1.00  0.00    -0.322 N 
HETATM   18  C   UNL     1      24.202  46.425  49.782  1.00  0.00     0.048 A 
HETATM   19  H   UNL     1      22.914  44.811  50.131  1.00  0.00     0.169 HD
HETATM   20  C   UNL     1      25.546  46.844  49.867  1.00  0.00    -0.006 A 
HETATM   21  C   UNL     1      23.208  47.265  49.279  1.00  0.00     0.070 A 
HETATM   22  C   UNL     1      25.904  48.130  49.445  1.00  0.00     0.053 A 
HETATM   23  C   UNL     1      26.550  45.894  50.350  1.00  0.00     0.028 A 
HETATM   24  C   UNL     1      24.905  48.941  48.948  1.00  0.00     0.106 A 
HETATM   25  C   UNL     1      23.598  48.520  48.865  1.00  0.00     0.107 A 
HETATM   26  O   UNL     1      25.071  50.208  48.481  1.00  0.00    -0.323 OA
HETATM   27  O   UNL     1      22.780  49.470  48.337  1.00  0.00    -0.323 OA
HETATM   28  C   UNL     1      23.724  50.529  48.070  1.00  0.00     0.352 A 
ENDBRANCH  13  14
ENDBRANCH   1  13
BRANCH   1  29
HETATM   29  C   UNL     1      27.443  41.615  52.597  1.00  0.00     0.153 C 
BRANCH  29  30
HETATM   30  C   UNL     1      28.742  41.130  51.927  1.00  0.00     0.254 C 
BRANCH  30  31
HETATM   31  N   UNL     1      28.516  39.936  51.019  1.00  0.00    -0.066 N 
HETATM   32  H   UNL     1      27.627  39.502  51.309  1.00  0.00     0.280 HD
HETATM   33  C   UNL     1      28.350  40.299  49.549  1.00  0.00     0.261 C 
HETATM   34  C   UNL     1      28.137  39.018  48.731  1.00  0.00     0.195 C 
HETATM   35  O   UNL     1      29.226  38.105  48.914  1.00  0.00    -0.388 OA
HETATM   36  C   UNL     1      29.344  37.695  50.280  1.00  0.00     0.195 C 
HETATM   37  C   UNL     1      29.616  38.897  51.188  1.00  0.00     0.261 C 
ENDBRANCH  30  31
ENDBRANCH  29  30
ENDBRANCH   1  29
TORSDOF 8
ENDMDL
MODEL 5
REMARK VINA RESULT:      -9.2      3.946      7.800
REMARK  8 active torsions:
REMARK  status: ('A' for Active; 'I' for Inactive)
REMARK    1  A    between atoms: C_6  and  N_7 
REMARK    2  A    between atoms: N_7  and  C_8 
REMARK    3  A    between atoms: C_8  and  N_9 
REMARK    4  A    between atoms: N_9  and  C_10 
REMARK    5  A    between atoms: N_9  and  C_25 
REMARK    6  A    between atoms: C_10  and  C_11 
REMARK    7  A    between atoms: C_25  and  C_26 
REMARK    8  A    between atoms: C_26  and  N_27 
ROOT
HETATM    1  N   UNL     1      26.230  46.140  50.595  1.00  0.00    -0.352 N 
ENDROOT
BRANCH   1   2
HETATM    2  C   UNL     1      25.803  47.407  50.262  1.00  0.00     0.174 C 
HETATM    3  S   UNL     1      26.763  48.415  49.327  1.00  0.00    -0.041 SA
BRANCH   2   4
HETATM    4  N   UNL     1      24.507  47.777  50.428  1.00  0.00    -0.333 N 
HETATM    5  H   UNL     1      24.172  47.622  51.378  1.00  0.00     0.168 HD
BRANCH   4   6
HETATM    6  C   UNL     1      23.470  48.005  49.500  1.00  0.00     0.035 A 
HETATM    7  C   UNL     1      22.977  49.312  49.412  1.00  0.00     0.053 A 
HETATM    8  C   UNL     1      21.948  49.618  48.520  1.00  0.00     0.036 A 
HETATM    9  C   UNL     1      21.383  48.624  47.728  1.00  0.00     0.024 A 
HETATM   10 CL   UNL     1      21.383  51.237  48.399  1.00  0.00    -0.084 Cl
HETATM   11  C   UNL     1      21.844  47.314  47.838  1.00  0.00     0.004 A 
HETATM   12  C   UNL     1      22.878  47.005  48.728  1.00  0.00     0.029 A 
ENDBRANCH   4   6
ENDBRANCH   2   4
ENDBRANCH   1   2
BRANCH   1  13
HETATM   13  C   UNL     1      25.590  45.487  51.759  1.00  0.00     0.169 C 
BRANCH  13  14
HETATM   14  C   UNL     1      26.432  45.505  53.005  1.00  0.00     0.029 A 
HETATM   15  C   UNL     1      26.405  46.747  53.837  1.00  0.00     0.253 A 
HETATM   16  O   UNL     1      25.586  47.639  53.630  1.00  0.00    -0.268 OA
HETATM   17  N   UNL     1      27.312  46.855  54.854  1.00  0.00    -0.322 N 
HETATM   18  C   UNL     1      28.256  45.870  55.163  1.00  0.00     0.048 A 
HETATM   19  H   UNL     1      27.300  47.720  55.379  1.00  0.00     0.169 HD
HETATM   20  C   UNL     1      28.274  44.682  54.403  1.00  0.00    -0.006 A 
HETATM   21  C   UNL     1      29.163  46.082  56.204  1.00  0.00     0.070 A 
HETATM   22  C   UNL     1      29.213  43.684  54.688  1.00  0.00     0.053 A 
HETATM   23  C   UNL     1      27.334  44.546  53.288  1.00  0.00     0.028 A 
HETATM   24  C   UNL     1      30.101  43.918  55.719  1.00  0.00     0.106 A 
HETATM   25  C   UNL     1      30.078  45.082  56.451  1.00  0.00     0.107 A 
HETATM   26  O   UNL     1      31.086  43.071  56.124  1.00  0.00    -0.323 OA
HETATM   27  O   UNL     1      31.044  45.112  57.408  1.00  0.00    -0.323 OA
HETATM   28  C   UNL     1      31.698  43.845  57.179  1.00  0.00     0.352 A 
ENDBRANCH  13  14
ENDBRANCH   1  13
BRANCH   1  29
HETATM   29  C   UNL     1      26.887  45.237  49.623  1.00  0.00     0.153 C 
BRANCH  29  30
HETATM   30  C   UNL     1      26.584  43.736  49.787  1.00  0.00     0.254 C 
BRANCH  30  31
HETATM   31  N   UNL     1      25.774  43.178  48.632  1.00  0.00    -0.066 N 
HETATM   32  H   UNL     1      26.201  43.536  47.764  1.00  0.00     0.280 HD
HETATM   33  C   UNL     1      25.813  41.659  48.526  1.00  0.00     0.261 C 
HETATM   34  C   UNL     1      24.956  41.210  47.333  1.00  0.00     0.195 C 
HETATM   35  O   UNL     1      23.609  41.681  47.464  1.00  0.00    -0.388 OA
HETATM   36  C   UNL     1      23.552  43.111  47.486  1.00  0.00     0.195 C 
HETATM   37  C   UNL     1      24.334  43.668  48.678  1.00  0.00     0.261 C 
ENDBRANCH  30  31
ENDBRANCH  29  30
ENDBRANCH   1  29
TORSDOF 8
ENDMDL
MODEL 6
REMARK VINA RESULT:      -8.9      3.288      7.740
REMARK  8 active torsions:
REMARK  status: ('A' for Active; 'I' for Inactive)
REMARK    1  A    between atoms: C_6  and  N_7 
REMARK    2  A    between atoms: N_7  and  C_8 
REMARK    3  A    between atoms: C_8  and  N_9 
REMARK    4  A    between atoms: N_9  and  C_10 
REMARK    5  A    between atoms: N_9  and  C_25 
REMARK    6  A    between atoms: C_10  and  C_11 
REMARK    7  A    between atoms: C_25  and  C_26 
REMARK    8  A    between atoms: C_26  and  N_27 
ROOT
HETATM    1  N   UNL     1      24.907  44.682  50.472  1.00  0.00    -0.352 N 
ENDROOT
BRANCH   1   2
HETATM    2  C   UNL     1      24.154  45.426  49.590  1.00  0.00     0.174 C 
HETATM    3  S   UNL     1      23.430  44.702  48.261  1.00  0.00    -0.041 SA
BRANCH   2   4
HETATM    4  N   UNL     1      23.741  46.679  49.905  1.00  0.00    -0.333 N 
HETATM    5  H   UNL     1      22.989  46.685  50.593  1.00  0.00     0.168 HD
BRANCH   4   6
HETATM    6  C   UNL     1      23.902  47.915  49.244  1.00  0.00     0.035 A 
HETATM    7  C   UNL     1      25.196  48.447  49.206  1.00  0.00     0.053 A 
HETATM    8  C   UNL     1      25.437  49.668  48.575  1.00  0.00     0.036 A 
HETATM    9  C   UNL     1      24.392  50.382  47.997  1.00  0.00     0.024 A 
HETATM   10 CL   UNL     1      27.040  50.286  48.506  1.00  0.00    -0.084 Cl
HETATM   11  C   UNL     1      23.096  49.875  48.064  1.00  0.00     0.004 A 
HETATM   12  C   UNL     1      22.852  48.650  48.693  1.00  0.00     0.029 A 
ENDBRANCH   4   6
ENDBRANCH   2   4
ENDBRANCH   1   2
BRANCH   1  13
HETATM   13  C   UNL     1      24.465  44.641  51.884  1.00  0.00     0.169 C 
BRANCH  13  14
HETATM   14  C   UNL     1      25.556  44.954  52.872  1.00  0.00     0.029 A 
HETATM   15  C   UNL     1      25.842  46.395  53.149  1.00  0.00     0.253 A 
HETATM   16  O   UNL     1      25.097  47.285  52.748  1.00  0.00    -0.268 OA
HETATM   17  N   UNL     1      26.955  46.694  53.884  1.00  0.00    -0.322 N 
HETATM   18  C   UNL     1      27.835  45.733  54.394  1.00  0.00     0.048 A 
HETATM   19  H   UNL     1      27.150  47.678  54.026  1.00  0.00     0.169 HD
HETATM   20  C   UNL     1      27.560  44.369  54.162  1.00  0.00    -0.006 A 
HETATM   21  C   UNL     1      28.964  46.137  55.109  1.00  0.00     0.070 A 
HETATM   22  C   UNL     1      28.428  43.388  54.656  1.00  0.00     0.053 A 
HETATM   23  C   UNL     1      26.391  44.015  53.355  1.00  0.00     0.028 A 
HETATM   24  C   UNL     1      29.539  43.812  55.357  1.00  0.00     0.106 A 
HETATM   25  C   UNL     1      29.799  45.145  55.574  1.00  0.00     0.107 A 
HETATM   26  O   UNL     1      30.492  43.004  55.894  1.00  0.00    -0.323 OA
HETATM   27  O   UNL     1      30.949  45.341  56.275  1.00  0.00    -0.323 OA
HETATM   28  C   UNL     1      31.399  43.980  56.453  1.00  0.00     0.352 A 
ENDBRANCH  13  14
ENDBRANCH   1  13
BRANCH   1  29
HETATM   29  C   UNL     1      25.787  43.574  50.035  1.00  0.00     0.153 C 
BRANCH  29  30
HETATM   30  C   UNL     1      25.241  42.152  50.258  1.00  0.00     0.254 C 
BRANCH  30  31
HETATM   31  N   UNL     1      26.018  41.103  49.484  1.00  0.00    -0.066 N 
HETATM   32  H   UNL     1      25.395  40.758  48.737  1.00  0.00     0.280 HD
HETATM   33  C   UNL     1      27.258  41.643  48.784  1.00  0.00     0.261 C 
HETATM   34  C   UNL     1      27.963  40.497  48.044  1.00  0.00     0.195 C 
HETATM   35  O   UNL     1      28.303  39.437  48.946  1.00  0.00    -0.388 OA
HETATM   36  C   UNL     1      27.138  38.868  49.552  1.00  0.00     0.195 C 
HETATM   37  C   UNL     1      26.382  39.919  50.369  1.00  0.00     0.261 C 
ENDBRANCH  30  31
ENDBRANCH  29  30
ENDBRANCH   1  29
TORSDOF 8
ENDMDL
MODEL 7
REMARK VINA RESULT:      -8.7      2.465      5.921
REMARK  8 active torsions:
REMARK  status: ('A' for Active; 'I' for Inactive)
REMARK    1  A    between atoms: C_6  and  N_7 
REMARK    2  A    between atoms: N_7  and  C_8 
REMARK    3  A    between atoms: C_8  and  N_9 
REMARK    4  A    between atoms: N_9  and  C_10 
REMARK    5  A    between atoms: N_9  and  C_25 
REMARK    6  A    between atoms: C_10  and  C_11 
REMARK    7  A    between atoms: C_25  and  C_26 
REMARK    8  A    between atoms: C_26  and  N_27 
ROOT
HETATM    1  N   UNL     1      26.949  45.232  53.921  1.00  0.00    -0.352 N 
ENDROOT
BRANCH   1   2
HETATM    2  C   UNL     1      27.613  46.259  54.556  1.00  0.00     0.174 C 
HETATM    3  S   UNL     1      26.764  47.542  55.223  1.00  0.00    -0.041 SA
BRANCH   2   4
HETATM    4  N   UNL     1      28.918  46.138  54.910  1.00  0.00    -0.333 N 
HETATM    5  H   UNL     1      29.542  46.094  54.106  1.00  0.00     0.168 HD
BRANCH   4   6
HETATM    6  C   UNL     1      29.529  45.731  56.115  1.00  0.00     0.035 A 
HETATM    7  C   UNL     1      30.472  44.700  56.028  1.00  0.00     0.053 A 
HETATM    8  C   UNL     1      31.117  44.238  57.176  1.00  0.00     0.036 A 
HETATM    9  C   UNL     1      30.814  44.778  58.421  1.00  0.00     0.024 A 
HETATM   10 CL   UNL     1      32.301  42.998  57.043  1.00  0.00    -0.084 Cl
HETATM   11  C   UNL     1      29.848  45.778  58.519  1.00  0.00     0.004 A 
HETATM   12  C   UNL     1      29.203  46.246  57.370  1.00  0.00     0.029 A 
ENDBRANCH   4   6
ENDBRANCH   2   4
ENDBRANCH   1   2
BRANCH   1  13
HETATM   13  C   UNL     1      25.487  45.372  53.738  1.00  0.00     0.169 C 
BRANCH  13  14
HETATM   14  C   UNL     1      25.049  45.351  52.300  1.00  0.00     0.029 A 
HETATM   15  C   UNL     1      25.084  46.645  51.551  1.00  0.00     0.253 A 
HETATM   16  O   UNL     1      25.630  47.641  52.017  1.00  0.00    -0.268 OA
HETATM   17  N   UNL     1      24.503  46.683  50.314  1.00  0.00    -0.322 N 
HETATM   18  C   UNL     1      23.885  45.582  49.709  1.00  0.00     0.048 A 
HETATM   19  H   UNL     1      24.504  47.578  49.842  1.00  0.00     0.169 HD
HETATM   20  C   UNL     1      23.870  44.349  50.395  1.00  0.00    -0.006 A 
HETATM   21  C   UNL     1      23.292  45.724  48.454  1.00  0.00     0.070 A 
HETATM   22  C   UNL     1      23.253  43.235  49.814  1.00  0.00     0.053 A 
HETATM   23  C   UNL     1      24.459  44.282  51.733  1.00  0.00     0.028 A 
HETATM   24  C   UNL     1      22.670  43.401  48.574  1.00  0.00     0.106 A 
HETATM   25  C   UNL     1      22.687  44.609  47.916  1.00  0.00     0.107 A 
HETATM   26  O   UNL     1      22.017  42.438  47.870  1.00  0.00    -0.323 OA
HETATM   27  O   UNL     1      22.048  44.555  46.717  1.00  0.00    -0.323 OA
HETATM   28  C   UNL     1      21.601  43.182  46.704  1.00  0.00     0.352 A 
ENDBRANCH  13  14
ENDBRANCH   1  13
BRANCH   1  29
HETATM   29  C   UNL     1      27.630  44.282  53.012  1.00  0.00     0.153 C 
BRANCH  29  30
HETATM   30  C   UNL     1      27.498  42.791  53.373  1.00  0.00     0.254 C 
BRANCH  30  31
HETATM   31  N   UNL     1      27.382  41.904  52.148  1.00  0.00    -0.066 N 
HETATM   32  H   UNL     1      26.501  41.375  52.242  1.00  0.00     0.280 HD
HETATM   33  C   UNL     1      27.277  42.671  50.836  1.00  0.00     0.261 C 
HETATM   34  C   UNL     1      27.173  41.675  49.673  1.00  0.00     0.195 C 
HETATM   35  O   UNL     1      28.295  40.785  49.657  1.00  0.00    -0.388 OA
HETATM   36  C   UNL     1      28.361  40.001  50.853  1.00  0.00     0.195 C 
HETATM   37  C   UNL     1      28.522  40.898  52.083  1.00  0.00     0.261 C 
ENDBRANCH  30  31
ENDBRANCH  29  30
ENDBRANCH   1  29
TORSDOF 8
ENDMDL
MODEL 8
REMARK VINA RESULT:      -8.6      2.936      6.076
REMARK  8 active torsions:
REMARK  status: ('A' for Active; 'I' for Inactive)
REMARK    1  A    between atoms: C_6  and  N_7 
REMARK    2  A    between atoms: N_7  and  C_8 
REMARK    3  A    between atoms: C_8  and  N_9 
REMARK    4  A    between atoms: N_9  and  C_10 
REMARK    5  A    between atoms: N_9  and  C_25 
REMARK    6  A    between atoms: C_10  and  C_11 
REMARK    7  A    between atoms: C_25  and  C_26 
REMARK    8  A    between atoms: C_26  and  N_27 
ROOT
HETATM    1  N   UNL     1      28.028  43.490  52.459  1.00  0.00    -0.352 N 
ENDROOT
BRANCH   1   2
HETATM    2  C   UNL     1      27.779  44.109  53.665  1.00  0.00     0.174 C 
HETATM    3  S   UNL     1      26.601  43.519  54.702  1.00  0.00    -0.041 SA
BRANCH   2   4
HETATM    4  N   UNL     1      28.645  45.020  54.177  1.00  0.00    -0.333 N 
HETATM    5  H   UNL     1      29.105  45.575  53.457  1.00  0.00     0.168 HD
BRANCH   4   6
HETATM    6  C   UNL     1      29.268  45.116  55.439  1.00  0.00     0.035 A 
HETATM    7  C   UNL     1      30.299  44.208  55.706  1.00  0.00     0.053 A 
HETATM    8  C   UNL     1      30.961  44.236  56.934  1.00  0.00     0.036 A 
HETATM    9  C   UNL     1      30.589  45.149  57.916  1.00  0.00     0.024 A 
HETATM   10 CL   UNL     1      32.251  43.137  57.228  1.00  0.00    -0.084 Cl
HETATM   11  C   UNL     1      29.538  46.031  57.670  1.00  0.00     0.004 A 
HETATM   12  C   UNL     1      28.876  46.008  56.438  1.00  0.00     0.029 A 
ENDBRANCH   4   6
ENDBRANCH   2   4
ENDBRANCH   1   2
BRANCH   1  13
HETATM   13  C   UNL     1      27.739  44.256  51.225  1.00  0.00     0.169 C 
BRANCH  13  14
HETATM   14  C   UNL     1      26.491  43.812  50.512  1.00  0.00     0.029 A 
HETATM   15  C   UNL     1      25.186  44.344  51.010  1.00  0.00     0.253 A 
HETATM   16  O   UNL     1      25.138  45.255  51.832  1.00  0.00    -0.268 OA
HETATM   17  N   UNL     1      24.039  43.797  50.506  1.00  0.00    -0.322 N 
HETATM   18  C   UNL     1      24.017  42.775  49.551  1.00  0.00     0.048 A 
HETATM   19  H   UNL     1      23.168  44.146  50.887  1.00  0.00     0.169 HD
HETATM   20  C   UNL     1      25.242  42.284  49.053  1.00  0.00    -0.006 A 
HETATM   21  C   UNL     1      22.795  42.259  49.117  1.00  0.00     0.070 A 
HETATM   22  C   UNL     1      25.247  41.258  48.101  1.00  0.00     0.053 A 
HETATM   23  C   UNL     1      26.490  42.829  49.592  1.00  0.00     0.028 A 
HETATM   24  C   UNL     1      24.027  40.761  47.690  1.00  0.00     0.106 A 
HETATM   25  C   UNL     1      22.839  41.245  48.185  1.00  0.00     0.107 A 
HETATM   26  O   UNL     1      23.842  39.759  46.788  1.00  0.00    -0.323 OA
HETATM   27  O   UNL     1      21.759  40.608  47.656  1.00  0.00    -0.323 OA
HETATM   28  C   UNL     1      22.402  39.648  46.790  1.00  0.00     0.352 A 
ENDBRANCH  13  14
ENDBRANCH   1  13
BRANCH   1  29
HETATM   29  C   UNL     1      28.982  42.367  52.319  1.00  0.00     0.153 C 
BRANCH  29  30
HETATM   30  C   UNL     1      28.366  40.956  52.315  1.00  0.00     0.254 C 
BRANCH  30  31
HETATM   31  N   UNL     1      28.948  40.071  51.229  1.00  0.00    -0.066 N 
HETATM   32  H   UNL     1      29.711  40.604  50.784  1.00  0.00     0.280 HD
HETATM   33  C   UNL     1      29.578  38.785  51.749  1.00  0.00     0.261 C 
HETATM   34  C   UNL     1      30.123  37.972  50.567  1.00  0.00     0.195 C 
HETATM   35  O   UNL     1      29.087  37.688  49.618  1.00  0.00    -0.388 OA
HETATM   36  C   UNL     1      28.539  38.889  49.064  1.00  0.00     0.195 C 
HETATM   37  C   UNL     1      27.914  39.758  50.157  1.00  0.00     0.261 C 
ENDBRANCH  30  31
ENDBRANCH  29  30
ENDBRANCH   1  29
TORSDOF 8
ENDMDL
MODEL 9
REMARK VINA RESULT:      -8.6      3.109      6.106
REMARK  8 active torsions:
REMARK  status: ('A' for Active; 'I' for Inactive)
REMARK    1  A    between atoms: C_6  and  N_7 
REMARK    2  A    between atoms: N_7  and  C_8 
REMARK    3  A    between atoms: C_8  and  N_9 
REMARK    4  A    between atoms: N_9  and  C_10 
REMARK    5  A    between atoms: N_9  and  C_25 
REMARK    6  A    between atoms: C_10  and  C_11 
REMARK    7  A    between atoms: C_25  and  C_26 
REMARK    8  A    between atoms: C_26  and  N_27 
ROOT
HETATM    1  N   UNL     1      25.877  44.271  52.115  1.00  0.00    -0.352 N 
ENDROOT
BRANCH   1   2
HETATM    2  C   UNL     1      24.900  44.788  51.293  1.00  0.00     0.174 C 
HETATM    3  S   UNL     1      23.854  43.772  50.465  1.00  0.00    -0.041 SA
BRANCH   2   4
HETATM    4  N   UNL     1      24.567  46.103  51.342  1.00  0.00    -0.333 N 
HETATM    5  H   UNL     1      23.838  46.299  52.026  1.00  0.00     0.168 HD
BRANCH   4   6
HETATM    6  C   UNL     1      24.777  47.158  50.429  1.00  0.00     0.035 A 
HETATM    7  C   UNL     1      26.096  47.596  50.262  1.00  0.00     0.053 A 
HETATM    8  C   UNL     1      26.385  48.639  49.381  1.00  0.00     0.036 A 
HETATM    9  C   UNL     1      25.365  49.271  48.678  1.00  0.00     0.024 A 
HETATM   10 CL   UNL     1      28.016  49.136  49.161  1.00  0.00    -0.084 Cl
HETATM   11  C   UNL     1      24.045  48.865  48.869  1.00  0.00     0.004 A 
HETATM   12  C   UNL     1      23.753  47.817  49.748  1.00  0.00     0.029 A 
ENDBRANCH   4   6
ENDBRANCH   2   4
ENDBRANCH   1   2
BRANCH   1  13
HETATM   13  C   UNL     1      27.203  43.999  51.514  1.00  0.00     0.169 C 
BRANCH  13  14
HETATM   14  C   UNL     1      27.343  42.611  50.952  1.00  0.00     0.029 A 
HETATM   15  C   UNL     1      27.783  41.530  51.887  1.00  0.00     0.253 A 
HETATM   16  O   UNL     1      27.837  41.715  53.100  1.00  0.00    -0.268 OA
HETATM   17  N   UNL     1      28.108  40.315  51.351  1.00  0.00    -0.322 N 
HETATM   18  C   UNL     1      28.046  40.025  49.983  1.00  0.00     0.048 A 
HETATM   19  H   UNL     1      28.440  39.611  51.998  1.00  0.00     0.169 HD
HETATM   20  C   UNL     1      27.607  41.029  49.095  1.00  0.00    -0.006 A 
HETATM   21  C   UNL     1      28.426  38.762  49.526  1.00  0.00     0.070 A 
HETATM   22  C   UNL     1      27.543  40.765  47.721  1.00  0.00     0.053 A 
HETATM   23  C   UNL     1      27.278  42.350  49.633  1.00  0.00     0.028 A 
HETATM   24  C   UNL     1      27.926  39.511  47.292  1.00  0.00     0.106 A 
HETATM   25  C   UNL     1      28.357  38.542  48.167  1.00  0.00     0.107 A 
HETATM   26  O   UNL     1      27.943  39.086  46.000  1.00  0.00    -0.323 OA
HETATM   27  O   UNL     1      28.698  37.386  47.534  1.00  0.00    -0.323 OA
HETATM   28  C   UNL     1      28.458  37.746  46.156  1.00  0.00     0.352 A 
ENDBRANCH  13  14
ENDBRANCH   1  13
BRANCH   1  29
HETATM   29  C   UNL     1      25.852  44.431  53.587  1.00  0.00     0.153 C 
BRANCH  29  30
HETATM   30  C   UNL     1      26.599  45.657  54.144  1.00  0.00     0.254 C 
BRANCH  30  31
HETATM   31  N   UNL     1      27.690  45.275  55.126  1.00  0.00    -0.066 N 
HETATM   32  H   UNL     1      27.304  44.536  55.733  1.00  0.00     0.280 HD
HETATM   33  C   UNL     1      28.931  44.679  54.472  1.00  0.00     0.261 C 
HETATM   34  C   UNL     1      29.963  44.341  55.556  1.00  0.00     0.195 C 
HETATM   35  O   UNL     1      30.298  45.502  56.327  1.00  0.00    -0.388 OA
HETATM   36  C   UNL     1      29.154  46.027  57.009  1.00  0.00     0.195 C 
HETATM   37  C   UNL     1      28.073  46.452  56.013  1.00  0.00     0.261 C 
ENDBRANCH  30  31
ENDBRANCH  29  30
ENDBRANCH   1  29
TORSDOF 8
ENDMDL
MODEL 10
REMARK VINA RESULT:      -8.6      1.677      2.062
REMARK  8 active torsions:
REMARK  status: ('A' for Active; 'I' for Inactive)
REMARK    1  A    between atoms: C_6  and  N_7 
REMARK    2  A    between atoms: N_7  and  C_8 
REMARK    3  A    between atoms: C_8  and  N_9 
REMARK    4  A    between atoms: N_9  and  C_10 
REMARK    5  A    between atoms: N_9  and  C_25 
REMARK    6  A    between atoms: C_10  and  C_11 
REMARK    7  A    between atoms: C_25  and  C_26 
REMARK    8  A    between atoms: C_26  and  N_27 
ROOT
HETATM    1  N   UNL     1      25.742  44.665  51.943  1.00  0.00    -0.352 N 
ENDROOT
BRANCH   1   2
HETATM    2  C   UNL     1      26.132  44.892  53.245  1.00  0.00     0.174 C 
HETATM    3  S   UNL     1      25.256  44.251  54.523  1.00  0.00    -0.041 SA
BRANCH   2   4
HETATM    4  N   UNL     1      27.363  45.386  53.532  1.00  0.00    -0.333 N 
HETATM    5  H   UNL     1      27.624  46.166  52.931  1.00  0.00     0.168 HD
BRANCH   4   6
HETATM    6  C   UNL     1      28.452  44.837  54.241  1.00  0.00     0.035 A 
HETATM    7  C   UNL     1      28.895  45.545  55.365  1.00  0.00     0.053 A 
HETATM    8  C   UNL     1      29.970  45.070  56.117  1.00  0.00     0.036 A 
HETATM    9  C   UNL     1      30.630  43.903  55.745  1.00  0.00     0.024 A 
HETATM   10 CL   UNL     1      30.474  45.932  57.516  1.00  0.00    -0.084 Cl
HETATM   11  C   UNL     1      30.218  43.215  54.606  1.00  0.00     0.004 A 
HETATM   12  C   UNL     1      29.138  43.686  53.853  1.00  0.00     0.029 A 
ENDBRANCH   4   6
ENDBRANCH   2   4
ENDBRANCH   1   2
BRANCH   1  13
HETATM   13  C   UNL     1      24.767  43.577  51.700  1.00  0.00     0.169 C 
BRANCH  13  14
HETATM   14  C   UNL     1      25.191  42.607  50.632  1.00  0.00     0.029 A 
HETATM   15  C   UNL     1      24.133  42.092  49.709  1.00  0.00     0.253 A 
HETATM   16  O   UNL     1      23.008  42.584  49.688  1.00  0.00    -0.268 OA
HETATM   17  N   UNL     1      24.462  41.065  48.870  1.00  0.00    -0.322 N 
HETATM   18  C   UNL     1      25.730  40.473  48.822  1.00  0.00     0.048 A 
HETATM   19  H   UNL     1      23.720  40.707  48.282  1.00  0.00     0.169 HD
HETATM   20  C   UNL     1      26.743  40.968  49.669  1.00  0.00    -0.006 A 
HETATM   21  C   UNL     1      25.964  39.408  47.951  1.00  0.00     0.070 A 
HETATM   22  C   UNL     1      28.018  40.389  49.644  1.00  0.00     0.053 A 
HETATM   23  C   UNL     1      26.416  42.050  50.600  1.00  0.00     0.028 A 
HETATM   24  C   UNL     1      28.224  39.335  48.778  1.00  0.00     0.106 A 
HETATM   25  C   UNL     1      27.228  38.858  47.959  1.00  0.00     0.107 A 
HETATM   26  O   UNL     1      29.388  38.646  48.631  1.00  0.00    -0.323 OA
HETATM   27  O   UNL     1      27.640  37.810  47.196  1.00  0.00    -0.323 OA
HETATM   28  C   UNL     1      29.005  37.662  47.646  1.00  0.00     0.352 A 
ENDBRANCH  13  14
ENDBRANCH   1  13
BRANCH   1  29
HETATM   29  C   UNL     1      25.837  45.699  50.888  1.00  0.00     0.153 C 
BRANCH  29  30
HETATM   30  C   UNL     1      25.053  46.999  51.147  1.00  0.00     0.254 C 
BRANCH  30  31
HETATM   31  N   UNL     1      23.860  47.153  50.224  1.00  0.00    -0.066 N 
HETATM   32  H   UNL     1      23.016  47.118  50.815  1.00  0.00     0.280 HD
HETATM   33  C   UNL     1      23.809  48.489  49.494  1.00  0.00     0.261 C 
HETATM   34  C   UNL     1      22.571  48.527  48.588  1.00  0.00     0.195 C 
HETATM   35  O   UNL     1      22.580  47.435  47.660  1.00  0.00    -0.388 OA
HETATM   36  C   UNL     1      22.549  46.173  48.333  1.00  0.00     0.195 C 
HETATM   37  C   UNL     1      23.778  46.003  49.230  1.00  0.00     0.261 C 
ENDBRANCH  30  31
ENDBRANCH  29  30
ENDBRANCH   1  29
TORSDOF 8
ENDMDL
