MODEL 1
REMARK VINA RESULT:      -8.3      0.000      0.000
REMARK  4 active torsions:
REMARK  status: ('A' for Active; 'I' for Inactive)
REMARK    1  A    between atoms: C_8  and  N_9 
REMARK    2  A    between atoms: C_11  and  C_12 
REMARK    3  A    between atoms: C_13  and  O_14 
REMARK    4  A    between atoms: O_14  and  C_15 
ROOT
HETATM    1  C   UNL     1      34.120  51.676  44.068  1.00  0.00     0.002 A 
HETATM    2  C   UNL     1      34.717  51.578  42.805  1.00  0.00     0.034 A 
HETATM    3  C   UNL     1      33.891  51.512  41.674  1.00  0.00     0.103 A 
HETATM    4  C   UNL     1      32.508  51.545  41.834  1.00  0.00     0.083 A 
HETATM    5  N   UNL     1      32.044  51.438  40.551  1.00  0.00    -0.151 N 
HETATM    6  C   UNL     1      33.100  51.400  39.676  1.00  0.00     0.734 A 
HETATM    7  N   UNL     1      32.937  51.360  38.334  1.00  0.00    -0.033 NA
HETATM    8  C   UNL     1      31.752  51.452  37.850  1.00  0.00     0.193 C 
HETATM    9  N   UNL     1      30.586  51.541  38.616  1.00  0.00    -0.338 N 
HETATM   10  C   UNL     1      30.680  51.424  40.069  1.00  0.00     0.246 C 
HETATM   11  N   UNL     1      34.229  51.419  40.348  1.00  0.00    -0.060 NA
HETATM   12  C   UNL     1      31.888  51.647  43.084  1.00  0.00     0.033 A 
HETATM   13  C   UNL     1      32.730  51.711  44.201  1.00  0.00     0.002 A 
HETATM   14  H   UNL     1      29.676  51.565  38.185  1.00  0.00     0.164 HD
ENDROOT
BRANCH  10  15
HETATM   15  C   UNL     1      29.891  50.181  40.476  1.00  0.00     0.020 A 
HETATM   16  C   UNL     1      28.908  50.284  41.489  1.00  0.00     0.085 A 
HETATM   17  C   UNL     1      28.206  49.146  41.904  1.00  0.00     0.039 A 
HETATM   18  C   UNL     1      28.444  47.911  41.298  1.00  0.00     0.022 A 
HETATM   19  C   UNL     1      29.372  47.810  40.269  1.00  0.00     0.011 A 
HETATM   20 BR   UNL     1      29.677  46.140  39.441  1.00  0.00    -0.051 Br
HETATM   21  C   UNL     1      30.085  48.931  39.851  1.00  0.00     0.033 A 
BRANCH  16  22
HETATM   22  O   UNL     1      28.702  51.546  41.979  1.00  0.00    -0.289 OA
BRANCH  22  23
HETATM   23  C   UNL     1      27.716  52.355  41.345  1.00  0.00     0.505 C 
HETATM   24  F   UNL     1      28.301  53.494  40.908  1.00  0.00    -0.184 F 
HETATM   25  F   UNL     1      27.308  51.671  40.248  1.00  0.00    -0.184 F 
ENDBRANCH  22  23
ENDBRANCH  16  22
ENDBRANCH  10  15
BRANCH   8  26
HETATM   26  N   UNL     1      31.501  51.464  36.525  1.00  0.00    -0.272 NA
HETATM   27  H   UNL     1      30.889  50.690  36.269  1.00  0.00     0.127 HD
HETATM   28  H   UNL     1      32.309  51.493  35.917  1.00  0.00     0.127 HD
ENDBRANCH   8  26
TORSDOF 4
ENDMDL
MODEL 2
REMARK VINA RESULT:      -7.6     10.065     11.811
REMARK  4 active torsions:
REMARK  status: ('A' for Active; 'I' for Inactive)
REMARK    1  A    between atoms: C_8  and  N_9 
REMARK    2  A    between atoms: C_11  and  C_12 
REMARK    3  A    between atoms: C_13  and  O_14 
REMARK    4  A    between atoms: O_14  and  C_15 
ROOT
HETATM    1  C   UNL     1      26.125  42.959  51.539  1.00  0.00     0.002 A 
HETATM    2  C   UNL     1      27.118  43.585  50.775  1.00  0.00     0.034 A 
HETATM    3  C   UNL     1      26.884  44.883  50.303  1.00  0.00     0.103 A 
HETATM    4  C   UNL     1      25.679  45.513  50.601  1.00  0.00     0.083 A 
HETATM    5  N   UNL     1      25.795  46.721  49.970  1.00  0.00    -0.151 N 
HETATM    6  C   UNL     1      27.028  46.821  49.376  1.00  0.00     0.734 A 
HETATM    7  N   UNL     1      27.444  47.935  48.733  1.00  0.00    -0.033 NA
HETATM    8  C   UNL     1      26.696  48.978  48.752  1.00  0.00     0.193 C 
HETATM    9  N   UNL     1      25.436  49.040  49.354  1.00  0.00    -0.338 N 
HETATM   10  C   UNL     1      24.859  47.824  49.922  1.00  0.00     0.246 C 
HETATM   11  N   UNL     1      27.691  45.698  49.550  1.00  0.00    -0.060 NA
HETATM   12  C   UNL     1      24.673  44.911  51.364  1.00  0.00     0.033 A 
HETATM   13  C   UNL     1      24.926  43.614  51.827  1.00  0.00     0.002 A 
HETATM   14  H   UNL     1      24.869  49.870  49.300  1.00  0.00     0.164 HD
ENDROOT
BRANCH  10  15
HETATM   15  C   UNL     1      23.582  47.520  49.141  1.00  0.00     0.020 A 
HETATM   16  C   UNL     1      22.534  48.471  49.127  1.00  0.00     0.085 A 
HETATM   17  C   UNL     1      21.341  48.191  48.453  1.00  0.00     0.039 A 
HETATM   18  C   UNL     1      21.187  46.989  47.759  1.00  0.00     0.022 A 
HETATM   19  C   UNL     1      22.229  46.070  47.726  1.00  0.00     0.011 A 
HETATM   20 BR   UNL     1      22.023  44.452  46.772  1.00  0.00    -0.051 Br
HETATM   21  C   UNL     1      23.420  46.330  48.401  1.00  0.00     0.033 A 
BRANCH  16  22
HETATM   22  O   UNL     1      22.800  49.645  49.782  1.00  0.00    -0.289 OA
BRANCH  22  23
HETATM   23  C   UNL     1      21.807  50.665  49.752  1.00  0.00     0.505 C 
HETATM   24  F   UNL     1      21.750  51.253  50.969  1.00  0.00    -0.184 F 
HETATM   25  F   UNL     1      22.247  51.602  48.877  1.00  0.00    -0.184 F 
ENDBRANCH  22  23
ENDBRANCH  16  22
ENDBRANCH  10  15
BRANCH   8  26
HETATM   26  N   UNL     1      27.049  50.144  48.175  1.00  0.00    -0.272 NA
HETATM   27  H   UNL     1      27.679  50.669  48.780  1.00  0.00     0.127 HD
HETATM   28  H   UNL     1      26.291  50.732  47.856  1.00  0.00     0.127 HD
ENDBRANCH   8  26
TORSDOF 4
ENDMDL
MODEL 3
REMARK VINA RESULT:      -7.5     10.284     11.975
REMARK  4 active torsions:
REMARK  status: ('A' for Active; 'I' for Inactive)
REMARK    1  A    between atoms: C_8  and  N_9 
REMARK    2  A    between atoms: C_11  and  C_12 
REMARK    3  A    between atoms: C_13  and  O_14 
REMARK    4  A    between atoms: O_14  and  C_15 
ROOT
HETATM    1  C   UNL     1      27.546  49.605  48.866  1.00  0.00     0.002 A 
HETATM    2  C   UNL     1      26.542  50.285  48.166  1.00  0.00     0.034 A 
HETATM    3  C   UNL     1      25.233  49.787  48.214  1.00  0.00     0.103 A 
HETATM    4  C   UNL     1      24.965  48.637  48.951  1.00  0.00     0.083 A 
HETATM    5  N   UNL     1      23.626  48.444  48.751  1.00  0.00    -0.151 N 
HETATM    6  C   UNL     1      23.118  49.460  47.980  1.00  0.00     0.734 A 
HETATM    7  N   UNL     1      21.806  49.562  47.674  1.00  0.00    -0.033 NA
HETATM    8  C   UNL     1      20.980  48.730  48.198  1.00  0.00     0.193 C 
HETATM    9  N   UNL     1      21.344  47.671  49.035  1.00  0.00    -0.338 N 
HETATM   10  C   UNL     1      22.761  47.407  49.272  1.00  0.00     0.246 C 
HETATM   11  N   UNL     1      24.092  50.270  47.626  1.00  0.00    -0.060 NA
HETATM   12  C   UNL     1      25.949  47.942  49.662  1.00  0.00     0.033 A 
HETATM   13  C   UNL     1      27.250  48.455  49.601  1.00  0.00     0.002 A 
HETATM   14  H   UNL     1      20.661  47.018  49.382  1.00  0.00     0.164 HD
ENDROOT
BRANCH  10  15
HETATM   15  C   UNL     1      23.061  46.014  48.720  1.00  0.00     0.020 A 
HETATM   16  C   UNL     1      23.800  45.100  49.508  1.00  0.00     0.085 A 
HETATM   17  C   UNL     1      24.121  43.836  49.002  1.00  0.00     0.039 A 
HETATM   18  C   UNL     1      23.685  43.453  47.732  1.00  0.00     0.022 A 
HETATM   19  C   UNL     1      22.918  44.326  46.970  1.00  0.00     0.011 A 
HETATM   20 BR   UNL     1      22.315  43.798  45.259  1.00  0.00    -0.051 Br
HETATM   21  C   UNL     1      22.597  45.592  47.456  1.00  0.00     0.033 A 
BRANCH  16  22
HETATM   22  O   UNL     1      24.129  45.542  50.763  1.00  0.00    -0.289 OA
BRANCH  22  23
HETATM   23  C   UNL     1      24.979  44.720  51.557  1.00  0.00     0.505 C 
HETATM   24  F   UNL     1      26.252  45.158  51.429  1.00  0.00    -0.184 F 
HETATM   25  F   UNL     1      24.614  44.925  52.846  1.00  0.00    -0.184 F 
ENDBRANCH  22  23
ENDBRANCH  16  22
ENDBRANCH  10  15
BRANCH   8  26
HETATM   26  N   UNL     1      19.650  48.783  47.982  1.00  0.00    -0.272 NA
HETATM   27  H   UNL     1      19.140  48.460  48.803  1.00  0.00     0.127 HD
HETATM   28  H   UNL     1      19.313  48.317  47.149  1.00  0.00     0.127 HD
ENDBRANCH   8  26
TORSDOF 4
ENDMDL
MODEL 4
REMARK VINA RESULT:      -7.5     11.099     12.944
REMARK  4 active torsions:
REMARK  status: ('A' for Active; 'I' for Inactive)
REMARK    1  A    between atoms: C_8  and  N_9 
REMARK    2  A    between atoms: C_11  and  C_12 
REMARK    3  A    between atoms: C_13  and  O_14 
REMARK    4  A    between atoms: O_14  and  C_15 
ROOT
HETATM    1  C   UNL     1      26.093  46.040  52.109  1.00  0.00     0.002 A 
HETATM    2  C   UNL     1      25.239  44.946  51.926  1.00  0.00     0.034 A 
HETATM    3  C   UNL     1      24.295  44.996  50.891  1.00  0.00     0.103 A 
HETATM    4  C   UNL     1      24.231  46.124  50.077  1.00  0.00     0.083 A 
HETATM    5  N   UNL     1      23.205  45.831  49.221  1.00  0.00    -0.151 N 
HETATM    6  C   UNL     1      22.726  44.572  49.480  1.00  0.00     0.734 A 
HETATM    7  N   UNL     1      21.750  43.993  48.745  1.00  0.00    -0.033 NA
HETATM    8  C   UNL     1      21.312  44.604  47.705  1.00  0.00     0.193 C 
HETATM    9  N   UNL     1      21.736  45.870  47.291  1.00  0.00    -0.338 N 
HETATM   10  C   UNL     1      22.667  46.619  48.132  1.00  0.00     0.246 C 
HETATM   11  N   UNL     1      23.364  44.063  50.511  1.00  0.00    -0.060 NA
HETATM   12  C   UNL     1      25.075  47.227  50.237  1.00  0.00     0.033 A 
HETATM   13  C   UNL     1      26.010  47.159  51.276  1.00  0.00     0.002 A 
HETATM   14  H   UNL     1      21.326  46.326  46.491  1.00  0.00     0.164 HD
ENDROOT
BRANCH  10  15
HETATM   15  C   UNL     1      21.951  47.890  48.582  1.00  0.00     0.020 A 
HETATM   16  C   UNL     1      22.565  49.146  48.364  1.00  0.00     0.085 A 
HETATM   17  C   UNL     1      21.943  50.319  48.808  1.00  0.00     0.039 A 
HETATM   18  C   UNL     1      20.697  50.262  49.436  1.00  0.00     0.022 A 
HETATM   19  C   UNL     1      20.064  49.037  49.611  1.00  0.00     0.011 A 
HETATM   20 BR   UNL     1      18.370  48.967  50.445  1.00  0.00    -0.051 Br
HETATM   21  C   UNL     1      20.674  47.860  49.183  1.00  0.00     0.033 A 
BRANCH  16  22
HETATM   22  O   UNL     1      23.754  49.107  47.685  1.00  0.00    -0.289 OA
BRANCH  22  23
HETATM   23  C   UNL     1      24.671  50.179  47.883  1.00  0.00     0.505 C 
HETATM   24  F   UNL     1      24.930  50.292  49.205  1.00  0.00    -0.184 F 
HETATM   25  F   UNL     1      25.827  49.809  47.280  1.00  0.00    -0.184 F 
ENDBRANCH  22  23
ENDBRANCH  16  22
ENDBRANCH  10  15
BRANCH   8  26
HETATM   26  N   UNL     1      20.372  44.084  46.890  1.00  0.00    -0.272 NA
HETATM   27  H   UNL     1      20.129  43.138  47.180  1.00  0.00     0.127 HD
HETATM   28  H   UNL     1      20.575  44.110  45.899  1.00  0.00     0.127 HD
ENDBRANCH   8  26
TORSDOF 4
ENDMDL
MODEL 5
REMARK VINA RESULT:      -7.5     13.064     14.768
REMARK  4 active torsions:
REMARK  status: ('A' for Active; 'I' for Inactive)
REMARK    1  A    between atoms: C_8  and  N_9 
REMARK    2  A    between atoms: C_11  and  C_12 
REMARK    3  A    between atoms: C_13  and  O_14 
REMARK    4  A    between atoms: O_14  and  C_15 
ROOT
HETATM    1  C   UNL     1      17.733  51.091  43.897  1.00  0.00     0.002 A 
HETATM    2  C   UNL     1      17.969  49.720  43.739  1.00  0.00     0.034 A 
HETATM    3  C   UNL     1      18.190  48.940  44.883  1.00  0.00     0.103 A 
HETATM    4  C   UNL     1      18.172  49.543  46.137  1.00  0.00     0.083 A 
HETATM    5  N   UNL     1      18.444  48.505  46.985  1.00  0.00    -0.151 N 
HETATM    6  C   UNL     1      18.562  47.339  46.272  1.00  0.00     0.734 A 
HETATM    7  N   UNL     1      18.769  46.139  46.860  1.00  0.00    -0.033 NA
HETATM    8  C   UNL     1      18.764  46.067  48.141  1.00  0.00     0.193 C 
HETATM    9  N   UNL     1      18.611  47.161  48.998  1.00  0.00    -0.338 N 
HETATM   10  C   UNL     1      18.549  48.505  48.429  1.00  0.00     0.246 C 
HETATM   11  N   UNL     1      18.435  47.594  44.989  1.00  0.00    -0.060 NA
HETATM   12  C   UNL     1      17.935  50.909  46.321  1.00  0.00     0.033 A 
HETATM   13  C   UNL     1      17.716  51.671  45.168  1.00  0.00     0.002 A 
HETATM   14  H   UNL     1      18.661  47.055  49.998  1.00  0.00     0.164 HD
ENDROOT
BRANCH  10  15
HETATM   15  C   UNL     1      19.753  49.279  48.963  1.00  0.00     0.020 A 
HETATM   16  C   UNL     1      19.548  50.319  49.901  1.00  0.00     0.085 A 
HETATM   17  C   UNL     1      20.634  51.067  50.368  1.00  0.00     0.039 A 
HETATM   18  C   UNL     1      21.931  50.771  49.942  1.00  0.00     0.022 A 
HETATM   19  C   UNL     1      22.146  49.720  49.059  1.00  0.00     0.011 A 
HETATM   20 BR   UNL     1      23.904  49.312  48.498  1.00  0.00    -0.051 Br
HETATM   21  C   UNL     1      21.075  48.972  48.577  1.00  0.00     0.033 A 
BRANCH  16  22
HETATM   22  O   UNL     1      18.251  50.494  50.307  1.00  0.00    -0.289 OA
BRANCH  22  23
HETATM   23  C   UNL     1      17.610  51.722  49.977  1.00  0.00     0.505 C 
HETATM   24  F   UNL     1      18.403  52.414  49.127  1.00  0.00    -0.184 F 
HETATM   25  F   UNL     1      16.485  51.395  49.296  1.00  0.00    -0.184 F 
ENDBRANCH  22  23
ENDBRANCH  16  22
ENDBRANCH  10  15
BRANCH   8  26
HETATM   26  N   UNL     1      18.919  44.906  48.811  1.00  0.00    -0.272 NA
HETATM   27  H   UNL     1      19.107  45.082  49.796  1.00  0.00     0.127 HD
HETATM   28  H   UNL     1      19.596  44.258  48.430  1.00  0.00     0.127 HD
ENDBRANCH   8  26
TORSDOF 4
ENDMDL
MODEL 6
REMARK VINA RESULT:      -7.4     14.757     16.481
REMARK  4 active torsions:
REMARK  status: ('A' for Active; 'I' for Inactive)
REMARK    1  A    between atoms: C_8  and  N_9 
REMARK    2  A    between atoms: C_11  and  C_12 
REMARK    3  A    between atoms: C_13  and  O_14 
REMARK    4  A    between atoms: O_14  and  C_15 
ROOT
HETATM    1  C   UNL     1      20.554  50.873  49.706  1.00  0.00     0.002 A 
HETATM    2  C   UNL     1      19.805  49.700  49.851  1.00  0.00     0.034 A 
HETATM    3  C   UNL     1      18.631  49.553  49.099  1.00  0.00     0.103 A 
HETATM    4  C   UNL     1      18.241  50.572  48.234  1.00  0.00     0.083 A 
HETATM    5  N   UNL     1      17.071  50.100  47.706  1.00  0.00    -0.151 N 
HETATM    6  C   UNL     1      16.812  48.844  48.193  1.00  0.00     0.734 A 
HETATM    7  N   UNL     1      15.751  48.107  47.794  1.00  0.00    -0.033 NA
HETATM    8  C   UNL     1      15.001  48.558  46.854  1.00  0.00     0.193 C 
HETATM    9  N   UNL     1      15.167  49.799  46.233  1.00  0.00    -0.338 N 
HETATM   10  C   UNL     1      16.193  50.712  46.731  1.00  0.00     0.246 C 
HETATM   11  N   UNL     1      17.741  48.510  49.061  1.00  0.00    -0.060 NA
HETATM   12  C   UNL     1      18.974  51.752  48.068  1.00  0.00     0.033 A 
HETATM   13  C   UNL     1      20.143  51.879  48.828  1.00  0.00     0.002 A 
HETATM   14  H   UNL     1      14.522  50.125  45.532  1.00  0.00     0.164 HD
ENDROOT
BRANCH  10  15
HETATM   15  C   UNL     1      15.480  51.964  47.238  1.00  0.00     0.020 A 
HETATM   16  C   UNL     1      14.986  52.906  46.305  1.00  0.00     0.085 A 
HETATM   17  C   UNL     1      14.368  54.079  46.752  1.00  0.00     0.039 A 
HETATM   18  C   UNL     1      14.201  54.312  48.119  1.00  0.00     0.022 A 
HETATM   19  C   UNL     1      14.639  53.370  49.041  1.00  0.00     0.011 A 
HETATM   20 BR   UNL     1      14.396  53.681  50.888  1.00  0.00    -0.051 Br
HETATM   21  C   UNL     1      15.265  52.201  48.612  1.00  0.00     0.033 A 
BRANCH  16  22
HETATM   22  O   UNL     1      15.139  52.562  44.988  1.00  0.00    -0.289 OA
BRANCH  22  23
HETATM   23  C   UNL     1      15.983  53.376  44.180  1.00  0.00     0.505 C 
HETATM   24  F   UNL     1      17.182  53.504  44.793  1.00  0.00    -0.184 F 
HETATM   25  F   UNL     1      16.194  52.687  43.032  1.00  0.00    -0.184 F 
ENDBRANCH  22  23
ENDBRANCH  16  22
ENDBRANCH  10  15
BRANCH   8  26
HETATM   26  N   UNL     1      13.948  47.873  46.365  1.00  0.00    -0.272 NA
HETATM   27  H   UNL     1      13.222  48.511  46.043  1.00  0.00     0.127 HD
HETATM   28  H   UNL     1      13.555  47.165  46.971  1.00  0.00     0.127 HD
ENDBRANCH   8  26
TORSDOF 4
ENDMDL
MODEL 7
REMARK VINA RESULT:      -7.3     12.092     14.612
REMARK  4 active torsions:
REMARK  status: ('A' for Active; 'I' for Inactive)
REMARK    1  A    between atoms: C_8  and  N_9 
REMARK    2  A    between atoms: C_11  and  C_12 
REMARK    3  A    between atoms: C_13  and  O_14 
REMARK    4  A    between atoms: O_14  and  C_15 
ROOT
HETATM    1  C   UNL     1      17.192  51.059  44.920  1.00  0.00     0.002 A 
HETATM    2  C   UNL     1      16.457  50.875  46.098  1.00  0.00     0.034 A 
HETATM    3  C   UNL     1      17.120  50.403  47.238  1.00  0.00     0.103 A 
HETATM    4  C   UNL     1      18.483  50.128  47.172  1.00  0.00     0.083 A 
HETATM    5  N   UNL     1      18.770  49.675  48.431  1.00  0.00    -0.151 N 
HETATM    6  C   UNL     1      17.646  49.733  49.215  1.00  0.00     0.734 A 
HETATM    7  N   UNL     1      17.650  49.406  50.527  1.00  0.00    -0.033 NA
HETATM    8  C   UNL     1      18.767  49.116  51.090  1.00  0.00     0.193 C 
HETATM    9  N   UNL     1      19.998  49.060  50.431  1.00  0.00    -0.338 N 
HETATM   10  C   UNL     1      20.037  49.241  48.981  1.00  0.00     0.246 C 
HETATM   11  N   UNL     1      16.629  50.150  48.494  1.00  0.00    -0.060 NA
HETATM   12  C   UNL     1      19.240  50.306  46.009  1.00  0.00     0.033 A 
HETATM   13  C   UNL     1      18.560  50.779  44.881  1.00  0.00     0.002 A 
HETATM   14  H   UNL     1      20.838  48.782  50.910  1.00  0.00     0.164 HD
ENDROOT
BRANCH  10  15
HETATM   15  C   UNL     1      20.563  47.941  48.376  1.00  0.00     0.020 A 
HETATM   16  C   UNL     1      21.957  47.696  48.363  1.00  0.00     0.085 A 
HETATM   17  C   UNL     1      22.460  46.531  47.774  1.00  0.00     0.039 A 
HETATM   18  C   UNL     1      21.590  45.585  47.227  1.00  0.00     0.022 A 
HETATM   19  C   UNL     1      20.218  45.794  47.279  1.00  0.00     0.011 A 
HETATM   20 BR   UNL     1      19.044  44.503  46.554  1.00  0.00    -0.051 Br
HETATM   21  C   UNL     1      19.701  46.953  47.854  1.00  0.00     0.033 A 
BRANCH  16  22
HETATM   22  O   UNL     1      22.724  48.650  48.977  1.00  0.00    -0.289 OA
BRANCH  22  23
HETATM   23  C   UNL     1      23.663  49.366  48.180  1.00  0.00     0.505 C 
HETATM   24  F   UNL     1      22.987  50.138  47.299  1.00  0.00    -0.184 F 
HETATM   25  F   UNL     1      24.320  50.201  49.021  1.00  0.00    -0.184 F 
ENDBRANCH  22  23
ENDBRANCH  16  22
ENDBRANCH  10  15
BRANCH   8  26
HETATM   26  N   UNL     1      18.871  48.820  52.402  1.00  0.00    -0.272 NA
HETATM   27  H   UNL     1      18.626  49.627  52.973  1.00  0.00     0.127 HD
HETATM   28  H   UNL     1      19.754  48.427  52.702  1.00  0.00     0.127 HD
ENDBRANCH   8  26
TORSDOF 4
ENDMDL
MODEL 8
REMARK VINA RESULT:      -7.2     25.786     26.893
REMARK  4 active torsions:
REMARK  status: ('A' for Active; 'I' for Inactive)
REMARK    1  A    between atoms: C_8  and  N_9 
REMARK    2  A    between atoms: C_11  and  C_12 
REMARK    3  A    between atoms: C_13  and  O_14 
REMARK    4  A    between atoms: O_14  and  C_15 
ROOT
HETATM    1  C   UNL     1      36.604  46.709  65.045  1.00  0.00     0.002 A 
HETATM    2  C   UNL     1      37.720  47.539  65.203  1.00  0.00     0.034 A 
HETATM    3  C   UNL     1      38.991  47.020  64.917  1.00  0.00     0.103 A 
HETATM    4  C   UNL     1      39.110  45.702  64.487  1.00  0.00     0.083 A 
HETATM    5  N   UNL     1      40.461  45.546  64.335  1.00  0.00    -0.151 N 
HETATM    6  C   UNL     1      41.101  46.728  64.608  1.00  0.00     0.734 A 
HETATM    7  N   UNL     1      42.437  46.885  64.477  1.00  0.00    -0.033 NA
HETATM    8  C   UNL     1      43.130  45.920  63.992  1.00  0.00     0.193 C 
HETATM    9  N   UNL     1      42.611  44.674  63.627  1.00  0.00    -0.338 N 
HETATM   10  C   UNL     1      41.205  44.384  63.897  1.00  0.00     0.246 C 
HETATM   11  N   UNL     1      40.219  47.626  64.988  1.00  0.00    -0.060 NA
HETATM   12  C   UNL     1      38.011  44.854  64.317  1.00  0.00     0.033 A 
HETATM   13  C   UNL     1      36.751  45.391  64.608  1.00  0.00     0.002 A 
HETATM   14  H   UNL     1      43.207  43.934  63.294  1.00  0.00     0.164 HD
ENDROOT
BRANCH  10  15
HETATM   15  C   UNL     1      41.163  43.214  64.879  1.00  0.00     0.020 A 
HETATM   16  C   UNL     1      40.463  42.036  64.525  1.00  0.00     0.085 A 
HETATM   17  C   UNL     1      40.379  40.972  65.429  1.00  0.00     0.039 A 
HETATM   18  C   UNL     1      41.013  41.049  66.671  1.00  0.00     0.022 A 
HETATM   19  C   UNL     1      41.743  42.182  67.007  1.00  0.00     0.011 A 
HETATM   20 BR   UNL     1      42.614  42.275  68.682  1.00  0.00    -0.051 Br
HETATM   21  C   UNL     1      41.829  43.254  66.122  1.00  0.00     0.033 A 
BRANCH  16  22
HETATM   22  O   UNL     1      39.928  42.029  63.264  1.00  0.00    -0.289 OA
BRANCH  22  23
HETATM   23  C   UNL     1      38.820  41.170  63.015  1.00  0.00     0.505 C 
HETATM   24  F   UNL     1      37.743  41.927  62.703  1.00  0.00    -0.184 F 
HETATM   25  F   UNL     1      39.135  40.451  61.910  1.00  0.00    -0.184 F 
ENDBRANCH  22  23
ENDBRANCH  16  22
ENDBRANCH  10  15
BRANCH   8  26
HETATM   26  N   UNL     1      44.461  46.003  63.787  1.00  0.00    -0.272 NA
HETATM   27  H   UNL     1      44.930  45.166  64.128  1.00  0.00     0.127 HD
HETATM   28  H   UNL     1      44.916  46.834  64.142  1.00  0.00     0.127 HD
ENDBRANCH   8  26
TORSDOF 4
ENDMDL
MODEL 9
REMARK VINA RESULT:      -7.1     25.415     26.893
REMARK  4 active torsions:
REMARK  status: ('A' for Active; 'I' for Inactive)
REMARK    1  A    between atoms: C_8  and  N_9 
REMARK    2  A    between atoms: C_11  and  C_12 
REMARK    3  A    between atoms: C_13  and  O_14 
REMARK    4  A    between atoms: O_14  and  C_15 
ROOT
HETATM    1  C   UNL     1      39.812  42.974  62.752  1.00  0.00     0.002 A 
HETATM    2  C   UNL     1      38.971  41.989  63.284  1.00  0.00     0.034 A 
HETATM    3  C   UNL     1      37.894  42.386  64.088  1.00  0.00     0.103 A 
HETATM    4  C   UNL     1      37.691  43.741  64.338  1.00  0.00     0.083 A 
HETATM    5  N   UNL     1      36.595  43.744  65.158  1.00  0.00    -0.151 N 
HETATM    6  C   UNL     1      36.142  42.461  65.337  1.00  0.00     0.734 A 
HETATM    7  N   UNL     1      35.033  42.169  66.051  1.00  0.00    -0.033 NA
HETATM    8  C   UNL     1      34.317  43.132  66.507  1.00  0.00     0.193 C 
HETATM    9  N   UNL     1      34.627  44.488  66.366  1.00  0.00    -0.338 N 
HETATM   10  C   UNL     1      35.896  44.866  65.749  1.00  0.00     0.246 C 
HETATM   11  N   UNL     1      36.940  41.623  64.712  1.00  0.00    -0.060 NA
HETATM   12  C   UNL     1      38.514  44.744  63.816  1.00  0.00     0.033 A 
HETATM   13  C   UNL     1      39.583  44.327  63.015  1.00  0.00     0.002 A 
HETATM   14  H   UNL     1      34.055  45.203  66.784  1.00  0.00     0.164 HD
ENDROOT
BRANCH  10  15
HETATM   15  C   UNL     1      36.707  45.616  66.803  1.00  0.00     0.020 A 
HETATM   16  C   UNL     1      36.964  46.997  66.627  1.00  0.00     0.085 A 
HETATM   17  C   UNL     1      37.742  47.691  67.561  1.00  0.00     0.039 A 
HETATM   18  C   UNL     1      38.240  47.036  68.690  1.00  0.00     0.022 A 
HETATM   19  C   UNL     1      37.952  45.693  68.895  1.00  0.00     0.011 A 
HETATM   20 BR   UNL     1      38.613  44.816  70.433  1.00  0.00    -0.051 Br
HETATM   21  C   UNL     1      37.187  44.986  67.970  1.00  0.00     0.033 A 
BRANCH  16  22
HETATM   22  O   UNL     1      36.383  47.565  65.524  1.00  0.00    -0.289 OA
BRANCH  22  23
HETATM   23  C   UNL     1      37.235  48.189  64.568  1.00  0.00     0.505 C 
HETATM   24  F   UNL     1      36.640  48.136  63.355  1.00  0.00    -0.184 F 
HETATM   25  F   UNL     1      37.310  49.495  64.919  1.00  0.00    -0.184 F 
ENDBRANCH  22  23
ENDBRANCH  16  22
ENDBRANCH  10  15
BRANCH   8  26
HETATM   26  N   UNL     1      33.173  42.934  67.193  1.00  0.00    -0.272 NA
HETATM   27  H   UNL     1      32.411  43.474  66.785  1.00  0.00     0.127 HD
HETATM   28  H   UNL     1      33.219  43.085  68.192  1.00  0.00     0.127 HD
ENDBRANCH   8  26
TORSDOF 4
ENDMDL
MODEL 10
REMARK VINA RESULT:      -7.0     11.956     13.427
REMARK  4 active torsions:
REMARK  status: ('A' for Active; 'I' for Inactive)
REMARK    1  A    between atoms: C_8  and  N_9 
REMARK    2  A    between atoms: C_11  and  C_12 
REMARK    3  A    between atoms: C_13  and  O_14 
REMARK    4  A    between atoms: O_14  and  C_15 
ROOT
HETATM    1  C   UNL     1      23.143  50.902  48.638  1.00  0.00     0.002 A 
HETATM    2  C   UNL     1      21.760  50.970  48.431  1.00  0.00     0.034 A 
HETATM    3  C   UNL     1      21.023  49.777  48.417  1.00  0.00     0.103 A 
HETATM    4  C   UNL     1      21.680  48.565  48.606  1.00  0.00     0.083 A 
HETATM    5  N   UNL     1      20.671  47.646  48.505  1.00  0.00    -0.151 N 
HETATM    6  C   UNL     1      19.473  48.287  48.322  1.00  0.00     0.734 A 
HETATM    7  N   UNL     1      18.293  47.631  48.253  1.00  0.00    -0.033 NA
HETATM    8  C   UNL     1      18.276  46.363  48.457  1.00  0.00     0.193 C 
HETATM    9  N   UNL     1      19.410  45.583  48.699  1.00  0.00    -0.338 N 
HETATM   10  C   UNL     1      20.731  46.205  48.623  1.00  0.00     0.246 C 
HETATM   11  N   UNL     1      19.676  49.584  48.241  1.00  0.00    -0.060 NA
HETATM   12  C   UNL     1      23.060  48.471  48.818  1.00  0.00     0.033 A 
HETATM   13  C   UNL     1      23.778  49.672  48.829  1.00  0.00     0.002 A 
HETATM   14  H   UNL     1      19.347  44.584  48.807  1.00  0.00     0.164 HD
ENDROOT
BRANCH  10  15
HETATM   15  C   UNL     1      21.489  45.520  47.488  1.00  0.00     0.020 A 
HETATM   16  C   UNL     1      22.456  44.533  47.796  1.00  0.00     0.085 A 
HETATM   17  C   UNL     1      23.191  43.926  46.772  1.00  0.00     0.039 A 
HETATM   18  C   UNL     1      22.953  44.263  45.438  1.00  0.00     0.022 A 
HETATM   19  C   UNL     1      21.972  45.195  45.123  1.00  0.00     0.011 A 
HETATM   20 BR   UNL     1      21.641  45.635  43.315  1.00  0.00    -0.051 Br
HETATM   21  C   UNL     1      21.238  45.815  46.131  1.00  0.00     0.033 A 
BRANCH  16  22
HETATM   22  O   UNL     1      22.575  44.225  49.126  1.00  0.00    -0.289 OA
BRANCH  22  23
HETATM   23  C   UNL     1      23.856  44.365  49.731  1.00  0.00     0.505 C 
HETATM   24  F   UNL     1      24.411  45.526  49.312  1.00  0.00    -0.184 F 
HETATM   25  F   UNL     1      23.639  44.485  51.063  1.00  0.00    -0.184 F 
ENDBRANCH  22  23
ENDBRANCH  16  22
ENDBRANCH  10  15
BRANCH   8  26
HETATM   26  N   UNL     1      17.141  45.635  48.449  1.00  0.00    -0.272 NA
HETATM   27  H   UNL     1      16.472  46.006  49.122  1.00  0.00     0.127 HD
HETATM   28  H   UNL     1      17.251  44.636  48.571  1.00  0.00     0.127 HD
ENDBRANCH   8  26
TORSDOF 4
ENDMDL
