MODEL 1
REMARK VINA RESULT:     -10.6      0.000      0.000
REMARK  4 active torsions:
REMARK  status: ('A' for Active; 'I' for Inactive)
REMARK       I    between atoms: N_10  and  C_11 
REMARK    1  A    between atoms: C_11  and  C_12 
REMARK    2  A    between atoms: C_12  and  O_13 
REMARK    3  A    between atoms: O_13  and  C_14 
REMARK    4  A    between atoms: C_15  and  C_16 
ROOT
HETATM    1  C   UNL     1      29.985  45.850  57.830  1.00  0.00     0.001 A 
HETATM    2  C   UNL     1      29.168  45.799  56.696  1.00  0.00     0.014 A 
HETATM    3  C   UNL     1      29.429  44.841  55.696  1.00  0.00     0.000 A 
HETATM    4  C   UNL     1      30.507  43.967  55.872  1.00  0.00     0.043 A 
HETATM    5  N   UNL     1      30.552  43.138  54.771  1.00  0.00    -0.358 N 
HETATM    6  H   UNL     1      31.237  42.409  54.629  1.00  0.00     0.166 HD
HETATM    7  C   UNL     1      29.531  43.454  53.924  1.00  0.00     0.020 A 
HETATM    8  C   UNL     1      28.818  44.510  54.452  1.00  0.00    -0.005 A 
HETATM    9  C   UNL     1      27.629  45.117  53.786  1.00  0.00     0.167 C 
HETATM   10  N   UNL     1      27.374  44.498  52.467  1.00  0.00    -0.346 N 
HETATM   11  C   UNL     1      26.456  45.040  51.567  1.00  0.00     0.244 C 
HETATM   12  O   UNL     1      26.019  44.395  50.610  1.00  0.00    -0.271 OA
HETATM   13  C   UNL     1      27.746  43.079  52.287  1.00  0.00     0.132 C 
HETATM   14  C   UNL     1      29.220  42.792  52.634  1.00  0.00     0.077 C 
HETATM   15  C   UNL     1      31.335  44.008  57.001  1.00  0.00     0.030 A 
HETATM   16  C   UNL     1      31.052  44.967  57.978  1.00  0.00     0.002 A 
ENDROOT
BRANCH  11  17
HETATM   17  C   UNL     1      25.972  46.474  51.798  1.00  0.00     0.278 C 
BRANCH  17  18
HETATM   18  O   UNL     1      25.129  46.868  50.723  1.00  0.00    -0.341 OA
BRANCH  18  19
HETATM   19  C   UNL     1      25.588  47.876  49.915  1.00  0.00     0.077 A 
HETATM   20  C   UNL     1      24.612  48.626  49.229  1.00  0.00    -0.001 A 
HETATM   21  C   UNL     1      25.041  49.677  48.392  1.00  0.00     0.012 A 
HETATM   22  C   UNL     1      26.396  49.959  48.224  1.00  0.00     0.001 A 
HETATM   23  C   UNL     1      27.349  49.195  48.889  1.00  0.00     0.003 A 
HETATM   24  C   UNL     1      26.948  48.155  49.729  1.00  0.00     0.037 A 
BRANCH  20  25
HETATM   25  C   UNL     1      23.134  48.333  49.410  1.00  0.00     0.144 C 
HETATM   26  S   UNL     1      22.101  49.818  49.158  1.00  0.00    -0.148 SA
HETATM   27  C   UNL     1      20.662  48.929  48.525  1.00  0.00     0.085 C 
HETATM   28  C   UNL     1      21.180  47.901  47.540  1.00  0.00     0.085 C 
HETATM   29  S   UNL     1      22.540  46.987  48.314  1.00  0.00    -0.148 SA
ENDBRANCH  20  25
ENDBRANCH  18  19
ENDBRANCH  17  18
ENDBRANCH  11  17
TORSDOF 4
ENDMDL
MODEL 2
REMARK VINA RESULT:      -9.3      1.515      2.093
REMARK  4 active torsions:
REMARK  status: ('A' for Active; 'I' for Inactive)
REMARK       I    between atoms: N_10  and  C_11 
REMARK    1  A    between atoms: C_11  and  C_12 
REMARK    2  A    between atoms: C_12  and  O_13 
REMARK    3  A    between atoms: O_13  and  C_14 
REMARK    4  A    between atoms: C_15  and  C_16 
ROOT
HETATM    1  C   UNL     1      29.540  45.593  55.994  1.00  0.00     0.001 A 
HETATM    2  C   UNL     1      28.565  45.606  54.991  1.00  0.00     0.014 A 
HETATM    3  C   UNL     1      28.527  44.559  54.048  1.00  0.00     0.000 A 
HETATM    4  C   UNL     1      29.476  43.535  54.147  1.00  0.00     0.043 A 
HETATM    5  N   UNL     1      29.231  42.644  53.123  1.00  0.00    -0.358 N 
HETATM    6  H   UNL     1      29.770  41.808  52.950  1.00  0.00     0.166 HD
HETATM    7  C   UNL     1      28.155  43.068  52.401  1.00  0.00     0.020 A 
HETATM    8  C   UNL     1      27.695  44.255  52.932  1.00  0.00    -0.005 A 
HETATM    9  C   UNL     1      26.525  45.004  52.388  1.00  0.00     0.167 C 
HETATM   10  N   UNL     1      25.986  44.355  51.173  1.00  0.00    -0.346 N 
HETATM   11  C   UNL     1      25.037  44.982  50.366  1.00  0.00     0.244 C 
HETATM   12  O   UNL     1      24.370  44.358  49.534  1.00  0.00    -0.271 OA
HETATM   13  C   UNL     1      26.110  42.886  51.063  1.00  0.00     0.132 C 
HETATM   14  C   UNL     1      27.559  42.388  51.226  1.00  0.00     0.077 C 
HETATM   15  C   UNL     1      30.459  43.511  55.144  1.00  0.00     0.030 A 
HETATM   16  C   UNL     1      30.472  44.561  56.067  1.00  0.00     0.002 A 
ENDROOT
BRANCH  11  17
HETATM   17  C   UNL     1      24.813  46.486  50.540  1.00  0.00     0.278 C 
BRANCH  17  18
HETATM   18  O   UNL     1      23.690  46.891  49.768  1.00  0.00    -0.341 OA
BRANCH  18  19
HETATM   19  C   UNL     1      23.776  48.108  49.144  1.00  0.00     0.077 A 
HETATM   20  C   UNL     1      22.584  48.617  48.591  1.00  0.00    -0.001 A 
HETATM   21  C   UNL     1      22.627  49.870  47.944  1.00  0.00     0.012 A 
HETATM   22  C   UNL     1      23.819  50.584  47.831  1.00  0.00     0.001 A 
HETATM   23  C   UNL     1      24.993  50.058  48.360  1.00  0.00     0.003 A 
HETATM   24  C   UNL     1      24.973  48.823  49.012  1.00  0.00     0.037 A 
BRANCH  20  25
HETATM   25  C   UNL     1      21.279  47.852  48.715  1.00  0.00     0.144 C 
HETATM   26  S   UNL     1      19.942  48.880  49.419  1.00  0.00    -0.148 SA
HETATM   27  C   UNL     1      18.600  48.056  48.537  1.00  0.00     0.085 C 
HETATM   28  C   UNL     1      19.062  47.874  47.106  1.00  0.00     0.085 C 
HETATM   29  S   UNL     1      20.720  47.141  47.119  1.00  0.00    -0.148 SA
ENDBRANCH  20  25
ENDBRANCH  18  19
ENDBRANCH  17  18
ENDBRANCH  11  17
TORSDOF 4
ENDMDL
MODEL 3
REMARK VINA RESULT:      -9.2      4.080      6.107
REMARK  4 active torsions:
REMARK  status: ('A' for Active; 'I' for Inactive)
REMARK       I    between atoms: N_10  and  C_11 
REMARK    1  A    between atoms: C_11  and  C_12 
REMARK    2  A    between atoms: C_12  and  O_13 
REMARK    3  A    between atoms: O_13  and  C_14 
REMARK    4  A    between atoms: C_15  and  C_16 
ROOT
HETATM    1  C   UNL     1      31.019  43.381  56.021  1.00  0.00     0.001 A 
HETATM    2  C   UNL     1      30.003  43.582  55.080  1.00  0.00     0.014 A 
HETATM    3  C   UNL     1      29.153  44.700  55.206  1.00  0.00     0.000 A 
HETATM    4  C   UNL     1      29.354  45.575  56.278  1.00  0.00     0.043 A 
HETATM    5  N   UNL     1      28.407  46.573  56.181  1.00  0.00    -0.358 N 
HETATM    6  H   UNL     1      28.315  47.341  56.830  1.00  0.00     0.166 HD
HETATM    7  C   UNL     1      27.634  46.358  55.078  1.00  0.00     0.020 A 
HETATM    8  C   UNL     1      28.054  45.203  54.452  1.00  0.00    -0.005 A 
HETATM    9  C   UNL     1      27.429  44.665  53.209  1.00  0.00     0.167 C 
HETATM   10  N   UNL     1      26.266  45.479  52.793  1.00  0.00    -0.346 N 
HETATM   11  C   UNL     1      25.393  45.054  51.792  1.00  0.00     0.244 C 
HETATM   12  O   UNL     1      24.607  45.828  51.236  1.00  0.00    -0.271 OA
HETATM   13  C   UNL     1      26.284  46.922  53.112  1.00  0.00     0.132 C 
HETATM   14  C   UNL     1      26.513  47.207  54.610  1.00  0.00     0.077 C 
HETATM   15  C   UNL     1      30.365  45.385  57.229  1.00  0.00     0.030 A 
HETATM   16  C   UNL     1      31.195  44.270  57.078  1.00  0.00     0.002 A 
ENDROOT
BRANCH  11  17
HETATM   17  C   UNL     1      25.434  43.584  51.368  1.00  0.00     0.278 C 
BRANCH  17  18
HETATM   18  O   UNL     1      25.705  43.500  49.974  1.00  0.00    -0.341 OA
BRANCH  18  19
HETATM   19  C   UNL     1      24.895  42.676  49.236  1.00  0.00     0.077 A 
HETATM   20  C   UNL     1      25.515  41.570  48.623  1.00  0.00    -0.001 A 
HETATM   21  C   UNL     1      24.717  40.693  47.858  1.00  0.00     0.012 A 
HETATM   22  C   UNL     1      23.352  40.921  47.690  1.00  0.00     0.001 A 
HETATM   23  C   UNL     1      22.758  42.031  48.280  1.00  0.00     0.003 A 
HETATM   24  C   UNL     1      23.526  42.907  49.049  1.00  0.00     0.037 A 
BRANCH  20  25
HETATM   25  C   UNL     1      26.999  41.308  48.806  1.00  0.00     0.144 C 
HETATM   26  S   UNL     1      27.336  40.221  50.235  1.00  0.00    -0.148 SA
HETATM   27  C   UNL     1      28.820  39.464  49.538  1.00  0.00     0.085 C 
HETATM   28  C   UNL     1      28.507  39.135  48.093  1.00  0.00     0.085 C 
HETATM   29  S   UNL     1      27.783  40.599  47.306  1.00  0.00    -0.148 SA
ENDBRANCH  20  25
ENDBRANCH  18  19
ENDBRANCH  17  18
ENDBRANCH  11  17
TORSDOF 4
ENDMDL
MODEL 4
REMARK VINA RESULT:      -9.0      2.658      4.846
REMARK  4 active torsions:
REMARK  status: ('A' for Active; 'I' for Inactive)
REMARK       I    between atoms: N_10  and  C_11 
REMARK    1  A    between atoms: C_11  and  C_12 
REMARK    2  A    between atoms: C_12  and  O_13 
REMARK    3  A    between atoms: O_13  and  C_14 
REMARK    4  A    between atoms: C_15  and  C_16 
ROOT
HETATM    1  C   UNL     1      28.294  39.428  47.762  1.00  0.00     0.001 A 
HETATM    2  C   UNL     1      27.918  40.633  48.365  1.00  0.00     0.014 A 
HETATM    3  C   UNL     1      28.019  40.769  49.764  1.00  0.00     0.000 A 
HETATM    4  C   UNL     1      28.494  39.684  50.509  1.00  0.00     0.043 A 
HETATM    5  N   UNL     1      28.498  40.063  51.835  1.00  0.00    -0.358 N 
HETATM    6  H   UNL     1      28.789  39.470  52.600  1.00  0.00     0.166 HD
HETATM    7  C   UNL     1      28.059  41.349  51.941  1.00  0.00     0.020 A 
HETATM    8  C   UNL     1      27.740  41.821  50.684  1.00  0.00    -0.005 A 
HETATM    9  C   UNL     1      27.226  43.198  50.425  1.00  0.00     0.167 C 
HETATM   10  N   UNL     1      27.027  43.946  51.686  1.00  0.00    -0.346 N 
HETATM   11  C   UNL     1      26.354  45.166  51.716  1.00  0.00     0.244 C 
HETATM   12  O   UNL     1      26.432  45.934  52.681  1.00  0.00    -0.271 OA
HETATM   13  C   UNL     1      27.920  43.632  52.822  1.00  0.00     0.132 C 
HETATM   14  C   UNL     1      27.925  42.135  53.190  1.00  0.00     0.077 C 
HETATM   15  C   UNL     1      28.871  38.471  49.919  1.00  0.00     0.030 A 
HETATM   16  C   UNL     1      28.763  38.365  48.530  1.00  0.00     0.002 A 
ENDROOT
BRANCH  11  17
HETATM   17  C   UNL     1      25.511  45.562  50.502  1.00  0.00     0.278 C 
BRANCH  17  18
HETATM   18  O   UNL     1      24.974  46.864  50.701  1.00  0.00    -0.341 OA
BRANCH  18  19
HETATM   19  C   UNL     1      25.450  47.860  49.889  1.00  0.00     0.077 A 
HETATM   20  C   UNL     1      24.487  48.617  49.192  1.00  0.00    -0.001 A 
HETATM   21  C   UNL     1      24.934  49.657  48.350  1.00  0.00     0.012 A 
HETATM   22  C   UNL     1      26.294  49.920  48.187  1.00  0.00     0.001 A 
HETATM   23  C   UNL     1      27.233  49.149  48.862  1.00  0.00     0.003 A 
HETATM   24  C   UNL     1      26.814  48.120  49.708  1.00  0.00     0.037 A 
BRANCH  20  25
HETATM   25  C   UNL     1      23.005  48.344  49.367  1.00  0.00     0.144 C 
HETATM   26  S   UNL     1      21.998  49.857  49.178  1.00  0.00    -0.148 SA
HETATM   27  C   UNL     1      20.541  49.020  48.516  1.00  0.00     0.085 C 
HETATM   28  C   UNL     1      21.037  48.022  47.489  1.00  0.00     0.085 C 
HETATM   29  S   UNL     1      22.382  47.053  48.222  1.00  0.00    -0.148 SA
ENDBRANCH  20  25
ENDBRANCH  18  19
ENDBRANCH  17  18
ENDBRANCH  11  17
TORSDOF 4
ENDMDL
MODEL 5
REMARK VINA RESULT:      -9.0      4.434      7.156
REMARK  4 active torsions:
REMARK  status: ('A' for Active; 'I' for Inactive)
REMARK       I    between atoms: N_10  and  C_11 
REMARK    1  A    between atoms: C_11  and  C_12 
REMARK    2  A    between atoms: C_12  and  O_13 
REMARK    3  A    between atoms: O_13  and  C_14 
REMARK    4  A    between atoms: C_15  and  C_16 
ROOT
HETATM    1  C   UNL     1      31.181  43.471  56.311  1.00  0.00     0.001 A 
HETATM    2  C   UNL     1      30.343  43.204  55.223  1.00  0.00     0.014 A 
HETATM    3  C   UNL     1      29.325  44.120  54.891  1.00  0.00     0.000 A 
HETATM    4  C   UNL     1      29.184  45.274  55.669  1.00  0.00     0.043 A 
HETATM    5  N   UNL     1      28.132  45.999  55.148  1.00  0.00    -0.358 N 
HETATM    6  H   UNL     1      27.803  46.879  55.519  1.00  0.00     0.166 HD
HETATM    7  C   UNL     1      27.624  45.345  54.066  1.00  0.00     0.020 A 
HETATM    8  C   UNL     1      28.324  44.172  53.878  1.00  0.00    -0.005 A 
HETATM    9  C   UNL     1      28.036  43.205  52.778  1.00  0.00     0.167 C 
HETATM   10  N   UNL     1      26.862  43.627  51.983  1.00  0.00    -0.346 N 
HETATM   11  C   UNL     1      26.269  42.782  51.045  1.00  0.00     0.244 C 
HETATM   12  O   UNL     1      25.495  43.205  50.180  1.00  0.00    -0.271 OA
HETATM   13  C   UNL     1      26.600  45.076  51.855  1.00  0.00     0.132 C 
HETATM   14  C   UNL     1      26.496  45.794  53.215  1.00  0.00     0.077 C 
HETATM   15  C   UNL     1      30.014  45.553  56.762  1.00  0.00     0.030 A 
HETATM   16  C   UNL     1      31.016  44.628  57.068  1.00  0.00     0.002 A 
ENDROOT
BRANCH  11  17
HETATM   17  C   UNL     1      26.613  41.291  51.090  1.00  0.00     0.278 C 
BRANCH  17  18
HETATM   18  O   UNL     1      27.069  40.871  49.810  1.00  0.00    -0.341 OA
BRANCH  18  19
HETATM   19  C   UNL     1      28.018  39.882  49.787  1.00  0.00     0.077 A 
HETATM   20  C   UNL     1      28.162  39.178  48.574  1.00  0.00    -0.001 A 
HETATM   21  C   UNL     1      29.131  38.155  48.505  1.00  0.00     0.012 A 
HETATM   22  C   UNL     1      29.915  37.827  49.611  1.00  0.00     0.001 A 
HETATM   23  C   UNL     1      29.744  38.514  50.808  1.00  0.00     0.003 A 
HETATM   24  C   UNL     1      28.797  39.535  50.898  1.00  0.00     0.037 A 
BRANCH  20  25
HETATM   25  C   UNL     1      27.320  39.532  47.362  1.00  0.00     0.144 C 
HETATM   26  S   UNL     1      28.079  40.857  46.359  1.00  0.00    -0.148 SA
HETATM   27  C   UNL     1      27.414  40.288  44.780  1.00  0.00     0.085 C 
HETATM   28  C   UNL     1      27.599  38.785  44.742  1.00  0.00     0.085 C 
HETATM   29  S   UNL     1      26.975  38.083  46.292  1.00  0.00    -0.148 SA
ENDBRANCH  20  25
ENDBRANCH  18  19
ENDBRANCH  17  18
ENDBRANCH  11  17
TORSDOF 4
ENDMDL
MODEL 6
REMARK VINA RESULT:      -8.9      5.430     11.698
REMARK  4 active torsions:
REMARK  status: ('A' for Active; 'I' for Inactive)
REMARK       I    between atoms: N_10  and  C_11 
REMARK    1  A    between atoms: C_11  and  C_12 
REMARK    2  A    between atoms: C_12  and  O_13 
REMARK    3  A    between atoms: O_13  and  C_14 
REMARK    4  A    between atoms: C_15  and  C_16 
ROOT
HETATM    1  C   UNL     1      17.324  50.764  43.772  1.00  0.00     0.001 A 
HETATM    2  C   UNL     1      18.285  50.625  44.779  1.00  0.00     0.014 A 
HETATM    3  C   UNL     1      18.075  51.245  46.028  1.00  0.00     0.000 A 
HETATM    4  C   UNL     1      16.904  51.986  46.218  1.00  0.00     0.043 A 
HETATM    5  N   UNL     1      16.934  52.485  47.503  1.00  0.00    -0.358 N 
HETATM    6  H   UNL     1      16.214  53.064  47.910  1.00  0.00     0.166 HD
HETATM    7  C   UNL     1      18.074  52.068  48.124  1.00  0.00     0.020 A 
HETATM    8  C   UNL     1      18.815  51.308  47.244  1.00  0.00    -0.005 A 
HETATM    9  C   UNL     1      20.127  50.688  47.591  1.00  0.00     0.167 C 
HETATM   10  N   UNL     1      20.557  51.062  48.956  1.00  0.00    -0.346 N 
HETATM   11  C   UNL     1      21.842  50.785  49.422  1.00  0.00     0.244 C 
HETATM   12  O   UNL     1      22.124  50.819  50.624  1.00  0.00    -0.271 OA
HETATM   13  C   UNL     1      19.507  51.315  49.965  1.00  0.00     0.132 C 
HETATM   14  C   UNL     1      18.481  52.375  49.517  1.00  0.00     0.077 C 
HETATM   15  C   UNL     1      15.935  52.135  45.218  1.00  0.00     0.030 A 
HETATM   16  C   UNL     1      16.168  51.508  43.991  1.00  0.00     0.002 A 
ENDROOT
BRANCH  11  17
HETATM   17  C   UNL     1      22.921  50.412  48.402  1.00  0.00     0.278 C 
BRANCH  17  18
HETATM   18  O   UNL     1      23.501  49.164  48.761  1.00  0.00    -0.341 OA
BRANCH  18  19
HETATM   19  C   UNL     1      24.867  49.127  48.873  1.00  0.00     0.077 A 
HETATM   20  C   UNL     1      25.404  48.108  49.685  1.00  0.00    -0.001 A 
HETATM   21  C   UNL     1      26.806  48.031  49.822  1.00  0.00     0.012 A 
HETATM   22  C   UNL     1      27.645  48.949  49.192  1.00  0.00     0.001 A 
HETATM   23  C   UNL     1      27.099  49.964  48.414  1.00  0.00     0.003 A 
HETATM   24  C   UNL     1      25.715  50.056  48.257  1.00  0.00     0.037 A 
BRANCH  20  25
HETATM   25  C   UNL     1      24.500  47.099  50.369  1.00  0.00     0.144 C 
HETATM   26  S   UNL     1      24.087  45.694  49.278  1.00  0.00    -0.148 SA
HETATM   27  C   UNL     1      23.934  44.477  50.603  1.00  0.00     0.085 C 
HETATM   28  C   UNL     1      25.106  44.697  51.537  1.00  0.00     0.085 C 
HETATM   29  S   UNL     1      25.209  46.462  51.936  1.00  0.00    -0.148 SA
ENDBRANCH  20  25
ENDBRANCH  18  19
ENDBRANCH  17  18
ENDBRANCH  11  17
TORSDOF 4
ENDMDL
MODEL 7
REMARK VINA RESULT:      -8.5      1.435      1.918
REMARK  4 active torsions:
REMARK  status: ('A' for Active; 'I' for Inactive)
REMARK       I    between atoms: N_10  and  C_11 
REMARK    1  A    between atoms: C_11  and  C_12 
REMARK    2  A    between atoms: C_12  and  O_13 
REMARK    3  A    between atoms: O_13  and  C_14 
REMARK    4  A    between atoms: C_15  and  C_16 
ROOT
HETATM    1  C   UNL     1      29.021  46.134  57.306  1.00  0.00     0.001 A 
HETATM    2  C   UNL     1      28.360  45.959  56.085  1.00  0.00     0.014 A 
HETATM    3  C   UNL     1      28.826  44.988  55.177  1.00  0.00     0.000 A 
HETATM    4  C   UNL     1      29.946  44.227  55.529  1.00  0.00     0.043 A 
HETATM    5  N   UNL     1      30.200  43.359  54.487  1.00  0.00    -0.358 N 
HETATM    6  H   UNL     1      30.959  42.693  54.468  1.00  0.00     0.166 HD
HETATM    7  C   UNL     1      29.270  43.542  53.508  1.00  0.00     0.020 A 
HETATM    8  C   UNL     1      28.407  44.549  53.888  1.00  0.00    -0.005 A 
HETATM    9  C   UNL     1      27.262  45.014  53.052  1.00  0.00     0.167 C 
HETATM   10  N   UNL     1      27.229  44.318  51.747  1.00  0.00    -0.346 N 
HETATM   11  C   UNL     1      26.387  44.734  50.715  1.00  0.00     0.244 C 
HETATM   12  O   UNL     1      26.131  44.011  49.748  1.00  0.00    -0.271 OA
HETATM   13  C   UNL     1      27.743  42.934  51.690  1.00  0.00     0.132 C 
HETATM   14  C   UNL     1      29.181  42.801  52.227  1.00  0.00     0.077 C 
HETATM   15  C   UNL     1      30.619  44.392  56.746  1.00  0.00     0.030 A 
HETATM   16  C   UNL     1      30.134  45.361  57.628  1.00  0.00     0.002 A 
ENDROOT
BRANCH  11  17
HETATM   17  C   UNL     1      25.755  46.125  50.808  1.00  0.00     0.278 C 
BRANCH  17  18
HETATM   18  O   UNL     1      24.520  46.132  50.103  1.00  0.00    -0.341 OA
BRANCH  18  19
HETATM   19  C   UNL     1      24.174  47.300  49.476  1.00  0.00     0.077 A 
HETATM   20  C   UNL     1      22.920  47.321  48.833  1.00  0.00    -0.001 A 
HETATM   21  C   UNL     1      22.522  48.507  48.179  1.00  0.00     0.012 A 
HETATM   22  C   UNL     1      23.352  49.626  48.146  1.00  0.00     0.001 A 
HETATM   23  C   UNL     1      24.597  49.583  48.764  1.00  0.00     0.003 A 
HETATM   24  C   UNL     1      25.009  48.424  49.424  1.00  0.00     0.037 A 
BRANCH  20  25
HETATM   25  C   UNL     1      22.005  46.111  48.869  1.00  0.00     0.144 C 
HETATM   26  S   UNL     1      20.270  46.547  48.500  1.00  0.00    -0.148 SA
HETATM   27  C   UNL     1      19.847  44.967  47.737  1.00  0.00     0.085 C 
HETATM   28  C   UNL     1      20.995  44.601  46.818  1.00  0.00     0.085 C 
HETATM   29  S   UNL     1      22.550  44.777  47.734  1.00  0.00    -0.148 SA
ENDBRANCH  20  25
ENDBRANCH  18  19
ENDBRANCH  17  18
ENDBRANCH  11  17
TORSDOF 4
ENDMDL
MODEL 8
REMARK VINA RESULT:      -8.3      3.049      4.488
REMARK  4 active torsions:
REMARK  status: ('A' for Active; 'I' for Inactive)
REMARK       I    between atoms: N_10  and  C_11 
REMARK    1  A    between atoms: C_11  and  C_12 
REMARK    2  A    between atoms: C_12  and  O_13 
REMARK    3  A    between atoms: O_13  and  C_14 
REMARK    4  A    between atoms: C_15  and  C_16 
ROOT
HETATM    1  C   UNL     1      26.971  46.954  53.899  1.00  0.00     0.001 A 
HETATM    2  C   UNL     1      26.067  46.732  52.854  1.00  0.00     0.014 A 
HETATM    3  C   UNL     1      25.795  45.412  52.442  1.00  0.00     0.000 A 
HETATM    4  C   UNL     1      26.444  44.360  53.096  1.00  0.00     0.043 A 
HETATM    5  N   UNL     1      26.015  43.185  52.516  1.00  0.00    -0.358 N 
HETATM    6  H   UNL     1      26.327  42.264  52.788  1.00  0.00     0.166 HD
HETATM    7  C   UNL     1      25.109  43.467  51.537  1.00  0.00     0.020 A 
HETATM    8  C   UNL     1      24.952  44.834  51.449  1.00  0.00    -0.005 A 
HETATM    9  C   UNL     1      24.033  45.499  50.480  1.00  0.00     0.167 C 
HETATM   10  N   UNL     1      23.388  44.513  49.584  1.00  0.00    -0.346 N 
HETATM   11  C   UNL     1      22.661  44.908  48.461  1.00  0.00     0.244 C 
HETATM   12  O   UNL     1      21.885  44.141  47.881  1.00  0.00    -0.271 OA
HETATM   13  C   UNL     1      23.135  43.159  50.118  1.00  0.00     0.132 C 
HETATM   14  C   UNL     1      24.401  42.484  50.682  1.00  0.00     0.077 C 
HETATM   15  C   UNL     1      27.353  44.567  54.141  1.00  0.00     0.030 A 
HETATM   16  C   UNL     1      27.603  45.886  54.531  1.00  0.00     0.002 A 
ENDROOT
BRANCH  11  17
HETATM   17  C   UNL     1      22.825  46.343  47.956  1.00  0.00     0.278 C 
BRANCH  17  18
HETATM   18  O   UNL     1      21.966  47.206  48.690  1.00  0.00    -0.341 OA
BRANCH  18  19
HETATM   19  C   UNL     1      22.282  48.540  48.689  1.00  0.00     0.077 A 
HETATM   20  C   UNL     1      21.200  49.442  48.675  1.00  0.00    -0.001 A 
HETATM   21  C   UNL     1      21.480  50.825  48.679  1.00  0.00     0.012 A 
HETATM   22  C   UNL     1      22.793  51.294  48.675  1.00  0.00     0.001 A 
HETATM   23  C   UNL     1      23.851  50.392  48.665  1.00  0.00     0.003 A 
HETATM   24  C   UNL     1      23.597  49.020  48.669  1.00  0.00     0.037 A 
BRANCH  20  25
HETATM   25  C   UNL     1      19.767  48.941  48.687  1.00  0.00     0.144 C 
HETATM   26  S   UNL     1      18.667  50.025  49.663  1.00  0.00    -0.148 SA
HETATM   27  C   UNL     1      17.184  49.703  48.683  1.00  0.00     0.085 C 
HETATM   28  C   UNL     1      17.599  49.763  47.227  1.00  0.00     0.085 C 
HETATM   29  S   UNL     1      19.075  48.735  47.001  1.00  0.00    -0.148 SA
ENDBRANCH  20  25
ENDBRANCH  18  19
ENDBRANCH  17  18
ENDBRANCH  11  17
TORSDOF 4
ENDMDL
MODEL 9
REMARK VINA RESULT:      -8.2      3.609      5.681
REMARK  4 active torsions:
REMARK  status: ('A' for Active; 'I' for Inactive)
REMARK       I    between atoms: N_10  and  C_11 
REMARK    1  A    between atoms: C_11  and  C_12 
REMARK    2  A    between atoms: C_12  and  O_13 
REMARK    3  A    between atoms: O_13  and  C_14 
REMARK    4  A    between atoms: C_15  and  C_16 
ROOT
HETATM    1  C   UNL     1      25.748  47.480  53.859  1.00  0.00     0.001 A 
HETATM    2  C   UNL     1      26.129  46.226  53.369  1.00  0.00     0.014 A 
HETATM    3  C   UNL     1      27.249  45.575  53.926  1.00  0.00     0.000 A 
HETATM    4  C   UNL     1      27.948  46.211  54.957  1.00  0.00     0.043 A 
HETATM    5  N   UNL     1      28.986  45.382  55.326  1.00  0.00    -0.358 N 
HETATM    6  H   UNL     1      29.660  45.594  56.048  1.00  0.00     0.166 HD
HETATM    7  C   UNL     1      28.949  44.246  54.573  1.00  0.00     0.020 A 
HETATM    8  C   UNL     1      27.896  44.329  53.686  1.00  0.00    -0.005 A 
HETATM    9  C   UNL     1      27.557  43.256  52.705  1.00  0.00     0.167 C 
HETATM   10  N   UNL     1      28.538  42.149  52.756  1.00  0.00    -0.346 N 
HETATM   11  C   UNL     1      28.558  41.143  51.791  1.00  0.00     0.244 C 
HETATM   12  O   UNL     1      29.156  40.077  51.969  1.00  0.00    -0.271 OA
HETATM   13  C   UNL     1      29.189  41.864  54.051  1.00  0.00     0.132 C 
HETATM   14  C   UNL     1      29.881  43.097  54.665  1.00  0.00     0.077 C 
HETATM   15  C   UNL     1      27.579  47.467  55.456  1.00  0.00     0.030 A 
HETATM   16  C   UNL     1      26.464  48.089  54.887  1.00  0.00     0.002 A 
ENDROOT
BRANCH  11  17
HETATM   17  C   UNL     1      27.796  41.373  50.483  1.00  0.00     0.278 C 
BRANCH  17  18
HETATM   18  O   UNL     1      26.549  40.691  50.534  1.00  0.00    -0.341 OA
BRANCH  18  19
HETATM   19  C   UNL     1      25.893  40.513  49.345  1.00  0.00     0.077 A 
HETATM   20  C   UNL     1      24.923  41.480  49.011  1.00  0.00    -0.001 A 
HETATM   21  C   UNL     1      24.228  41.338  47.792  1.00  0.00     0.012 A 
HETATM   22  C   UNL     1      24.472  40.260  46.943  1.00  0.00     0.001 A 
HETATM   23  C   UNL     1      25.414  39.300  47.297  1.00  0.00     0.003 A 
HETATM   24  C   UNL     1      26.120  39.424  48.494  1.00  0.00     0.037 A 
BRANCH  20  25
HETATM   25  C   UNL     1      24.655  42.662  49.924  1.00  0.00     0.144 C 
HETATM   26  S   UNL     1      25.671  44.116  49.486  1.00  0.00    -0.148 SA
HETATM   27  C   UNL     1      24.466  45.346  50.028  1.00  0.00     0.085 C 
HETATM   28  C   UNL     1      23.114  44.890  49.518  1.00  0.00     0.085 C 
HETATM   29  S   UNL     1      22.886  43.146  49.956  1.00  0.00    -0.148 SA
ENDBRANCH  20  25
ENDBRANCH  18  19
ENDBRANCH  17  18
ENDBRANCH  11  17
TORSDOF 4
ENDMDL
MODEL 10
REMARK VINA RESULT:      -7.9      4.128      9.336
REMARK  4 active torsions:
REMARK  status: ('A' for Active; 'I' for Inactive)
REMARK       I    between atoms: N_10  and  C_11 
REMARK    1  A    between atoms: C_11  and  C_12 
REMARK    2  A    between atoms: C_12  and  O_13 
REMARK    3  A    between atoms: O_13  and  C_14 
REMARK    4  A    between atoms: C_15  and  C_16 
ROOT
HETATM    1  C   UNL     1      20.164  49.411  49.310  1.00  0.00     0.001 A 
HETATM    2  C   UNL     1      21.359  48.700  49.464  1.00  0.00     0.014 A 
HETATM    3  C   UNL     1      22.561  49.252  48.979  1.00  0.00     0.000 A 
HETATM    4  C   UNL     1      22.518  50.502  48.353  1.00  0.00     0.043 A 
HETATM    5  N   UNL     1      23.806  50.819  47.973  1.00  0.00    -0.358 N 
HETATM    6  H   UNL     1      24.069  51.667  47.492  1.00  0.00     0.166 HD
HETATM    7  C   UNL     1      24.650  49.818  48.354  1.00  0.00     0.020 A 
HETATM    8  C   UNL     1      23.920  48.823  48.969  1.00  0.00    -0.005 A 
HETATM    9  C   UNL     1      24.525  47.572  49.514  1.00  0.00     0.167 C 
HETATM   10  N   UNL     1      25.976  47.508  49.233  1.00  0.00    -0.346 N 
HETATM   11  C   UNL     1      26.714  46.345  49.449  1.00  0.00     0.244 C 
HETATM   12  O   UNL     1      27.948  46.353  49.503  1.00  0.00    -0.271 OA
HETATM   13  C   UNL     1      26.721  48.782  49.156  1.00  0.00     0.132 C 
HETATM   14  C   UNL     1      26.117  49.775  48.144  1.00  0.00     0.077 C 
HETATM   15  C   UNL     1      21.329  51.224  48.191  1.00  0.00     0.030 A 
HETATM   16  C   UNL     1      20.152  50.654  48.683  1.00  0.00     0.002 A 
ENDROOT
BRANCH  11  17
HETATM   17  C   UNL     1      25.957  45.028  49.642  1.00  0.00     0.278 C 
BRANCH  17  18
HETATM   18  O   UNL     1      26.830  43.936  49.380  1.00  0.00    -0.341 OA
BRANCH  18  19
HETATM   19  C   UNL     1      27.169  43.147  50.447  1.00  0.00     0.077 A 
HETATM   20  C   UNL     1      27.451  41.795  50.165  1.00  0.00    -0.001 A 
HETATM   21  C   UNL     1      27.810  40.948  51.235  1.00  0.00     0.012 A 
HETATM   22  C   UNL     1      27.866  41.424  52.544  1.00  0.00     0.001 A 
HETATM   23  C   UNL     1      27.561  42.754  52.811  1.00  0.00     0.003 A 
HETATM   24  C   UNL     1      27.211  43.612  51.768  1.00  0.00     0.037 A 
BRANCH  20  25
HETATM   25  C   UNL     1      27.402  41.269  48.742  1.00  0.00     0.144 C 
HETATM   26  S   UNL     1      28.688  40.012  48.427  1.00  0.00    -0.148 SA
HETATM   27  C   UNL     1      27.736  39.083  47.206  1.00  0.00     0.085 C 
HETATM   28  C   UNL     1      26.330  38.949  47.756  1.00  0.00     0.085 C 
HETATM   29  S   UNL     1      25.760  40.582  48.298  1.00  0.00    -0.148 SA
ENDBRANCH  20  25
ENDBRANCH  18  19
ENDBRANCH  17  18
ENDBRANCH  11  17
TORSDOF 4
ENDMDL
