MODEL 1
REMARK VINA RESULT:     -10.7      0.000      0.000
REMARK  8 active torsions:
REMARK  status: ('A' for Active; 'I' for Inactive)
REMARK    1  A    between atoms: C_3  and  S_4 
REMARK    2  A    between atoms: S_4  and  C_5 
REMARK    3  A    between atoms: C_5  and  C_6 
REMARK       I    between atoms: C_6  and  N_7 
REMARK    4  A    between atoms: N_7  and  C_8 
REMARK    5  A    between atoms: C_8  and  C_9 
REMARK    6  A    between atoms: C_18  and  C_19 
REMARK    7  A    between atoms: C_19  and  O_20 
REMARK    8  A    between atoms: O_20  and  C_21 
ROOT
HETATM    1  C   UNL     1      25.027  44.361  50.372  1.00  0.00     0.160 C 
HETATM    2  N   UNL     1      25.296  45.475  51.245  1.00  0.00    -0.314 N 
HETATM    3  C   UNL     1      24.933  46.781  51.077  1.00  0.00     0.191 A 
HETATM    4  N   UNL     1      25.347  47.494  52.099  1.00  0.00    -0.123 NA
HETATM    5  N   UNL     1      26.008  46.652  52.954  1.00  0.00    -0.132 NA
HETATM    6  C   UNL     1      25.982  45.437  52.439  1.00  0.00     0.154 A 
ENDROOT
BRANCH   3   7
HETATM    7  S   UNL     1      24.072  47.387  49.708  1.00  0.00    -0.081 SA
BRANCH   7   8
HETATM    8  C   UNL     1      25.179  48.718  49.156  1.00  0.00     0.185 C 
BRANCH   8   9
HETATM    9  C   UNL     1      24.438  49.780  48.360  1.00  0.00     0.227 C 
HETATM   10  N   UNL     1      23.260  50.213  48.916  1.00  0.00    -0.356 N 
HETATM   11  H   UNL     1      22.967  49.815  49.807  1.00  0.00     0.162 HD
HETATM   12  O   UNL     1      24.850  50.169  47.268  1.00  0.00    -0.273 OA
BRANCH  10  13
HETATM   13  C   UNL     1      22.368  51.137  48.258  1.00  0.00     0.161 C 
BRANCH  13  14
HETATM   14  C   UNL     1      20.981  51.107  48.850  1.00  0.00    -0.041 A 
HETATM   15  C   UNL     1      20.653  50.158  49.831  1.00  0.00     0.009 A 
HETATM   16  C   UNL     1      19.384  50.148  50.413  1.00  0.00     0.001 A 
HETATM   17  C   UNL     1      18.428  51.083  50.022  1.00  0.00     0.000 A 
HETATM   18  C   UNL     1      18.739  52.028  49.046  1.00  0.00     0.001 A 
HETATM   19  C   UNL     1      20.009  52.044  48.466  1.00  0.00     0.009 A 
ENDBRANCH  13  14
ENDBRANCH  10  13
ENDBRANCH   8   9
ENDBRANCH   7   8
ENDBRANCH   3   7
BRANCH   6  20
HETATM   20  C   UNL     1      26.566  44.214  53.060  1.00  0.00     0.256 C 
BRANCH  20  21
HETATM   21  O   UNL     1      27.970  44.237  52.806  1.00  0.00    -0.344 OA
BRANCH  21  22
HETATM   22  C   UNL     1      28.790  44.213  53.901  1.00  0.00     0.070 A 
HETATM   23  C   UNL     1      28.749  45.104  54.977  1.00  0.00     0.049 A 
HETATM   24  C   UNL     1      29.656  44.985  56.046  1.00  0.00    -0.023 A 
HETATM   25  C   UNL     1      30.615  43.947  56.033  1.00  0.00    -0.026 A 
HETATM   26  C   UNL     1      29.634  45.880  57.129  1.00  0.00     0.012 A 
HETATM   27  C   UNL     1      30.636  43.050  54.956  1.00  0.00     0.015 A 
HETATM   28  C   UNL     1      31.526  43.836  57.096  1.00  0.00     0.012 A 
HETATM   29  C   UNL     1      29.729  43.183  53.903  1.00  0.00     0.037 A 
HETATM   30  C   UNL     1      31.492  44.738  58.161  1.00  0.00     0.001 A 
HETATM   31  C   UNL     1      30.546  45.757  58.178  1.00  0.00     0.001 A 
ENDBRANCH  21  22
ENDBRANCH  20  21
ENDBRANCH   6  20
TORSDOF 8
ENDMDL
MODEL 2
REMARK VINA RESULT:     -10.3      2.654      3.836
REMARK  8 active torsions:
REMARK  status: ('A' for Active; 'I' for Inactive)
REMARK    1  A    between atoms: C_3  and  S_4 
REMARK    2  A    between atoms: S_4  and  C_5 
REMARK    3  A    between atoms: C_5  and  C_6 
REMARK       I    between atoms: C_6  and  N_7 
REMARK    4  A    between atoms: N_7  and  C_8 
REMARK    5  A    between atoms: C_8  and  C_9 
REMARK    6  A    between atoms: C_18  and  C_19 
REMARK    7  A    between atoms: C_19  and  O_20 
REMARK    8  A    between atoms: O_20  and  C_21 
ROOT
HETATM    1  C   UNL     1      26.087  42.257  49.572  1.00  0.00     0.160 C 
HETATM    2  N   UNL     1      25.351  43.171  50.406  1.00  0.00    -0.314 N 
HETATM    3  C   UNL     1      24.156  43.778  50.139  1.00  0.00     0.191 A 
HETATM    4  N   UNL     1      23.800  44.528  51.156  1.00  0.00    -0.123 NA
HETATM    5  N   UNL     1      24.780  44.431  52.109  1.00  0.00    -0.132 NA
HETATM    6  C   UNL     1      25.717  43.618  51.657  1.00  0.00     0.154 A 
ENDROOT
BRANCH   3   7
HETATM    7  S   UNL     1      23.271  43.585  48.669  1.00  0.00    -0.081 SA
BRANCH   7   8
HETATM    8  C   UNL     1      21.968  44.835  48.875  1.00  0.00     0.185 C 
BRANCH   8   9
HETATM    9  C   UNL     1      22.407  46.202  48.377  1.00  0.00     0.227 C 
HETATM   10  N   UNL     1      22.811  47.078  49.354  1.00  0.00    -0.356 N 
HETATM   11  H   UNL     1      22.801  46.765  50.323  1.00  0.00     0.162 HD
HETATM   12  O   UNL     1      22.343  46.503  47.187  1.00  0.00    -0.273 OA
BRANCH  10  13
HETATM   13  C   UNL     1      23.162  48.452  49.087  1.00  0.00     0.161 C 
BRANCH  13  14
HETATM   14  C   UNL     1      24.654  48.672  49.108  1.00  0.00    -0.041 A 
HETATM   15  C   UNL     1      25.485  47.801  49.829  1.00  0.00     0.009 A 
HETATM   16  C   UNL     1      26.871  47.973  49.823  1.00  0.00     0.001 A 
HETATM   17  C   UNL     1      27.442  49.017  49.098  1.00  0.00     0.000 A 
HETATM   18  C   UNL     1      26.628  49.891  48.380  1.00  0.00     0.001 A 
HETATM   19  C   UNL     1      25.242  49.718  48.381  1.00  0.00     0.009 A 
ENDBRANCH  13  14
ENDBRANCH  10  13
ENDBRANCH   8   9
ENDBRANCH   7   8
ENDBRANCH   3   7
BRANCH   6  20
HETATM   20  C   UNL     1      26.951  43.218  52.390  1.00  0.00     0.256 C 
BRANCH  20  21
HETATM   21  O   UNL     1      27.636  44.416  52.755  1.00  0.00    -0.344 OA
BRANCH  21  22
HETATM   22  C   UNL     1      28.509  44.325  53.806  1.00  0.00     0.070 A 
HETATM   23  C   UNL     1      28.548  45.172  54.916  1.00  0.00     0.049 A 
HETATM   24  C   UNL     1      29.503  44.985  55.932  1.00  0.00    -0.023 A 
HETATM   25  C   UNL     1      30.428  43.922  55.830  1.00  0.00    -0.026 A 
HETATM   26  C   UNL     1      29.563  45.837  57.048  1.00  0.00     0.012 A 
HETATM   27  C   UNL     1      30.369  43.069  54.720  1.00  0.00     0.015 A 
HETATM   28  C   UNL     1      31.388  43.743  56.840  1.00  0.00     0.012 A 
HETATM   29  C   UNL     1      29.414  43.268  53.721  1.00  0.00     0.037 A 
HETATM   30  C   UNL     1      31.434  44.602  57.939  1.00  0.00     0.001 A 
HETATM   31  C   UNL     1      30.522  45.647  58.044  1.00  0.00     0.001 A 
ENDBRANCH  21  22
ENDBRANCH  20  21
ENDBRANCH   6  20
TORSDOF 8
ENDMDL
MODEL 3
REMARK VINA RESULT:     -10.1      1.314      1.635
REMARK  8 active torsions:
REMARK  status: ('A' for Active; 'I' for Inactive)
REMARK    1  A    between atoms: C_3  and  S_4 
REMARK    2  A    between atoms: S_4  and  C_5 
REMARK    3  A    between atoms: C_5  and  C_6 
REMARK       I    between atoms: C_6  and  N_7 
REMARK    4  A    between atoms: N_7  and  C_8 
REMARK    5  A    between atoms: C_8  and  C_9 
REMARK    6  A    between atoms: C_18  and  C_19 
REMARK    7  A    between atoms: C_19  and  O_20 
REMARK    8  A    between atoms: O_20  and  C_21 
ROOT
HETATM    1  C   UNL     1      26.135  46.528  52.559  1.00  0.00     0.160 C 
HETATM    2  N   UNL     1      26.510  45.904  51.317  1.00  0.00    -0.314 N 
HETATM    3  C   UNL     1      26.515  46.455  50.067  1.00  0.00     0.191 A 
HETATM    4  N   UNL     1      26.939  45.572  49.192  1.00  0.00    -0.123 NA
HETATM    5  N   UNL     1      27.207  44.411  49.868  1.00  0.00    -0.132 NA
HETATM    6  C   UNL     1      26.944  44.607  51.147  1.00  0.00     0.154 A 
ENDROOT
BRANCH   3   7
HETATM    7  S   UNL     1      26.018  48.070  49.710  1.00  0.00    -0.081 SA
BRANCH   7   8
HETATM    8  C   UNL     1      24.211  47.885  49.678  1.00  0.00     0.185 C 
BRANCH   8   9
HETATM    9  C   UNL     1      23.524  49.109  49.097  1.00  0.00     0.227 C 
HETATM   10  N   UNL     1      22.384  48.853  48.375  1.00  0.00    -0.356 N 
HETATM   11  H   UNL     1      22.072  47.888  48.284  1.00  0.00     0.162 HD
HETATM   12  O   UNL     1      24.002  50.236  49.224  1.00  0.00    -0.273 OA
BRANCH  10  13
HETATM   13  C   UNL     1      21.655  49.874  47.661  1.00  0.00     0.161 C 
BRANCH  13  14
HETATM   14  C   UNL     1      20.454  50.359  48.433  1.00  0.00    -0.041 A 
HETATM   15  C   UNL     1      19.675  49.453  49.169  1.00  0.00     0.009 A 
HETATM   16  C   UNL     1      18.584  49.898  49.919  1.00  0.00     0.001 A 
HETATM   17  C   UNL     1      18.257  51.252  49.940  1.00  0.00     0.000 A 
HETATM   18  C   UNL     1      19.020  52.163  49.210  1.00  0.00     0.001 A 
HETATM   19  C   UNL     1      20.114  51.720  48.464  1.00  0.00     0.009 A 
ENDBRANCH  13  14
ENDBRANCH  10  13
ENDBRANCH   8   9
ENDBRANCH   7   8
ENDBRANCH   3   7
BRANCH   6  20
HETATM   20  C   UNL     1      27.121  43.607  52.237  1.00  0.00     0.256 C 
BRANCH  20  21
HETATM   21  O   UNL     1      28.522  43.372  52.375  1.00  0.00    -0.344 OA
BRANCH  21  22
HETATM   22  C   UNL     1      29.079  43.688  53.585  1.00  0.00     0.070 A 
HETATM   23  C   UNL     1      28.617  44.664  54.471  1.00  0.00     0.049 A 
HETATM   24  C   UNL     1      29.283  44.907  55.687  1.00  0.00    -0.023 A 
HETATM   25  C   UNL     1      30.429  44.147  56.016  1.00  0.00    -0.026 A 
HETATM   26  C   UNL     1      28.838  45.894  56.582  1.00  0.00     0.012 A 
HETATM   27  C   UNL     1      30.872  43.160  55.127  1.00  0.00     0.015 A 
HETATM   28  C   UNL     1      31.098  44.399  57.225  1.00  0.00     0.012 A 
HETATM   29  C   UNL     1      30.200  42.932  53.925  1.00  0.00     0.037 A 
HETATM   30  C   UNL     1      30.643  45.386  58.101  1.00  0.00     0.001 A 
HETATM   31  C   UNL     1      29.513  46.132  57.780  1.00  0.00     0.001 A 
ENDBRANCH  21  22
ENDBRANCH  20  21
ENDBRANCH   6  20
TORSDOF 8
ENDMDL
MODEL 4
REMARK VINA RESULT:     -10.1      1.478      1.770
REMARK  8 active torsions:
REMARK  status: ('A' for Active; 'I' for Inactive)
REMARK    1  A    between atoms: C_3  and  S_4 
REMARK    2  A    between atoms: S_4  and  C_5 
REMARK    3  A    between atoms: C_5  and  C_6 
REMARK       I    between atoms: C_6  and  N_7 
REMARK    4  A    between atoms: N_7  and  C_8 
REMARK    5  A    between atoms: C_8  and  C_9 
REMARK    6  A    between atoms: C_18  and  C_19 
REMARK    7  A    between atoms: C_19  and  O_20 
REMARK    8  A    between atoms: O_20  and  C_21 
ROOT
HETATM    1  C   UNL     1      24.668  43.112  50.807  1.00  0.00     0.160 C 
HETATM    2  N   UNL     1      24.756  44.547  50.891  1.00  0.00    -0.314 N 
HETATM    3  C   UNL     1      24.231  45.473  50.034  1.00  0.00     0.191 A 
HETATM    4  N   UNL     1      24.510  46.683  50.460  1.00  0.00    -0.123 NA
HETATM    5  N   UNL     1      25.243  46.561  51.611  1.00  0.00    -0.132 NA
HETATM    6  C   UNL     1      25.397  45.276  51.869  1.00  0.00     0.154 A 
ENDROOT
BRANCH   3   7
HETATM    7  S   UNL     1      23.349  45.086  48.600  1.00  0.00    -0.081 SA
BRANCH   7   8
HETATM    8  C   UNL     1      21.869  46.120  48.807  1.00  0.00     0.185 C 
BRANCH   8   9
HETATM    9  C   UNL     1      22.137  47.574  48.456  1.00  0.00     0.227 C 
HETATM   10  N   UNL     1      22.066  48.453  49.508  1.00  0.00    -0.356 N 
HETATM   11  H   UNL     1      21.854  48.087  50.434  1.00  0.00     0.162 HD
HETATM   12  O   UNL     1      22.342  47.927  47.295  1.00  0.00    -0.273 OA
BRANCH  10  13
HETATM   13  C   UNL     1      22.186  49.883  49.352  1.00  0.00     0.161 C 
BRANCH  13  14
HETATM   14  C   UNL     1      20.844  50.570  49.366  1.00  0.00    -0.041 A 
HETATM   15  C   UNL     1      20.594  51.647  48.502  1.00  0.00     0.009 A 
HETATM   16  C   UNL     1      19.342  52.265  48.479  1.00  0.00     0.001 A 
HETATM   17  C   UNL     1      18.326  51.815  49.320  1.00  0.00     0.000 A 
HETATM   18  C   UNL     1      18.561  50.749  50.186  1.00  0.00     0.001 A 
HETATM   19  C   UNL     1      19.811  50.127  50.207  1.00  0.00     0.009 A 
ENDBRANCH  13  14
ENDBRANCH  10  13
ENDBRANCH   8   9
ENDBRANCH   7   8
ENDBRANCH   3   7
BRANCH   6  20
HETATM   20  C   UNL     1      26.112  44.702  53.043  1.00  0.00     0.256 C 
BRANCH  20  21
HETATM   21  O   UNL     1      27.487  44.572  52.681  1.00  0.00    -0.344 OA
BRANCH  21  22
HETATM   22  C   UNL     1      28.379  44.427  53.709  1.00  0.00     0.070 A 
HETATM   23  C   UNL     1      28.453  45.229  54.851  1.00  0.00     0.049 A 
HETATM   24  C   UNL     1      29.426  44.987  55.839  1.00  0.00    -0.023 A 
HETATM   25  C   UNL     1      30.333  43.915  55.675  1.00  0.00    -0.026 A 
HETATM   26  C   UNL     1      29.521  45.793  56.986  1.00  0.00     0.012 A 
HETATM   27  C   UNL     1      30.238  43.108  54.534  1.00  0.00     0.015 A 
HETATM   28  C   UNL     1      31.309  43.683  56.658  1.00  0.00     0.012 A 
HETATM   29  C   UNL     1      29.266  43.361  53.564  1.00  0.00     0.037 A 
HETATM   30  C   UNL     1      31.391  44.496  57.789  1.00  0.00     0.001 A 
HETATM   31  C   UNL     1      30.497  45.549  57.954  1.00  0.00     0.001 A 
ENDBRANCH  21  22
ENDBRANCH  20  21
ENDBRANCH   6  20
TORSDOF 8
ENDMDL
MODEL 5
REMARK VINA RESULT:      -9.7      1.652     11.227
REMARK  8 active torsions:
REMARK  status: ('A' for Active; 'I' for Inactive)
REMARK    1  A    between atoms: C_3  and  S_4 
REMARK    2  A    between atoms: S_4  and  C_5 
REMARK    3  A    between atoms: C_5  and  C_6 
REMARK       I    between atoms: C_6  and  N_7 
REMARK    4  A    between atoms: N_7  and  C_8 
REMARK    5  A    between atoms: C_8  and  C_9 
REMARK    6  A    between atoms: C_18  and  C_19 
REMARK    7  A    between atoms: C_19  and  O_20 
REMARK    8  A    between atoms: O_20  and  C_21 
ROOT
HETATM    1  C   UNL     1      22.906  46.217  48.751  1.00  0.00     0.160 C 
HETATM    2  N   UNL     1      23.946  46.625  49.660  1.00  0.00    -0.314 N 
HETATM    3  C   UNL     1      24.574  45.872  50.611  1.00  0.00     0.191 A 
HETATM    4  N   UNL     1      25.479  46.597  51.227  1.00  0.00    -0.123 NA
HETATM    5  N   UNL     1      25.443  47.855  50.687  1.00  0.00    -0.132 NA
HETATM    6  C   UNL     1      24.517  47.876  49.747  1.00  0.00     0.154 A 
ENDROOT
BRANCH   3   7
HETATM    7  S   UNL     1      24.206  44.219  50.948  1.00  0.00    -0.081 SA
BRANCH   7   8
HETATM    8  C   UNL     1      25.735  43.676  51.766  1.00  0.00     0.185 C 
BRANCH   8   9
HETATM    9  C   UNL     1      25.873  44.266  53.160  1.00  0.00     0.227 C 
HETATM   10  N   UNL     1      27.004  45.017  53.368  1.00  0.00    -0.356 N 
HETATM   11  H   UNL     1      27.657  45.138  52.595  1.00  0.00     0.162 HD
HETATM   12  O   UNL     1      25.051  44.028  54.043  1.00  0.00    -0.273 OA
BRANCH  10  13
HETATM   13  C   UNL     1      27.361  45.568  54.653  1.00  0.00     0.161 C 
BRANCH  13  14
HETATM   14  C   UNL     1      28.648  44.988  55.182  1.00  0.00    -0.041 A 
HETATM   15  C   UNL     1      29.207  43.848  54.584  1.00  0.00     0.009 A 
HETATM   16  C   UNL     1      30.418  43.325  55.042  1.00  0.00     0.001 A 
HETATM   17  C   UNL     1      31.084  43.935  56.103  1.00  0.00     0.000 A 
HETATM   18  C   UNL     1      30.539  45.065  56.710  1.00  0.00     0.001 A 
HETATM   19  C   UNL     1      29.330  45.591  56.250  1.00  0.00     0.009 A 
ENDBRANCH  13  14
ENDBRANCH  10  13
ENDBRANCH   8   9
ENDBRANCH   7   8
ENDBRANCH   3   7
BRANCH   6  20
HETATM   20  C   UNL     1      24.167  49.045  48.892  1.00  0.00     0.256 C 
BRANCH  20  21
HETATM   21  O   UNL     1      23.417  49.952  49.699  1.00  0.00    -0.344 OA
BRANCH  21  22
HETATM   22  C   UNL     1      22.206  50.354  49.203  1.00  0.00     0.070 A 
HETATM   23  C   UNL     1      21.195  50.994  49.924  1.00  0.00     0.049 A 
HETATM   24  C   UNL     1      19.983  51.350  49.305  1.00  0.00    -0.023 A 
HETATM   25  C   UNL     1      19.791  51.062  47.934  1.00  0.00    -0.026 A 
HETATM   26  C   UNL     1      18.952  51.983  50.020  1.00  0.00     0.012 A 
HETATM   27  C   UNL     1      20.818  50.434  47.218  1.00  0.00     0.015 A 
HETATM   28  C   UNL     1      18.576  51.409  47.321  1.00  0.00     0.012 A 
HETATM   29  C   UNL     1      22.015  50.088  47.848  1.00  0.00     0.037 A 
HETATM   30  C   UNL     1      17.562  52.034  48.049  1.00  0.00     0.001 A 
HETATM   31  C   UNL     1      17.751  52.322  49.397  1.00  0.00     0.001 A 
ENDBRANCH  21  22
ENDBRANCH  20  21
ENDBRANCH   6  20
TORSDOF 8
ENDMDL
MODEL 6
REMARK VINA RESULT:      -9.7      1.705      2.616
REMARK  8 active torsions:
REMARK  status: ('A' for Active; 'I' for Inactive)
REMARK    1  A    between atoms: C_3  and  S_4 
REMARK    2  A    between atoms: S_4  and  C_5 
REMARK    3  A    between atoms: C_5  and  C_6 
REMARK       I    between atoms: C_6  and  N_7 
REMARK    4  A    between atoms: N_7  and  C_8 
REMARK    5  A    between atoms: C_8  and  C_9 
REMARK    6  A    between atoms: C_18  and  C_19 
REMARK    7  A    between atoms: C_19  and  O_20 
REMARK    8  A    between atoms: O_20  and  C_21 
ROOT
HETATM    1  C   UNL     1      23.681  44.860  49.557  1.00  0.00     0.160 C 
HETATM    2  N   UNL     1      24.283  46.112  49.938  1.00  0.00    -0.314 N 
HETATM    3  C   UNL     1      23.877  47.374  49.609  1.00  0.00     0.191 A 
HETATM    4  N   UNL     1      24.676  48.257  50.163  1.00  0.00    -0.123 NA
HETATM    5  N   UNL     1      25.636  47.572  50.859  1.00  0.00    -0.132 NA
HETATM    6  C   UNL     1      25.405  46.280  50.721  1.00  0.00     0.154 A 
ENDROOT
BRANCH   3   7
HETATM    7  S   UNL     1      22.522  47.732  48.601  1.00  0.00    -0.081 SA
BRANCH   7   8
HETATM    8  C   UNL     1      22.823  49.481  48.212  1.00  0.00     0.185 C 
BRANCH   8   9
HETATM    9  C   UNL     1      22.173  50.409  49.226  1.00  0.00     0.227 C 
HETATM   10  N   UNL     1      20.800  50.393  49.238  1.00  0.00    -0.356 N 
HETATM   11  H   UNL     1      20.315  49.771  48.594  1.00  0.00     0.162 HD
HETATM   12  O   UNL     1      22.844  51.158  49.935  1.00  0.00    -0.273 OA
BRANCH  10  13
HETATM   13  C   UNL     1      20.007  51.279  50.055  1.00  0.00     0.161 C 
BRANCH  13  14
HETATM   14  C   UNL     1      18.576  51.356  49.586  1.00  0.00    -0.041 A 
HETATM   15  C   UNL     1      17.998  50.273  48.906  1.00  0.00     0.009 A 
HETATM   16  C   UNL     1      16.662  50.318  48.502  1.00  0.00     0.001 A 
HETATM   17  C   UNL     1      15.889  51.446  48.771  1.00  0.00     0.000 A 
HETATM   18  C   UNL     1      16.452  52.530  49.442  1.00  0.00     0.001 A 
HETATM   19  C   UNL     1      17.786  52.485  49.851  1.00  0.00     0.009 A 
ENDBRANCH  13  14
ENDBRANCH  10  13
ENDBRANCH   8   9
ENDBRANCH   7   8
ENDBRANCH   3   7
BRANCH   6  20
HETATM   20  C   UNL     1      26.200  45.181  51.337  1.00  0.00     0.256 C 
BRANCH  20  21
HETATM   21  O   UNL     1      25.920  45.187  52.736  1.00  0.00    -0.344 OA
BRANCH  21  22
HETATM   22  C   UNL     1      27.001  45.169  53.576  1.00  0.00     0.070 A 
HETATM   23  C   UNL     1      27.878  44.097  53.762  1.00  0.00     0.049 A 
HETATM   24  C   UNL     1      28.952  44.193  54.666  1.00  0.00    -0.023 A 
HETATM   25  C   UNL     1      29.149  45.393  55.387  1.00  0.00    -0.026 A 
HETATM   26  C   UNL     1      29.834  43.119  54.873  1.00  0.00     0.012 A 
HETATM   27  C   UNL     1      28.274  46.466  55.180  1.00  0.00     0.015 A 
HETATM   28  C   UNL     1      30.216  45.483  56.296  1.00  0.00     0.012 A 
HETATM   29  C   UNL     1      27.213  46.354  54.279  1.00  0.00     0.037 A 
HETATM   30  C   UNL     1      31.080  44.404  56.492  1.00  0.00     0.001 A 
HETATM   31  C   UNL     1      30.890  43.224  55.780  1.00  0.00     0.001 A 
ENDBRANCH  21  22
ENDBRANCH  20  21
ENDBRANCH   6  20
TORSDOF 8
ENDMDL
MODEL 7
REMARK VINA RESULT:      -9.2      2.257      3.115
REMARK  8 active torsions:
REMARK  status: ('A' for Active; 'I' for Inactive)
REMARK    1  A    between atoms: C_3  and  S_4 
REMARK    2  A    between atoms: S_4  and  C_5 
REMARK    3  A    between atoms: C_5  and  C_6 
REMARK       I    between atoms: C_6  and  N_7 
REMARK    4  A    between atoms: N_7  and  C_8 
REMARK    5  A    between atoms: C_8  and  C_9 
REMARK    6  A    between atoms: C_18  and  C_19 
REMARK    7  A    between atoms: C_19  and  O_20 
REMARK    8  A    between atoms: O_20  and  C_21 
ROOT
HETATM    1  C   UNL     1      25.112  44.473  50.526  1.00  0.00     0.160 C 
HETATM    2  N   UNL     1      24.670  45.822  50.286  1.00  0.00    -0.314 N 
HETATM    3  C   UNL     1      23.609  46.237  49.531  1.00  0.00     0.191 A 
HETATM    4  N   UNL     1      23.521  47.547  49.570  1.00  0.00    -0.123 NA
HETATM    5  N   UNL     1      24.546  48.011  50.351  1.00  0.00    -0.132 NA
HETATM    6  C   UNL     1      25.242  46.974  50.779  1.00  0.00     0.154 A 
ENDROOT
BRANCH   3   7
HETATM    7  S   UNL     1      22.563  45.181  48.652  1.00  0.00    -0.081 SA
BRANCH   7   8
HETATM    8  C   UNL     1      21.985  46.281  47.326  1.00  0.00     0.185 C 
BRANCH   8   9
HETATM    9  C   UNL     1      20.614  46.863  47.629  1.00  0.00     0.227 C 
HETATM   10  N   UNL     1      20.509  47.520  48.830  1.00  0.00    -0.356 N 
HETATM   11  H   UNL     1      21.334  47.585  49.423  1.00  0.00     0.162 HD
HETATM   12  O   UNL     1      19.662  46.697  46.867  1.00  0.00    -0.273 OA
BRANCH  10  13
HETATM   13  C   UNL     1      19.264  48.046  49.336  1.00  0.00     0.161 C 
BRANCH  13  14
HETATM   14  C   UNL     1      19.185  49.547  49.203  1.00  0.00    -0.041 A 
HETATM   15  C   UNL     1      18.267  50.276  49.975  1.00  0.00     0.009 A 
HETATM   16  C   UNL     1      18.213  51.669  49.887  1.00  0.00     0.001 A 
HETATM   17  C   UNL     1      19.074  52.348  49.028  1.00  0.00     0.000 A 
HETATM   18  C   UNL     1      19.988  51.636  48.254  1.00  0.00     0.001 A 
HETATM   19  C   UNL     1      20.046  50.244  48.343  1.00  0.00     0.009 A 
ENDBRANCH  13  14
ENDBRANCH  10  13
ENDBRANCH   8   9
ENDBRANCH   7   8
ENDBRANCH   3   7
BRANCH   6  20
HETATM   20  C   UNL     1      26.430  47.032  51.676  1.00  0.00     0.256 C 
BRANCH  20  21
HETATM   21  O   UNL     1      26.069  46.395  52.901  1.00  0.00    -0.344 OA
BRANCH  21  22
HETATM   22  C   UNL     1      27.096  46.042  53.733  1.00  0.00     0.070 A 
HETATM   23  C   UNL     1      27.844  44.864  53.660  1.00  0.00     0.049 A 
HETATM   24  C   UNL     1      28.874  44.605  54.583  1.00  0.00    -0.023 A 
HETATM   25  C   UNL     1      29.159  45.554  55.592  1.00  0.00    -0.026 A 
HETATM   26  C   UNL     1      29.626  43.419  54.530  1.00  0.00     0.012 A 
HETATM   27  C   UNL     1      28.413  46.739  55.645  1.00  0.00     0.015 A 
HETATM   28  C   UNL     1      30.180  45.289  56.519  1.00  0.00     0.012 A 
HETATM   29  C   UNL     1      27.395  46.980  54.721  1.00  0.00     0.037 A 
HETATM   30  C   UNL     1      30.913  44.103  56.452  1.00  0.00     0.001 A 
HETATM   31  C   UNL     1      30.638  43.170  55.458  1.00  0.00     0.001 A 
ENDBRANCH  21  22
ENDBRANCH  20  21
ENDBRANCH   6  20
TORSDOF 8
ENDMDL
MODEL 8
REMARK VINA RESULT:      -9.2      1.951     12.077
REMARK  8 active torsions:
REMARK  status: ('A' for Active; 'I' for Inactive)
REMARK    1  A    between atoms: C_3  and  S_4 
REMARK    2  A    between atoms: S_4  and  C_5 
REMARK    3  A    between atoms: C_5  and  C_6 
REMARK       I    between atoms: C_6  and  N_7 
REMARK    4  A    between atoms: N_7  and  C_8 
REMARK    5  A    between atoms: C_8  and  C_9 
REMARK    6  A    between atoms: C_18  and  C_19 
REMARK    7  A    between atoms: C_19  and  O_20 
REMARK    8  A    between atoms: O_20  and  C_21 
ROOT
HETATM    1  C   UNL     1      22.110  47.506  48.792  1.00  0.00     0.160 C 
HETATM    2  N   UNL     1      23.376  48.158  49.009  1.00  0.00    -0.314 N 
HETATM    3  C   UNL     1      24.514  47.626  49.545  1.00  0.00     0.191 A 
HETATM    4  N   UNL     1      25.464  48.532  49.562  1.00  0.00    -0.123 NA
HETATM    5  N   UNL     1      24.946  49.689  49.043  1.00  0.00    -0.132 NA
HETATM    6  C   UNL     1      23.687  49.467  48.714  1.00  0.00     0.154 A 
ENDROOT
BRANCH   3   7
HETATM    7  S   UNL     1      24.657  46.004  50.122  1.00  0.00    -0.081 SA
BRANCH   7   8
HETATM    8  C   UNL     1      25.111  46.287  51.858  1.00  0.00     0.185 C 
BRANCH   8   9
HETATM    9  C   UNL     1      25.575  45.009  52.540  1.00  0.00     0.227 C 
HETATM   10  N   UNL     1      26.936  44.838  52.598  1.00  0.00    -0.356 N 
HETATM   11  H   UNL     1      27.534  45.560  52.202  1.00  0.00     0.162 HD
HETATM   12  O   UNL     1      24.772  44.173  52.951  1.00  0.00    -0.273 OA
BRANCH  10  13
HETATM   13  C   UNL     1      27.560  43.642  53.111  1.00  0.00     0.161 C 
BRANCH  13  14
HETATM   14  C   UNL     1      28.640  43.952  54.116  1.00  0.00    -0.041 A 
HETATM   15  C   UNL     1      28.595  45.143  54.856  1.00  0.00     0.009 A 
HETATM   16  C   UNL     1      29.569  45.421  55.817  1.00  0.00     0.001 A 
HETATM   17  C   UNL     1      30.600  44.513  56.049  1.00  0.00     0.000 A 
HETATM   18  C   UNL     1      30.660  43.327  55.318  1.00  0.00     0.001 A 
HETATM   19  C   UNL     1      29.684  43.046  54.360  1.00  0.00     0.009 A 
ENDBRANCH  13  14
ENDBRANCH  10  13
ENDBRANCH   8   9
ENDBRANCH   7   8
ENDBRANCH   3   7
BRANCH   6  20
HETATM   20  C   UNL     1      22.761  50.455  48.093  1.00  0.00     0.256 C 
BRANCH  20  21
HETATM   21  O   UNL     1      21.924  50.965  49.131  1.00  0.00    -0.344 OA
BRANCH  21  22
HETATM   22  C   UNL     1      20.609  51.169  48.811  1.00  0.00     0.070 A 
HETATM   23  C   UNL     1      20.023  50.944  47.563  1.00  0.00     0.049 A 
HETATM   24  C   UNL     1      18.657  51.202  47.351  1.00  0.00    -0.023 A 
HETATM   25  C   UNL     1      17.867  51.688  48.418  1.00  0.00    -0.026 A 
HETATM   26  C   UNL     1      18.056  50.993  46.098  1.00  0.00     0.012 A 
HETATM   27  C   UNL     1      18.462  51.894  49.670  1.00  0.00     0.015 A 
HETATM   28  C   UNL     1      16.505  51.956  48.202  1.00  0.00     0.012 A 
HETATM   29  C   UNL     1      19.820  51.632  49.863  1.00  0.00     0.037 A 
HETATM   30  C   UNL     1      15.927  51.746  46.949  1.00  0.00     0.001 A 
HETATM   31  C   UNL     1      16.702  51.263  45.899  1.00  0.00     0.001 A 
ENDBRANCH  21  22
ENDBRANCH  20  21
ENDBRANCH   6  20
TORSDOF 8
ENDMDL
MODEL 9
REMARK VINA RESULT:      -9.1      2.370      3.053
REMARK  8 active torsions:
REMARK  status: ('A' for Active; 'I' for Inactive)
REMARK    1  A    between atoms: C_3  and  S_4 
REMARK    2  A    between atoms: S_4  and  C_5 
REMARK    3  A    between atoms: C_5  and  C_6 
REMARK       I    between atoms: C_6  and  N_7 
REMARK    4  A    between atoms: N_7  and  C_8 
REMARK    5  A    between atoms: C_8  and  C_9 
REMARK    6  A    between atoms: C_18  and  C_19 
REMARK    7  A    between atoms: C_19  and  O_20 
REMARK    8  A    between atoms: O_20  and  C_21 
ROOT
HETATM    1  C   UNL     1      23.459  45.052  49.792  1.00  0.00     0.160 C 
HETATM    2  N   UNL     1      24.207  46.256  50.045  1.00  0.00    -0.314 N 
HETATM    3  C   UNL     1      23.986  47.505  49.539  1.00  0.00     0.191 A 
HETATM    4  N   UNL     1      24.873  48.345  50.020  1.00  0.00    -0.123 NA
HETATM    5  N   UNL     1      25.706  47.641  50.849  1.00  0.00    -0.132 NA
HETATM    6  C   UNL     1      25.310  46.382  50.861  1.00  0.00     0.154 A 
ENDROOT
BRANCH   3   7
HETATM    7  S   UNL     1      22.730  47.897  48.419  1.00  0.00    -0.081 SA
BRANCH   7   8
HETATM    8  C   UNL     1      22.442  49.648  48.811  1.00  0.00     0.185 C 
BRANCH   8   9
HETATM    9  C   UNL     1      21.054  49.881  49.385  1.00  0.00     0.227 C 
HETATM   10  N   UNL     1      20.386  48.748  49.780  1.00  0.00    -0.356 N 
HETATM   11  H   UNL     1      20.851  47.848  49.676  1.00  0.00     0.162 HD
HETATM   12  O   UNL     1      20.558  51.006  49.431  1.00  0.00    -0.273 OA
BRANCH  10  13
HETATM   13  C   UNL     1      19.022  48.760  50.250  1.00  0.00     0.161 C 
BRANCH  13  14
HETATM   14  C   UNL     1      18.046  48.359  49.172  1.00  0.00    -0.041 A 
HETATM   15  C   UNL     1      17.051  49.256  48.753  1.00  0.00     0.009 A 
HETATM   16  C   UNL     1      16.168  48.909  47.728  1.00  0.00     0.001 A 
HETATM   17  C   UNL     1      16.267  47.663  47.112  1.00  0.00     0.000 A 
HETATM   18  C   UNL     1      17.248  46.762  47.521  1.00  0.00     0.001 A 
HETATM   19  C   UNL     1      18.135  47.108  48.543  1.00  0.00     0.009 A 
ENDBRANCH  13  14
ENDBRANCH  10  13
ENDBRANCH   8   9
ENDBRANCH   7   8
ENDBRANCH   3   7
BRANCH   6  20
HETATM   20  C   UNL     1      25.927  45.281  51.654  1.00  0.00     0.256 C 
BRANCH  20  21
HETATM   21  O   UNL     1      26.230  45.805  52.946  1.00  0.00    -0.344 OA
BRANCH  21  22
HETATM   22  C   UNL     1      27.292  45.243  53.600  1.00  0.00     0.070 A 
HETATM   23  C   UNL     1      27.912  45.748  54.746  1.00  0.00     0.049 A 
HETATM   24  C   UNL     1      29.009  45.083  55.325  1.00  0.00    -0.023 A 
HETATM   25  C   UNL     1      29.483  43.886  54.743  1.00  0.00    -0.026 A 
HETATM   26  C   UNL     1      29.649  45.587  56.470  1.00  0.00     0.012 A 
HETATM   27  C   UNL     1      28.844  43.381  53.603  1.00  0.00     0.015 A 
HETATM   28  C   UNL     1      30.585  43.230  55.316  1.00  0.00     0.012 A 
HETATM   29  C   UNL     1      27.756  44.053  53.042  1.00  0.00     0.037 A 
HETATM   30  C   UNL     1      31.211  43.747  56.451  1.00  0.00     0.001 A 
HETATM   31  C   UNL     1      30.743  44.923  57.028  1.00  0.00     0.001 A 
ENDBRANCH  21  22
ENDBRANCH  20  21
ENDBRANCH   6  20
TORSDOF 8
ENDMDL
MODEL 10
REMARK VINA RESULT:      -9.1      1.888     11.261
REMARK  8 active torsions:
REMARK  status: ('A' for Active; 'I' for Inactive)
REMARK    1  A    between atoms: C_3  and  S_4 
REMARK    2  A    between atoms: S_4  and  C_5 
REMARK    3  A    between atoms: C_5  and  C_6 
REMARK       I    between atoms: C_6  and  N_7 
REMARK    4  A    between atoms: N_7  and  C_8 
REMARK    5  A    between atoms: C_8  and  C_9 
REMARK    6  A    between atoms: C_18  and  C_19 
REMARK    7  A    between atoms: C_19  and  O_20 
REMARK    8  A    between atoms: O_20  and  C_21 
ROOT
HETATM    1  C   UNL     1      26.029  47.204  51.464  1.00  0.00     0.160 C 
HETATM    2  N   UNL     1      25.028  46.475  50.728  1.00  0.00    -0.314 N 
HETATM    3  C   UNL     1      24.647  45.173  50.892  1.00  0.00     0.191 A 
HETATM    4  N   UNL     1      23.691  44.879  50.041  1.00  0.00    -0.123 NA
HETATM    5  N   UNL     1      23.442  45.998  49.291  1.00  0.00    -0.132 NA
HETATM    6  C   UNL     1      24.249  46.958  49.699  1.00  0.00     0.154 A 
ENDROOT
BRANCH   3   7
HETATM    7  S   UNL     1      25.344  44.089  52.041  1.00  0.00    -0.081 SA
BRANCH   7   8
HETATM    8  C   UNL     1      26.283  42.977  50.953  1.00  0.00     0.185 C 
BRANCH   8   9
HETATM    9  C   UNL     1      27.447  42.322  51.678  1.00  0.00     0.227 C 
HETATM   10  N   UNL     1      27.603  42.694  52.990  1.00  0.00    -0.356 N 
HETATM   11  H   UNL     1      26.944  43.359  53.389  1.00  0.00     0.162 HD
HETATM   12  O   UNL     1      28.219  41.560  51.097  1.00  0.00    -0.273 OA
BRANCH  10  13
HETATM   13  C   UNL     1      28.711  42.260  53.808  1.00  0.00     0.161 C 
BRANCH  13  14
HETATM   14  C   UNL     1      29.271  43.381  54.647  1.00  0.00    -0.041 A 
HETATM   15  C   UNL     1      30.507  43.229  55.293  1.00  0.00     0.009 A 
HETATM   16  C   UNL     1      31.053  44.275  56.040  1.00  0.00     0.001 A 
HETATM   17  C   UNL     1      30.369  45.484  56.152  1.00  0.00     0.000 A 
HETATM   18  C   UNL     1      29.138  45.647  55.519  1.00  0.00     0.001 A 
HETATM   19  C   UNL     1      28.593  44.604  54.767  1.00  0.00     0.009 A 
ENDBRANCH  13  14
ENDBRANCH  10  13
ENDBRANCH   8   9
ENDBRANCH   7   8
ENDBRANCH   3   7
BRANCH   6  20
HETATM   20  C   UNL     1      24.292  48.348  49.165  1.00  0.00     0.256 C 
BRANCH  20  21
HETATM   21  O   UNL     1      23.384  48.410  48.066  1.00  0.00    -0.344 OA
BRANCH  21  22
HETATM   22  C   UNL     1      22.329  49.273  48.191  1.00  0.00     0.070 A 
HETATM   23  C   UNL     1      20.977  48.923  48.191  1.00  0.00     0.049 A 
HETATM   24  C   UNL     1      19.978  49.905  48.316  1.00  0.00    -0.023 A 
HETATM   25  C   UNL     1      20.349  51.262  48.450  1.00  0.00    -0.026 A 
HETATM   26  C   UNL     1      18.613  49.569  48.306  1.00  0.00     0.012 A 
HETATM   27  C   UNL     1      21.709  51.600  48.465  1.00  0.00     0.015 A 
HETATM   28  C   UNL     1      19.350  52.243  48.564  1.00  0.00     0.012 A 
HETATM   29  C   UNL     1      22.688  50.612  48.340  1.00  0.00     0.037 A 
HETATM   30  C   UNL     1      18.000  51.890  48.547  1.00  0.00     0.001 A 
HETATM   31  C   UNL     1      17.632  50.555  48.420  1.00  0.00     0.001 A 
ENDBRANCH  21  22
ENDBRANCH  20  21
ENDBRANCH   6  20
TORSDOF 8
ENDMDL
