MODEL 1
REMARK VINA RESULT:     -10.2      0.000      0.000
REMARK  6 active torsions:
REMARK  status: ('A' for Active; 'I' for Inactive)
REMARK    1  A    between atoms: C_5  and  N_6 
REMARK    2  A    between atoms: N_6  and  N_7 
REMARK       I    between atoms: N_7  and  C_8 
REMARK    3  A    between atoms: C_8  and  C_9 
REMARK    4  A    between atoms: C_9  and  N_10 
REMARK    5  A    between atoms: N_10  and  C_11 
REMARK    6  A    between atoms: C_13  and  C_14 
ROOT
HETATM    1  C   UNL     1      29.580  42.903  53.286  1.00  0.00     0.203 A 
HETATM    2  N   UNL     1      28.724  43.922  53.369  1.00  0.00    -0.217 NA
HETATM    3  C   UNL     1      28.817  44.727  54.454  1.00  0.00     0.083 A 
HETATM    4  C   UNL     1      29.740  44.505  55.491  1.00  0.00     0.023 A 
HETATM    5  C   UNL     1      30.588  43.416  55.279  1.00  0.00     0.072 A 
HETATM    6  N   UNL     1      30.514  42.632  54.200  1.00  0.00    -0.218 NA
HETATM    7  C   UNL     1      29.857  45.256  56.693  1.00  0.00     0.023 A 
HETATM    8  C   UNL     1      30.817  44.939  57.659  1.00  0.00    -0.061 A 
HETATM    9  C   UNL     1      30.953  45.747  58.915  1.00  0.00     0.048 C 
HETATM   10  C   UNL     1      31.677  43.872  57.413  1.00  0.00     0.009 A 
HETATM   11  C   UNL     1      31.549  43.125  56.239  1.00  0.00     0.033 A 
ENDROOT
BRANCH   1  12
HETATM   12  N   UNL     1      29.507  41.999  52.236  1.00  0.00    -0.252 NA
HETATM   13  H   UNL     1      29.393  42.583  51.411  1.00  0.00     0.131 HD
BRANCH  12  14
HETATM   14  C   UNL     1      28.493  40.960  52.371  1.00  0.00     0.199 C 
BRANCH  14  15
HETATM   15  C   UNL     1      27.264  41.230  51.496  1.00  0.00     0.245 C 
HETATM   16  N   UNL     1      26.420  42.200  52.025  1.00  0.00    -0.286 N 
HETATM   17  H   UNL     1      26.738  42.873  52.716  1.00  0.00     0.184 HD
HETATM   18  O   UNL     1      27.009  40.633  50.450  1.00  0.00    -0.271 OA
BRANCH  16  19
HETATM   19  N   UNL     1      25.349  42.632  51.216  1.00  0.00    -0.203 NA
HETATM   20  H   UNL     1      24.475  42.600  51.764  1.00  0.00     0.153 HD
BRANCH  19  21
HETATM   21  C   UNL     1      25.496  43.959  50.727  1.00  0.00     0.027 A 
HETATM   22  C   UNL     1      24.389  44.813  50.823  1.00  0.00     0.026 A 
HETATM   23  C   UNL     1      24.473  46.153  50.429  1.00  0.00     0.008 A 
HETATM   24  C   UNL     1      25.674  46.671  49.939  1.00  0.00    -0.062 A 
HETATM   25  C   UNL     1      25.785  48.118  49.558  1.00  0.00     0.048 C 
HETATM   26  C   UNL     1      26.794  45.835  49.874  1.00  0.00     0.008 A 
HETATM   27  C   UNL     1      26.706  44.494  50.265  1.00  0.00     0.026 A 
ENDBRANCH  19  21
ENDBRANCH  16  19
ENDBRANCH  14  15
ENDBRANCH  12  14
ENDBRANCH   1  12
BRANCH   3  28
HETATM   28  C   UNL     1      27.850  45.840  54.440  1.00  0.00    -0.006 A 
HETATM   29  C   UNL     1      26.613  45.702  53.787  1.00  0.00     0.014 A 
HETATM   30  C   UNL     1      25.686  46.747  53.766  1.00  0.00     0.001 A 
HETATM   31  C   UNL     1      25.982  47.953  54.394  1.00  0.00     0.000 A 
HETATM   32  C   UNL     1      27.208  48.120  55.033  1.00  0.00     0.001 A 
HETATM   33  C   UNL     1      28.137  47.076  55.049  1.00  0.00     0.014 A 
ENDBRANCH   3  28
TORSDOF 6
ENDMDL
MODEL 2
REMARK VINA RESULT:     -10.2      2.186      5.673
REMARK  6 active torsions:
REMARK  status: ('A' for Active; 'I' for Inactive)
REMARK    1  A    between atoms: C_5  and  N_6 
REMARK    2  A    between atoms: N_6  and  N_7 
REMARK       I    between atoms: N_7  and  C_8 
REMARK    3  A    between atoms: C_8  and  C_9 
REMARK    4  A    between atoms: C_9  and  N_10 
REMARK    5  A    between atoms: N_10  and  C_11 
REMARK    6  A    between atoms: C_13  and  C_14 
ROOT
HETATM    1  C   UNL     1      23.900  44.705  50.432  1.00  0.00     0.203 A 
HETATM    2  N   UNL     1      24.363  45.803  49.836  1.00  0.00    -0.217 NA
HETATM    3  C   UNL     1      25.181  46.606  50.556  1.00  0.00     0.083 A 
HETATM    4  C   UNL     1      25.519  46.345  51.895  1.00  0.00     0.023 A 
HETATM    5  C   UNL     1      24.982  45.158  52.401  1.00  0.00     0.072 A 
HETATM    6  N   UNL     1      24.191  44.352  51.686  1.00  0.00    -0.218 NA
HETATM    7  C   UNL     1      26.310  47.168  52.744  1.00  0.00     0.023 A 
HETATM    8  C   UNL     1      26.578  46.804  54.067  1.00  0.00    -0.061 A 
HETATM    9  C   UNL     1      27.432  47.663  54.952  1.00  0.00     0.048 C 
HETATM   10  C   UNL     1      26.064  45.600  54.541  1.00  0.00     0.009 A 
HETATM   11  C   UNL     1      25.272  44.801  53.711  1.00  0.00     0.033 A 
ENDROOT
BRANCH   1  12
HETATM   12  N   UNL     1      23.008  43.865  49.779  1.00  0.00    -0.252 NA
HETATM   13  H   UNL     1      22.101  44.113  50.170  1.00  0.00     0.131 HD
BRANCH  12  14
HETATM   14  C   UNL     1      23.317  42.443  49.853  1.00  0.00     0.199 C 
BRANCH  14  15
HETATM   15  C   UNL     1      24.815  42.164  49.698  1.00  0.00     0.245 C 
HETATM   16  N   UNL     1      25.420  41.760  50.883  1.00  0.00    -0.286 N 
HETATM   17  H   UNL     1      24.887  41.379  51.658  1.00  0.00     0.184 HD
HETATM   18  O   UNL     1      25.448  42.314  48.652  1.00  0.00    -0.271 OA
BRANCH  16  19
HETATM   19  N   UNL     1      26.759  41.327  50.807  1.00  0.00    -0.203 NA
HETATM   20  H   UNL     1      27.157  41.605  49.896  1.00  0.00     0.153 HD
BRANCH  19  21
HETATM   21  C   UNL     1      27.598  41.867  51.820  1.00  0.00     0.027 A 
HETATM   22  C   UNL     1      27.977  43.211  51.701  1.00  0.00     0.026 A 
HETATM   23  C   UNL     1      28.742  43.837  52.690  1.00  0.00     0.008 A 
HETATM   24  C   UNL     1      29.137  43.132  53.830  1.00  0.00    -0.062 A 
HETATM   25  C   UNL     1      29.917  43.809  54.918  1.00  0.00     0.048 C 
HETATM   26  C   UNL     1      28.731  41.801  53.974  1.00  0.00     0.008 A 
HETATM   27  C   UNL     1      27.969  41.176  52.980  1.00  0.00     0.026 A 
ENDBRANCH  19  21
ENDBRANCH  16  19
ENDBRANCH  14  15
ENDBRANCH  12  14
ENDBRANCH   1  12
BRANCH   3  28
HETATM   28  C   UNL     1      25.665  47.777  49.801  1.00  0.00    -0.006 A 
HETATM   29  C   UNL     1      24.754  48.658  49.193  1.00  0.00     0.014 A 
HETATM   30  C   UNL     1      25.197  49.773  48.475  1.00  0.00     0.001 A 
HETATM   31  C   UNL     1      26.561  50.023  48.349  1.00  0.00     0.000 A 
HETATM   32  C   UNL     1      27.482  49.154  48.929  1.00  0.00     0.001 A 
HETATM   33  C   UNL     1      27.039  48.037  49.641  1.00  0.00     0.014 A 
ENDBRANCH   3  28
TORSDOF 6
ENDMDL
MODEL 3
REMARK VINA RESULT:      -9.6      4.058      6.768
REMARK  6 active torsions:
REMARK  status: ('A' for Active; 'I' for Inactive)
REMARK    1  A    between atoms: C_5  and  N_6 
REMARK    2  A    between atoms: N_6  and  N_7 
REMARK       I    between atoms: N_7  and  C_8 
REMARK    3  A    between atoms: C_8  and  C_9 
REMARK    4  A    between atoms: C_9  and  N_10 
REMARK    5  A    between atoms: N_10  and  C_11 
REMARK    6  A    between atoms: C_13  and  C_14 
ROOT
HETATM    1  C   UNL     1      23.892  44.619  50.299  1.00  0.00     0.203 A 
HETATM    2  N   UNL     1      24.290  45.751  49.718  1.00  0.00    -0.217 NA
HETATM    3  C   UNL     1      25.066  46.587  50.447  1.00  0.00     0.083 A 
HETATM    4  C   UNL     1      25.426  46.323  51.780  1.00  0.00     0.023 A 
HETATM    5  C   UNL     1      24.960  45.101  52.269  1.00  0.00     0.072 A 
HETATM    6  N   UNL     1      24.211  44.264  51.546  1.00  0.00    -0.218 NA
HETATM    7  C   UNL     1      26.176  47.176  52.638  1.00  0.00     0.023 A 
HETATM    8  C   UNL     1      26.472  46.806  53.953  1.00  0.00    -0.061 A 
HETATM    9  C   UNL     1      27.282  47.698  54.847  1.00  0.00     0.048 C 
HETATM   10  C   UNL     1      26.029  45.569  54.410  1.00  0.00     0.009 A 
HETATM   11  C   UNL     1      25.278  44.740  53.572  1.00  0.00     0.033 A 
ENDROOT
BRANCH   1  12
HETATM   12  N   UNL     1      23.044  43.742  49.638  1.00  0.00    -0.252 NA
HETATM   13  H   UNL     1      23.550  42.859  49.638  1.00  0.00     0.131 HD
BRANCH  12  14
HETATM   14  C   UNL     1      22.602  44.172  48.317  1.00  0.00     0.199 C 
BRANCH  14  15
HETATM   15  C   UNL     1      21.150  44.662  48.321  1.00  0.00     0.245 C 
HETATM   16  N   UNL     1      20.926  45.696  49.222  1.00  0.00    -0.286 N 
HETATM   17  H   UNL     1      21.681  46.273  49.580  1.00  0.00     0.184 HD
HETATM   18  O   UNL     1      20.249  44.177  47.635  1.00  0.00    -0.271 OA
BRANCH  16  19
HETATM   19  N   UNL     1      19.663  46.322  49.183  1.00  0.00    -0.203 NA
HETATM   20  H   UNL     1      19.131  46.068  50.031  1.00  0.00     0.153 HD
BRANCH  19  21
HETATM   21  C   UNL     1      19.724  47.741  49.127  1.00  0.00     0.027 A 
HETATM   22  C   UNL     1      20.377  48.320  48.031  1.00  0.00     0.026 A 
HETATM   23  C   UNL     1      20.419  49.709  47.865  1.00  0.00     0.008 A 
HETATM   24  C   UNL     1      19.798  50.550  48.791  1.00  0.00    -0.062 A 
HETATM   25  C   UNL     1      19.799  52.037  48.597  1.00  0.00     0.048 C 
HETATM   26  C   UNL     1      19.113  49.979  49.869  1.00  0.00     0.008 A 
HETATM   27  C   UNL     1      19.076  48.589  50.034  1.00  0.00     0.026 A 
ENDBRANCH  19  21
ENDBRANCH  16  19
ENDBRANCH  14  15
ENDBRANCH  12  14
ENDBRANCH   1  12
BRANCH   3  28
HETATM   28  C   UNL     1      25.479  47.795  49.709  1.00  0.00    -0.006 A 
HETATM   29  C   UNL     1      24.516  48.641  49.132  1.00  0.00     0.014 A 
HETATM   30  C   UNL     1      24.891  49.790  48.431  1.00  0.00     0.001 A 
HETATM   31  C   UNL     1      26.239  50.111  48.289  1.00  0.00     0.000 A 
HETATM   32  C   UNL     1      27.211  49.277  48.836  1.00  0.00     0.001 A 
HETATM   33  C   UNL     1      26.835  48.126  49.533  1.00  0.00     0.014 A 
ENDBRANCH   3  28
TORSDOF 6
ENDMDL
MODEL 4
REMARK VINA RESULT:      -9.4      3.602      5.612
REMARK  6 active torsions:
REMARK  status: ('A' for Active; 'I' for Inactive)
REMARK    1  A    between atoms: C_5  and  N_6 
REMARK    2  A    between atoms: N_6  and  N_7 
REMARK       I    between atoms: N_7  and  C_8 
REMARK    3  A    between atoms: C_8  and  C_9 
REMARK    4  A    between atoms: C_9  and  N_10 
REMARK    5  A    between atoms: N_10  and  C_11 
REMARK    6  A    between atoms: C_13  and  C_14 
ROOT
HETATM    1  C   UNL     1      26.552  46.025  53.128  1.00  0.00     0.203 A 
HETATM    2  N   UNL     1      26.827  44.856  52.551  1.00  0.00    -0.217 NA
HETATM    3  C   UNL     1      27.809  44.104  53.102  1.00  0.00     0.083 A 
HETATM    4  C   UNL     1      28.556  44.525  54.216  1.00  0.00     0.023 A 
HETATM    5  C   UNL     1      28.162  45.759  54.737  1.00  0.00     0.072 A 
HETATM    6  N   UNL     1      27.180  46.494  54.209  1.00  0.00    -0.218 NA
HETATM    7  C   UNL     1      29.646  43.833  54.814  1.00  0.00     0.023 A 
HETATM    8  C   UNL     1      30.318  44.354  55.924  1.00  0.00    -0.061 A 
HETATM    9  C   UNL     1      31.453  43.611  56.564  1.00  0.00     0.048 C 
HETATM   10  C   UNL     1      29.887  45.568  56.450  1.00  0.00     0.009 A 
HETATM   11  C   UNL     1      28.827  46.255  55.851  1.00  0.00     0.033 A 
ENDROOT
BRANCH   1  12
HETATM   12  N   UNL     1      25.602  46.878  52.585  1.00  0.00    -0.252 NA
HETATM   13  H   UNL     1      24.712  46.461  52.848  1.00  0.00     0.131 HD
BRANCH  12  14
HETATM   14  C   UNL     1      25.735  47.138  51.157  1.00  0.00     0.199 C 
BRANCH  14  15
HETATM   15  C   UNL     1      24.463  46.784  50.380  1.00  0.00     0.245 C 
HETATM   16  N   UNL     1      23.629  47.877  50.172  1.00  0.00    -0.286 N 
HETATM   17  H   UNL     1      23.969  48.833  50.228  1.00  0.00     0.184 HD
HETATM   18  O   UNL     1      24.169  45.649  50.004  1.00  0.00    -0.271 OA
BRANCH  16  19
HETATM   19  N   UNL     1      22.515  47.686  49.329  1.00  0.00    -0.203 NA
HETATM   20  H   UNL     1      21.860  47.025  49.775  1.00  0.00     0.153 HD
BRANCH  19  21
HETATM   21  C   UNL     1      21.793  48.879  49.050  1.00  0.00     0.027 A 
HETATM   22  C   UNL     1      20.519  48.749  48.481  1.00  0.00     0.026 A 
HETATM   23  C   UNL     1      19.715  49.868  48.242  1.00  0.00     0.008 A 
HETATM   24  C   UNL     1      20.167  51.147  48.578  1.00  0.00    -0.062 A 
HETATM   25  C   UNL     1      19.294  52.348  48.368  1.00  0.00     0.048 C 
HETATM   26  C   UNL     1      21.423  51.282  49.180  1.00  0.00     0.008 A 
HETATM   27  C   UNL     1      22.226  50.160  49.415  1.00  0.00     0.026 A 
ENDBRANCH  19  21
ENDBRANCH  16  19
ENDBRANCH  14  15
ENDBRANCH  12  14
ENDBRANCH   1  12
BRANCH   3  28
HETATM   28  C   UNL     1      28.019  42.817  52.412  1.00  0.00    -0.006 A 
HETATM   29  C   UNL     1      27.502  42.609  51.122  1.00  0.00     0.014 A 
HETATM   30  C   UNL     1      27.694  41.396  50.454  1.00  0.00     0.001 A 
HETATM   31  C   UNL     1      28.402  40.367  51.069  1.00  0.00     0.000 A 
HETATM   32  C   UNL     1      28.908  40.545  52.354  1.00  0.00     0.001 A 
HETATM   33  C   UNL     1      28.711  41.756  53.023  1.00  0.00     0.014 A 
ENDBRANCH   3  28
TORSDOF 6
ENDMDL
MODEL 5
REMARK VINA RESULT:      -9.1      1.384      3.999
REMARK  6 active torsions:
REMARK  status: ('A' for Active; 'I' for Inactive)
REMARK    1  A    between atoms: C_5  and  N_6 
REMARK    2  A    between atoms: N_6  and  N_7 
REMARK       I    between atoms: N_7  and  C_8 
REMARK    3  A    between atoms: C_8  and  C_9 
REMARK    4  A    between atoms: C_9  and  N_10 
REMARK    5  A    between atoms: N_10  and  C_11 
REMARK    6  A    between atoms: C_13  and  C_14 
ROOT
HETATM    1  C   UNL     1      28.823  43.329  52.838  1.00  0.00     0.203 A 
HETATM    2  N   UNL     1      29.538  43.487  53.952  1.00  0.00    -0.217 NA
HETATM    3  C   UNL     1      29.195  44.506  54.774  1.00  0.00     0.083 A 
HETATM    4  C   UNL     1      28.157  45.408  54.478  1.00  0.00     0.023 A 
HETATM    5  C   UNL     1      27.476  45.128  53.291  1.00  0.00     0.072 A 
HETATM    6  N   UNL     1      27.798  44.110  52.488  1.00  0.00    -0.218 NA
HETATM    7  C   UNL     1      27.778  46.543  55.247  1.00  0.00     0.023 A 
HETATM    8  C   UNL     1      26.726  47.373  54.849  1.00  0.00    -0.061 A 
HETATM    9  C   UNL     1      26.315  48.556  55.675  1.00  0.00     0.048 C 
HETATM   10  C   UNL     1      26.036  47.057  53.683  1.00  0.00     0.009 A 
HETATM   11  C   UNL     1      26.421  45.951  52.919  1.00  0.00     0.033 A 
ENDROOT
BRANCH   1  12
HETATM   12  N   UNL     1      29.152  42.346  51.916  1.00  0.00    -0.252 NA
HETATM   13  H   UNL     1      28.891  42.747  51.019  1.00  0.00     0.131 HD
BRANCH  12  14
HETATM   14  C   UNL     1      28.576  41.031  52.168  1.00  0.00     0.199 C 
BRANCH  14  15
HETATM   15  C   UNL     1      27.436  40.700  51.200  1.00  0.00     0.245 C 
HETATM   16  N   UNL     1      26.272  41.412  51.464  1.00  0.00    -0.286 N 
HETATM   17  H   UNL     1      26.276  42.272  52.005  1.00  0.00     0.184 HD
HETATM   18  O   UNL     1      27.508  39.863  50.299  1.00  0.00    -0.271 OA
BRANCH  16  19
HETATM   19  N   UNL     1      25.221  41.296  50.533  1.00  0.00    -0.203 NA
HETATM   20  H   UNL     1      24.439  40.776  50.963  1.00  0.00     0.153 HD
BRANCH  19  21
HETATM   21  C   UNL     1      24.706  42.545  50.087  1.00  0.00     0.027 A 
HETATM   22  C   UNL     1      24.381  42.665  48.729  1.00  0.00     0.026 A 
HETATM   23  C   UNL     1      23.804  43.836  48.225  1.00  0.00     0.008 A 
HETATM   24  C   UNL     1      23.530  44.911  49.073  1.00  0.00    -0.062 A 
HETATM   25  C   UNL     1      22.869  46.151  48.550  1.00  0.00     0.048 C 
HETATM   26  C   UNL     1      23.818  44.785  50.437  1.00  0.00     0.008 A 
HETATM   27  C   UNL     1      24.399  43.614  50.938  1.00  0.00     0.026 A 
ENDBRANCH  19  21
ENDBRANCH  16  19
ENDBRANCH  14  15
ENDBRANCH  12  14
ENDBRANCH   1  12
BRANCH   3  28
HETATM   28  C   UNL     1      30.023  44.580  55.992  1.00  0.00    -0.006 A 
HETATM   29  C   UNL     1      29.834  45.619  56.920  1.00  0.00     0.014 A 
HETATM   30  C   UNL     1      30.609  45.703  58.079  1.00  0.00     0.001 A 
HETATM   31  C   UNL     1      31.593  44.750  58.329  1.00  0.00     0.000 A 
HETATM   32  C   UNL     1      31.810  43.721  57.415  1.00  0.00     0.001 A 
HETATM   33  C   UNL     1      31.038  43.642  56.253  1.00  0.00     0.014 A 
ENDBRANCH   3  28
TORSDOF 6
ENDMDL
MODEL 6
REMARK VINA RESULT:      -9.0      4.656      9.709
REMARK  6 active torsions:
REMARK  status: ('A' for Active; 'I' for Inactive)
REMARK    1  A    between atoms: C_5  and  N_6 
REMARK    2  A    between atoms: N_6  and  N_7 
REMARK       I    between atoms: N_7  and  C_8 
REMARK    3  A    between atoms: C_8  and  C_9 
REMARK    4  A    between atoms: C_9  and  N_10 
REMARK    5  A    between atoms: N_10  and  C_11 
REMARK    6  A    between atoms: C_13  and  C_14 
ROOT
HETATM    1  C   UNL     1      23.610  47.856  49.456  1.00  0.00     0.203 A 
HETATM    2  N   UNL     1      22.720  48.843  49.557  1.00  0.00    -0.217 NA
HETATM    3  C   UNL     1      21.594  48.747  48.811  1.00  0.00     0.083 A 
HETATM    4  C   UNL     1      21.358  47.682  47.924  1.00  0.00     0.023 A 
HETATM    5  C   UNL     1      22.357  46.706  47.920  1.00  0.00     0.072 A 
HETATM    6  N   UNL     1      23.459  46.788  48.671  1.00  0.00    -0.218 NA
HETATM    7  C   UNL     1      20.241  47.538  47.054  1.00  0.00     0.023 A 
HETATM    8  C   UNL     1      20.114  46.430  46.210  1.00  0.00    -0.061 A 
HETATM    9  C   UNL     1      18.924  46.271  45.311  1.00  0.00     0.048 C 
HETATM   10  C   UNL     1      21.102  45.451  46.247  1.00  0.00     0.009 A 
HETATM   11  C   UNL     1      22.207  45.603  47.090  1.00  0.00     0.033 A 
ENDROOT
BRANCH   1  12
HETATM   12  N   UNL     1      24.815  47.914  50.143  1.00  0.00    -0.252 NA
HETATM   13  H   UNL     1      25.520  47.888  49.410  1.00  0.00     0.131 HD
BRANCH  12  14
HETATM   14  C   UNL     1      24.996  46.905  51.178  1.00  0.00     0.199 C 
BRANCH  14  15
HETATM   15  C   UNL     1      26.170  45.967  50.877  1.00  0.00     0.245 C 
HETATM   16  N   UNL     1      26.364  45.003  51.860  1.00  0.00    -0.286 N 
HETATM   17  H   UNL     1      25.631  44.743  52.513  1.00  0.00     0.184 HD
HETATM   18  O   UNL     1      26.904  46.063  49.893  1.00  0.00    -0.271 OA
BRANCH  16  19
HETATM   19  N   UNL     1      27.315  43.996  51.596  1.00  0.00    -0.203 NA
HETATM   20  H   UNL     1      27.810  44.217  50.717  1.00  0.00     0.153 HD
BRANCH  19  21
HETATM   21  C   UNL     1      28.297  43.850  52.613  1.00  0.00     0.027 A 
HETATM   22  C   UNL     1      28.080  44.518  53.826  1.00  0.00     0.026 A 
HETATM   23  C   UNL     1      28.962  44.370  54.902  1.00  0.00     0.008 A 
HETATM   24  C   UNL     1      30.079  43.538  54.790  1.00  0.00    -0.062 A 
HETATM   25  C   UNL     1      31.004  43.336  55.953  1.00  0.00     0.048 C 
HETATM   26  C   UNL     1      30.282  42.839  53.595  1.00  0.00     0.008 A 
HETATM   27  C   UNL     1      29.400  42.992  52.519  1.00  0.00     0.026 A 
ENDBRANCH  19  21
ENDBRANCH  16  19
ENDBRANCH  14  15
ENDBRANCH  12  14
ENDBRANCH   1  12
BRANCH   3  28
HETATM   28  C   UNL     1      20.659  49.869  49.013  1.00  0.00    -0.006 A 
HETATM   29  C   UNL     1      19.621  49.770  49.955  1.00  0.00     0.014 A 
HETATM   30  C   UNL     1      18.727  50.824  50.160  1.00  0.00     0.001 A 
HETATM   31  C   UNL     1      18.853  51.997  49.420  1.00  0.00     0.000 A 
HETATM   32  C   UNL     1      19.864  52.111  48.468  1.00  0.00     0.001 A 
HETATM   33  C   UNL     1      20.753  51.054  48.260  1.00  0.00     0.014 A 
ENDBRANCH   3  28
TORSDOF 6
ENDMDL
MODEL 7
REMARK VINA RESULT:      -8.9      5.227      7.718
REMARK  6 active torsions:
REMARK  status: ('A' for Active; 'I' for Inactive)
REMARK    1  A    between atoms: C_5  and  N_6 
REMARK    2  A    between atoms: N_6  and  N_7 
REMARK       I    between atoms: N_7  and  C_8 
REMARK    3  A    between atoms: C_8  and  C_9 
REMARK    4  A    between atoms: C_9  and  N_10 
REMARK    5  A    between atoms: N_10  and  C_11 
REMARK    6  A    between atoms: C_13  and  C_14 
ROOT
HETATM    1  C   UNL     1      24.591  47.101  50.970  1.00  0.00     0.203 A 
HETATM    2  N   UNL     1      24.790  45.882  50.470  1.00  0.00    -0.217 NA
HETATM    3  C   UNL     1      25.628  45.060  51.144  1.00  0.00     0.083 A 
HETATM    4  C   UNL     1      26.310  45.456  52.308  1.00  0.00     0.023 A 
HETATM    5  C   UNL     1      26.006  46.749  52.738  1.00  0.00     0.072 A 
HETATM    6  N   UNL     1      25.164  47.556  52.087  1.00  0.00    -0.218 NA
HETATM    7  C   UNL     1      27.258  44.684  53.037  1.00  0.00     0.023 A 
HETATM    8  C   UNL     1      27.877  45.187  54.185  1.00  0.00    -0.061 A 
HETATM    9  C   UNL     1      28.859  44.362  54.963  1.00  0.00     0.048 C 
HETATM   10  C   UNL     1      27.534  46.465  54.618  1.00  0.00     0.009 A 
HETATM   11  C   UNL     1      26.616  47.228  53.891  1.00  0.00     0.033 A 
ENDROOT
BRANCH   1  12
HETATM   12  N   UNL     1      23.795  48.021  50.302  1.00  0.00    -0.252 NA
HETATM   13  H   UNL     1      22.853  47.648  50.394  1.00  0.00     0.131 HD
BRANCH  12  14
HETATM   14  C   UNL     1      24.187  48.311  48.929  1.00  0.00     0.199 C 
BRANCH  14  15
HETATM   15  C   UNL     1      23.487  49.556  48.374  1.00  0.00     0.245 C 
HETATM   16  N   UNL     1      22.514  50.061  49.229  1.00  0.00    -0.286 N 
HETATM   17  H   UNL     1      22.501  49.842  50.221  1.00  0.00     0.184 HD
HETATM   18  O   UNL     1      23.717  50.051  47.270  1.00  0.00    -0.271 OA
BRANCH  16  19
HETATM   19  N   UNL     1      21.928  51.295  48.881  1.00  0.00    -0.203 NA
HETATM   20  H   UNL     1      22.070  51.467  47.873  1.00  0.00     0.153 HD
BRANCH  19  21
HETATM   21  C   UNL     1      20.529  51.359  49.130  1.00  0.00     0.027 A 
HETATM   22  C   UNL     1      19.773  52.252  48.360  1.00  0.00     0.026 A 
HETATM   23  C   UNL     1      18.382  52.325  48.494  1.00  0.00     0.008 A 
HETATM   24  C   UNL     1      17.715  51.494  49.398  1.00  0.00    -0.062 A 
HETATM   25  C   UNL     1      16.221  51.533  49.515  1.00  0.00     0.048 C 
HETATM   26  C   UNL     1      18.459  50.574  50.144  1.00  0.00     0.008 A 
HETATM   27  C   UNL     1      19.851  50.506  50.011  1.00  0.00     0.026 A 
ENDBRANCH  19  21
ENDBRANCH  16  19
ENDBRANCH  14  15
ENDBRANCH  12  14
ENDBRANCH   1  12
BRANCH   3  28
HETATM   28  C   UNL     1      25.760  43.726  50.530  1.00  0.00    -0.006 A 
HETATM   29  C   UNL     1      26.860  43.426  49.707  1.00  0.00     0.014 A 
HETATM   30  C   UNL     1      27.000  42.166  49.119  1.00  0.00     0.001 A 
HETATM   31  C   UNL     1      26.037  41.184  49.338  1.00  0.00     0.000 A 
HETATM   32  C   UNL     1      24.930  41.464  50.135  1.00  0.00     0.001 A 
HETATM   33  C   UNL     1      24.788  42.726  50.719  1.00  0.00     0.014 A 
ENDBRANCH   3  28
TORSDOF 6
ENDMDL
MODEL 8
REMARK VINA RESULT:      -8.9      4.240      9.487
REMARK  6 active torsions:
REMARK  status: ('A' for Active; 'I' for Inactive)
REMARK    1  A    between atoms: C_5  and  N_6 
REMARK    2  A    between atoms: N_6  and  N_7 
REMARK       I    between atoms: N_7  and  C_8 
REMARK    3  A    between atoms: C_8  and  C_9 
REMARK    4  A    between atoms: C_9  and  N_10 
REMARK    5  A    between atoms: N_10  and  C_11 
REMARK    6  A    between atoms: C_13  and  C_14 
ROOT
HETATM    1  C   UNL     1      24.294  47.597  50.016  1.00  0.00     0.203 A 
HETATM    2  N   UNL     1      23.397  48.579  49.919  1.00  0.00    -0.217 NA
HETATM    3  C   UNL     1      22.297  48.346  49.164  1.00  0.00     0.083 A 
HETATM    4  C   UNL     1      22.094  47.144  48.465  1.00  0.00     0.023 A 
HETATM    5  C   UNL     1      23.096  46.191  48.659  1.00  0.00     0.072 A 
HETATM    6  N   UNL     1      24.173  46.409  49.419  1.00  0.00    -0.218 NA
HETATM    7  C   UNL     1      21.007  46.845  47.597  1.00  0.00     0.023 A 
HETATM    8  C   UNL     1      20.912  45.609  46.950  1.00  0.00    -0.061 A 
HETATM    9  C   UNL     1      19.753  45.288  46.053  1.00  0.00     0.048 C 
HETATM   10  C   UNL     1      21.902  44.659  47.184  1.00  0.00     0.009 A 
HETATM   11  C   UNL     1      22.978  44.962  48.024  1.00  0.00     0.033 A 
ENDROOT
BRANCH   1  12
HETATM   12  N   UNL     1      25.475  47.782  50.721  1.00  0.00    -0.252 NA
HETATM   13  H   UNL     1      26.142  48.084  50.015  1.00  0.00     0.131 HD
BRANCH  12  14
HETATM   14  C   UNL     1      25.921  46.640  51.508  1.00  0.00     0.199 C 
BRANCH  14  15
HETATM   15  C   UNL     1      26.077  46.982  52.993  1.00  0.00     0.245 C 
HETATM   16  N   UNL     1      26.958  46.136  53.658  1.00  0.00    -0.286 N 
HETATM   17  H   UNL     1      27.655  45.586  53.164  1.00  0.00     0.184 HD
HETATM   18  O   UNL     1      25.465  47.882  53.569  1.00  0.00    -0.271 OA
BRANCH  16  19
HETATM   19  N   UNL     1      27.291  46.469  54.987  1.00  0.00    -0.203 NA
HETATM   20  H   UNL     1      26.476  46.294  55.596  1.00  0.00     0.153 HD
BRANCH  19  21
HETATM   21  C   UNL     1      28.382  45.723  55.512  1.00  0.00     0.027 A 
HETATM   22  C   UNL     1      28.841  44.630  54.764  1.00  0.00     0.026 A 
HETATM   23  C   UNL     1      29.953  43.888  55.175  1.00  0.00     0.008 A 
HETATM   24  C   UNL     1      30.639  44.232  56.342  1.00  0.00    -0.062 A 
HETATM   25  C   UNL     1      31.860  43.471  56.765  1.00  0.00     0.048 C 
HETATM   26  C   UNL     1      30.209  45.343  57.075  1.00  0.00     0.008 A 
HETATM   27  C   UNL     1      29.094  46.081  56.663  1.00  0.00     0.026 A 
ENDBRANCH  19  21
ENDBRANCH  16  19
ENDBRANCH  14  15
ENDBRANCH  12  14
ENDBRANCH   1  12
BRANCH   3  28
HETATM   28  C   UNL     1      21.352  49.478  49.143  1.00  0.00    -0.006 A 
HETATM   29  C   UNL     1      21.628  50.622  48.373  1.00  0.00     0.014 A 
HETATM   30  C   UNL     1      20.743  51.702  48.341  1.00  0.00     0.001 A 
HETATM   31  C   UNL     1      19.566  51.660  49.084  1.00  0.00     0.000 A 
HETATM   32  C   UNL     1      19.280  50.545  49.868  1.00  0.00     0.001 A 
HETATM   33  C   UNL     1      20.169  49.468  49.904  1.00  0.00     0.014 A 
ENDBRANCH   3  28
TORSDOF 6
ENDMDL
MODEL 9
REMARK VINA RESULT:      -8.9      2.475      6.840
REMARK  6 active torsions:
REMARK  status: ('A' for Active; 'I' for Inactive)
REMARK    1  A    between atoms: C_5  and  N_6 
REMARK    2  A    between atoms: N_6  and  N_7 
REMARK       I    between atoms: N_7  and  C_8 
REMARK    3  A    between atoms: C_8  and  C_9 
REMARK    4  A    between atoms: C_9  and  N_10 
REMARK    5  A    between atoms: N_10  and  C_11 
REMARK    6  A    between atoms: C_13  and  C_14 
ROOT
HETATM    1  C   UNL     1      25.047  43.219  50.540  1.00  0.00     0.203 A 
HETATM    2  N   UNL     1      26.038  43.282  51.429  1.00  0.00    -0.217 NA
HETATM    3  C   UNL     1      26.967  42.298  51.398  1.00  0.00     0.083 A 
HETATM    4  C   UNL     1      26.901  41.215  50.503  1.00  0.00     0.023 A 
HETATM    5  C   UNL     1      25.824  41.272  49.615  1.00  0.00     0.072 A 
HETATM    6  N   UNL     1      24.917  42.252  49.629  1.00  0.00    -0.218 NA
HETATM    7  C   UNL     1      27.791  40.107  50.449  1.00  0.00     0.023 A 
HETATM    8  C   UNL     1      27.622  39.083  49.512  1.00  0.00    -0.061 A 
HETATM    9  C   UNL     1      28.575  37.927  49.443  1.00  0.00     0.048 C 
HETATM   10  C   UNL     1      26.564  39.175  48.612  1.00  0.00     0.009 A 
HETATM   11  C   UNL     1      25.680  40.256  48.678  1.00  0.00     0.033 A 
ENDROOT
BRANCH   1  12
HETATM   12  N   UNL     1      24.024  44.157  50.551  1.00  0.00    -0.252 NA
HETATM   13  H   UNL     1      23.182  43.609  50.385  1.00  0.00     0.131 HD
BRANCH  12  14
HETATM   14  C   UNL     1      24.192  45.278  49.635  1.00  0.00     0.199 C 
BRANCH  14  15
HETATM   15  C   UNL     1      24.534  46.580  50.366  1.00  0.00     0.245 C 
HETATM   16  N   UNL     1      24.835  46.388  51.710  1.00  0.00    -0.286 N 
HETATM   17  H   UNL     1      25.117  45.484  52.076  1.00  0.00     0.184 HD
HETATM   18  O   UNL     1      24.511  47.697  49.848  1.00  0.00    -0.271 OA
BRANCH  16  19
HETATM   19  N   UNL     1      25.318  47.501  52.427  1.00  0.00    -0.203 NA
HETATM   20  H   UNL     1      24.519  48.042  52.795  1.00  0.00     0.153 HD
BRANCH  19  21
HETATM   21  C   UNL     1      26.145  47.160  53.532  1.00  0.00     0.027 A 
HETATM   22  C   UNL     1      26.885  45.973  53.447  1.00  0.00     0.026 A 
HETATM   23  C   UNL     1      27.776  45.601  54.459  1.00  0.00     0.008 A 
HETATM   24  C   UNL     1      27.953  46.418  55.579  1.00  0.00    -0.062 A 
HETATM   25  C   UNL     1      28.940  46.051  56.647  1.00  0.00     0.048 C 
HETATM   26  C   UNL     1      27.246  47.622  55.655  1.00  0.00     0.008 A 
HETATM   27  C   UNL     1      26.352  47.990  54.641  1.00  0.00     0.026 A 
ENDBRANCH  19  21
ENDBRANCH  16  19
ENDBRANCH  14  15
ENDBRANCH  12  14
ENDBRANCH   1  12
BRANCH   3  28
HETATM   28  C   UNL     1      28.038  42.471  52.397  1.00  0.00    -0.006 A 
HETATM   29  C   UNL     1      29.255  43.077  52.039  1.00  0.00     0.014 A 
HETATM   30  C   UNL     1      30.279  43.249  52.975  1.00  0.00     0.001 A 
HETATM   31  C   UNL     1      30.105  42.812  54.285  1.00  0.00     0.000 A 
HETATM   32  C   UNL     1      28.914  42.193  54.658  1.00  0.00     0.001 A 
HETATM   33  C   UNL     1      27.894  42.016  53.721  1.00  0.00     0.014 A 
ENDBRANCH   3  28
TORSDOF 6
ENDMDL
MODEL 10
REMARK VINA RESULT:      -8.9      3.872      6.738
REMARK  6 active torsions:
REMARK  status: ('A' for Active; 'I' for Inactive)
REMARK    1  A    between atoms: C_5  and  N_6 
REMARK    2  A    between atoms: N_6  and  N_7 
REMARK       I    between atoms: N_7  and  C_8 
REMARK    3  A    between atoms: C_8  and  C_9 
REMARK    4  A    between atoms: C_9  and  N_10 
REMARK    5  A    between atoms: N_10  and  C_11 
REMARK    6  A    between atoms: C_13  and  C_14 
ROOT
HETATM    1  C   UNL     1      26.545  44.109  49.791  1.00  0.00     0.203 A 
HETATM    2  N   UNL     1      27.181  44.233  50.956  1.00  0.00    -0.217 NA
HETATM    3  C   UNL     1      27.886  43.166  51.399  1.00  0.00     0.083 A 
HETATM    4  C   UNL     1      27.937  41.945  50.704  1.00  0.00     0.023 A 
HETATM    5  C   UNL     1      27.243  41.946  49.492  1.00  0.00     0.072 A 
HETATM    6  N   UNL     1      26.563  43.004  49.042  1.00  0.00    -0.218 NA
HETATM    7  C   UNL     1      28.592  40.756  51.130  1.00  0.00     0.023 A 
HETATM    8  C   UNL     1      28.572  39.595  50.351  1.00  0.00    -0.061 A 
HETATM    9  C   UNL     1      29.283  38.350  50.792  1.00  0.00     0.048 C 
HETATM   10  C   UNL     1      27.905  39.627  49.130  1.00  0.00     0.009 A 
HETATM   11  C   UNL     1      27.247  40.791  48.721  1.00  0.00     0.033 A 
ENDROOT
BRANCH   1  12
HETATM   12  N   UNL     1      25.752  45.137  49.302  1.00  0.00    -0.252 NA
HETATM   13  H   UNL     1      26.418  45.850  49.014  1.00  0.00     0.131 HD
BRANCH  12  14
HETATM   14  C   UNL     1      24.722  45.622  50.212  1.00  0.00     0.199 C 
BRANCH  14  15
HETATM   15  C   UNL     1      24.631  47.152  50.226  1.00  0.00     0.245 C 
HETATM   16  N   UNL     1      23.391  47.628  49.817  1.00  0.00    -0.286 N 
HETATM   17  H   UNL     1      22.559  47.047  49.831  1.00  0.00     0.184 HD
HETATM   18  O   UNL     1      25.561  47.902  50.526  1.00  0.00    -0.271 OA
BRANCH  16  19
HETATM   19  N   UNL     1      23.158  49.012  49.950  1.00  0.00    -0.203 NA
HETATM   20  H   UNL     1      23.973  49.532  49.588  1.00  0.00     0.153 HD
BRANCH  19  21
HETATM   21  C   UNL     1      22.012  49.473  49.244  1.00  0.00     0.027 A 
HETATM   22  C   UNL     1      21.780  50.855  49.215  1.00  0.00     0.026 A 
HETATM   23  C   UNL     1      20.716  51.394  48.484  1.00  0.00     0.008 A 
HETATM   24  C   UNL     1      19.865  50.560  47.756  1.00  0.00    -0.062 A 
HETATM   25  C   UNL     1      18.750  51.134  46.932  1.00  0.00     0.048 C 
HETATM   26  C   UNL     1      20.111  49.183  47.750  1.00  0.00     0.008 A 
HETATM   27  C   UNL     1      21.174  48.646  48.486  1.00  0.00     0.026 A 
ENDBRANCH  19  21
ENDBRANCH  16  19
ENDBRANCH  14  15
ENDBRANCH  12  14
ENDBRANCH   1  12
BRANCH   3  28
HETATM   28  C   UNL     1      28.577  43.410  52.679  1.00  0.00    -0.006 A 
HETATM   29  C   UNL     1      28.000  44.245  53.651  1.00  0.00     0.014 A 
HETATM   30  C   UNL     1      28.642  44.486  54.869  1.00  0.00     0.001 A 
HETATM   31  C   UNL     1      29.877  43.900  55.134  1.00  0.00     0.000 A 
HETATM   32  C   UNL     1      30.476  43.084  54.178  1.00  0.00     0.001 A 
HETATM   33  C   UNL     1      29.836  42.848  52.958  1.00  0.00     0.014 A 
ENDBRANCH   3  28
TORSDOF 6
ENDMDL
