MODEL 1
REMARK VINA RESULT:     -10.2      0.000      0.000
REMARK  7 active torsions:
REMARK  status: ('A' for Active; 'I' for Inactive)
REMARK    1  A    between atoms: C_6  and  C_7 
REMARK       I    between atoms: C_7  and  N_8 
REMARK    2  A    between atoms: N_8  and  C_9 
REMARK    3  A    between atoms: C_9  and  C_10 
REMARK       I    between atoms: C_10  and  N_11 
REMARK    4  A    between atoms: N_11  and  N_12 
REMARK       I    between atoms: N_12  and  C_13 
REMARK    5  A    between atoms: C_13  and  C_14 
REMARK    6  A    between atoms: C_14  and  N_15 
REMARK    7  A    between atoms: N_15  and  C_16 
ROOT
HETATM    1  C   UNL     1      25.513  44.389  51.227  1.00  0.00     0.253 C 
HETATM    2  N   UNL     1      25.910  45.197  50.184  1.00  0.00    -0.266 N 
HETATM    3  O   UNL     1      24.417  44.505  51.778  1.00  0.00    -0.270 OA
HETATM    4  H   UNL     1      26.817  45.122  49.725  1.00  0.00     0.190 HD
ENDROOT
BRANCH   2   5
HETATM    5  N   UNL     1      24.966  46.060  49.618  1.00  0.00    -0.266 N 
HETATM    6  C   UNL     1      25.064  47.407  49.919  1.00  0.00     0.258 C 
HETATM    7  O   UNL     1      25.790  47.839  50.818  1.00  0.00    -0.269 OA
HETATM    8  H   UNL     1      24.551  45.737  48.744  1.00  0.00     0.190 HD
BRANCH   6   9
HETATM    9  C   UNL     1      24.181  48.317  49.046  1.00  0.00     0.173 C 
HETATM   10  C   UNL     1      24.978  49.536  48.592  1.00  0.00     0.042 C 
BRANCH   9  11
HETATM   11  N   UNL     1      23.026  48.767  49.824  1.00  0.00    -0.356 N 
HETATM   12  H   UNL     1      22.826  48.192  50.642  1.00  0.00     0.162 HD
BRANCH  11  13
HETATM   13  C   UNL     1      21.994  49.374  49.204  1.00  0.00     0.168 A 
HETATM   14  S   UNL     1      21.295  48.663  47.803  1.00  0.00    -0.050 SA
HETATM   15  C   UNL     1      20.174  49.962  47.692  1.00  0.00     0.037 A 
HETATM   16  C   UNL     1      20.419  50.856  48.734  1.00  0.00     0.076 A 
HETATM   17  C   UNL     1      19.155  50.180  46.751  1.00  0.00     0.021 A 
HETATM   18  N   UNL     1      21.449  50.503  49.589  1.00  0.00    -0.223 NA
HETATM   19  C   UNL     1      19.624  52.015  48.834  1.00  0.00     0.033 A 
HETATM   20  C   UNL     1      18.609  52.247  47.899  1.00  0.00     0.002 A 
HETATM   21  C   UNL     1      18.378  51.336  46.873  1.00  0.00     0.002 A 
ENDBRANCH  11  13
ENDBRANCH   9  11
ENDBRANCH   6   9
ENDBRANCH   2   5
BRANCH   1  22
HETATM   22  C   UNL     1      26.570  43.396  51.698  1.00  0.00     0.227 C 
BRANCH  22  23
HETATM   23  N   UNL     1      27.145  43.857  52.946  1.00  0.00    -0.348 N 
HETATM   24  C   UNL     1      28.474  43.611  53.217  1.00  0.00     0.252 C 
HETATM   25  O   UNL     1      29.191  42.953  52.472  1.00  0.00    -0.268 OA
HETATM   26  H   UNL     1      26.699  44.649  53.391  1.00  0.00     0.163 HD
BRANCH  24  27
HETATM   27  C   UNL     1      29.025  44.236  54.452  1.00  0.00     0.032 A 
HETATM   28  C   UNL     1      30.102  43.613  55.093  1.00  0.00     0.024 A 
HETATM   29  C   UNL     1      30.659  44.158  56.263  1.00  0.00    -0.055 A 
HETATM   30  C   UNL     1      30.097  45.328  56.813  1.00  0.00    -0.056 A 
HETATM   31  C   UNL     1      31.814  43.453  56.920  1.00  0.00     0.049 C 
HETATM   32  C   UNL     1      30.646  45.951  58.068  1.00  0.00     0.049 C 
HETATM   33  C   UNL     1      29.014  45.943  56.163  1.00  0.00     0.008 A 
HETATM   34  C   UNL     1      28.477  45.402  54.994  1.00  0.00     0.017 A 
ENDBRANCH  24  27
ENDBRANCH  22  23
ENDBRANCH   1  22
TORSDOF 7
ENDMDL
MODEL 2
REMARK VINA RESULT:     -10.0      1.405      2.087
REMARK  7 active torsions:
REMARK  status: ('A' for Active; 'I' for Inactive)
REMARK    1  A    between atoms: C_6  and  C_7 
REMARK       I    between atoms: C_7  and  N_8 
REMARK    2  A    between atoms: N_8  and  C_9 
REMARK    3  A    between atoms: C_9  and  C_10 
REMARK       I    between atoms: C_10  and  N_11 
REMARK    4  A    between atoms: N_11  and  N_12 
REMARK       I    between atoms: N_12  and  C_13 
REMARK    5  A    between atoms: C_13  and  C_14 
REMARK    6  A    between atoms: C_14  and  N_15 
REMARK    7  A    between atoms: N_15  and  C_16 
ROOT
HETATM    1  C   UNL     1      24.497  44.037  50.066  1.00  0.00     0.253 C 
HETATM    2  N   UNL     1      23.661  44.998  50.594  1.00  0.00    -0.266 N 
HETATM    3  O   UNL     1      24.957  44.112  48.926  1.00  0.00    -0.270 OA
HETATM    4  H   UNL     1      23.262  44.947  51.530  1.00  0.00     0.190 HD
ENDROOT
BRANCH   2   5
HETATM    5  N   UNL     1      23.474  46.183  49.873  1.00  0.00    -0.266 N 
HETATM    6  C   UNL     1      24.225  47.284  50.242  1.00  0.00     0.258 C 
HETATM    7  O   UNL     1      24.871  47.332  51.292  1.00  0.00    -0.269 OA
HETATM    8  H   UNL     1      23.136  46.061  48.918  1.00  0.00     0.190 HD
BRANCH   6   9
HETATM    9  C   UNL     1      24.176  48.450  49.237  1.00  0.00     0.173 C 
HETATM   10  C   UNL     1      25.585  48.972  48.976  1.00  0.00     0.042 C 
BRANCH   9  11
HETATM   11  N   UNL     1      23.362  49.534  49.788  1.00  0.00    -0.356 N 
HETATM   12  H   UNL     1      23.373  49.587  50.806  1.00  0.00     0.162 HD
BRANCH  11  13
HETATM   13  C   UNL     1      22.246  49.930  49.142  1.00  0.00     0.168 A 
HETATM   14  S   UNL     1      21.637  49.002  47.829  1.00  0.00    -0.050 SA
HETATM   15  C   UNL     1      20.342  50.116  47.630  1.00  0.00     0.037 A 
HETATM   16  C   UNL     1      20.471  51.128  48.582  1.00  0.00     0.076 A 
HETATM   17  C   UNL     1      19.290  50.100  46.700  1.00  0.00     0.021 A 
HETATM   18  N   UNL     1      21.551  51.002  49.438  1.00  0.00    -0.223 NA
HETATM   19  C   UNL     1      19.521  52.168  48.597  1.00  0.00     0.033 A 
HETATM   20  C   UNL     1      18.472  52.168  47.672  1.00  0.00     0.002 A 
HETATM   21  C   UNL     1      18.359  51.143  46.738  1.00  0.00     0.002 A 
ENDBRANCH  11  13
ENDBRANCH   9  11
ENDBRANCH   6   9
ENDBRANCH   2   5
BRANCH   1  22
HETATM   22  C   UNL     1      24.737  42.838  50.976  1.00  0.00     0.227 C 
BRANCH  22  23
HETATM   23  N   UNL     1      25.983  43.018  51.694  1.00  0.00    -0.348 N 
HETATM   24  C   UNL     1      25.981  43.654  52.918  1.00  0.00     0.252 C 
HETATM   25  O   UNL     1      24.969  44.142  53.408  1.00  0.00    -0.268 OA
HETATM   26  H   UNL     1      26.729  42.364  51.490  1.00  0.00     0.163 HD
BRANCH  24  27
HETATM   27  C   UNL     1      27.274  43.677  53.655  1.00  0.00     0.032 A 
HETATM   28  C   UNL     1      27.619  44.833  54.365  1.00  0.00     0.024 A 
HETATM   29  C   UNL     1      28.828  44.910  55.077  1.00  0.00    -0.055 A 
HETATM   30  C   UNL     1      29.719  43.817  55.041  1.00  0.00    -0.056 A 
HETATM   31  C   UNL     1      29.159  46.173  55.823  1.00  0.00     0.049 C 
HETATM   32  C   UNL     1      31.031  43.847  55.776  1.00  0.00     0.049 C 
HETATM   33  C   UNL     1      29.365  42.663  54.323  1.00  0.00     0.008 A 
HETATM   34  C   UNL     1      28.154  42.592  53.631  1.00  0.00     0.017 A 
ENDBRANCH  24  27
ENDBRANCH  22  23
ENDBRANCH   1  22
TORSDOF 7
ENDMDL
MODEL 3
REMARK VINA RESULT:     -10.0      2.604     11.589
REMARK  7 active torsions:
REMARK  status: ('A' for Active; 'I' for Inactive)
REMARK    1  A    between atoms: C_6  and  C_7 
REMARK       I    between atoms: C_7  and  N_8 
REMARK    2  A    between atoms: N_8  and  C_9 
REMARK    3  A    between atoms: C_9  and  C_10 
REMARK       I    between atoms: C_10  and  N_11 
REMARK    4  A    between atoms: N_11  and  N_12 
REMARK       I    between atoms: N_12  and  C_13 
REMARK    5  A    between atoms: C_13  and  C_14 
REMARK    6  A    between atoms: C_14  and  N_15 
REMARK    7  A    between atoms: N_15  and  C_16 
ROOT
HETATM    1  C   UNL     1      24.997  47.512  50.124  1.00  0.00     0.253 C 
HETATM    2  N   UNL     1      24.465  46.429  50.790  1.00  0.00    -0.266 N 
HETATM    3  O   UNL     1      25.934  48.174  50.576  1.00  0.00    -0.270 OA
HETATM    4  H   UNL     1      23.683  45.878  50.437  1.00  0.00     0.190 HD
ENDROOT
BRANCH   2   5
HETATM    5  N   UNL     1      25.126  45.961  51.931  1.00  0.00    -0.266 N 
HETATM    6  C   UNL     1      25.046  44.608  52.210  1.00  0.00     0.258 C 
HETATM    7  O   UNL     1      24.254  43.854  51.640  1.00  0.00    -0.269 OA
HETATM    8  H   UNL     1      25.922  46.523  52.233  1.00  0.00     0.190 HD
BRANCH   6   9
HETATM    9  C   UNL     1      26.020  44.129  53.302  1.00  0.00     0.173 C 
HETATM   10  C   UNL     1      25.321  44.129  54.658  1.00  0.00     0.042 C 
BRANCH   9  11
HETATM   11  N   UNL     1      27.170  45.031  53.360  1.00  0.00    -0.356 N 
HETATM   12  H   UNL     1      27.428  45.435  52.460  1.00  0.00     0.162 HD
BRANCH  11  13
HETATM   13  C   UNL     1      28.147  44.816  54.265  1.00  0.00     0.168 A 
HETATM   14  S   UNL     1      29.189  43.459  54.098  1.00  0.00    -0.050 SA
HETATM   15  C   UNL     1      30.032  43.919  55.525  1.00  0.00     0.037 A 
HETATM   16  C   UNL     1      29.450  45.080  56.034  1.00  0.00     0.076 A 
HETATM   17  C   UNL     1      31.125  43.300  56.151  1.00  0.00     0.021 A 
HETATM   18  N   UNL     1      28.387  45.581  55.302  1.00  0.00    -0.223 NA
HETATM   19  C   UNL     1      29.972  45.636  57.219  1.00  0.00     0.033 A 
HETATM   20  C   UNL     1      31.057  45.025  57.857  1.00  0.00     0.002 A 
HETATM   21  C   UNL     1      31.627  43.873  57.324  1.00  0.00     0.002 A 
ENDBRANCH  11  13
ENDBRANCH   9  11
ENDBRANCH   6   9
ENDBRANCH   2   5
BRANCH   1  22
HETATM   22  C   UNL     1      24.282  47.873  48.828  1.00  0.00     0.227 C 
BRANCH  22  23
HETATM   23  N   UNL     1      23.110  48.671  49.128  1.00  0.00    -0.348 N 
HETATM   24  C   UNL     1      22.756  49.708  48.291  1.00  0.00     0.252 C 
HETATM   25  O   UNL     1      23.433  50.037  47.323  1.00  0.00    -0.268 OA
HETATM   26  H   UNL     1      22.388  48.233  49.687  1.00  0.00     0.163 HD
BRANCH  24  27
HETATM   27  C   UNL     1      21.467  50.390  48.588  1.00  0.00     0.032 A 
HETATM   28  C   UNL     1      20.531  50.532  47.556  1.00  0.00     0.024 A 
HETATM   29  C   UNL     1      19.299  51.169  47.781  1.00  0.00    -0.055 A 
HETATM   30  C   UNL     1      19.021  51.702  49.056  1.00  0.00    -0.056 A 
HETATM   31  C   UNL     1      18.326  51.303  46.641  1.00  0.00     0.049 C 
HETATM   32  C   UNL     1      17.723  52.402  49.352  1.00  0.00     0.049 C 
HETATM   33  C   UNL     1      19.968  51.556  50.084  1.00  0.00     0.008 A 
HETATM   34  C   UNL     1      21.183  50.909  49.854  1.00  0.00     0.017 A 
ENDBRANCH  24  27
ENDBRANCH  22  23
ENDBRANCH   1  22
TORSDOF 7
ENDMDL
MODEL 4
REMARK VINA RESULT:      -9.8      2.477     11.659
REMARK  7 active torsions:
REMARK  status: ('A' for Active; 'I' for Inactive)
REMARK    1  A    between atoms: C_6  and  C_7 
REMARK       I    between atoms: C_7  and  N_8 
REMARK    2  A    between atoms: N_8  and  C_9 
REMARK    3  A    between atoms: C_9  and  C_10 
REMARK       I    between atoms: C_10  and  N_11 
REMARK    4  A    between atoms: N_11  and  N_12 
REMARK       I    between atoms: N_12  and  C_13 
REMARK    5  A    between atoms: C_13  and  C_14 
REMARK    6  A    between atoms: C_14  and  N_15 
REMARK    7  A    between atoms: N_15  and  C_16 
ROOT
HETATM    1  C   UNL     1      24.421  48.561  49.062  1.00  0.00     0.253 C 
HETATM    2  N   UNL     1      25.663  48.277  49.590  1.00  0.00    -0.266 N 
HETATM    3  O   UNL     1      23.576  47.691  48.847  1.00  0.00    -0.270 OA
HETATM    4  H   UNL     1      26.377  48.983  49.762  1.00  0.00     0.190 HD
ENDROOT
BRANCH   2   5
HETATM    5  N   UNL     1      25.902  46.982  50.061  1.00  0.00    -0.266 N 
HETATM    6  C   UNL     1      25.689  46.739  51.406  1.00  0.00     0.258 C 
HETATM    7  O   UNL     1      25.518  47.641  52.230  1.00  0.00    -0.269 OA
HETATM    8  H   UNL     1      25.816  46.243  49.363  1.00  0.00     0.190 HD
BRANCH   6   9
HETATM    9  C   UNL     1      25.698  45.247  51.789  1.00  0.00     0.173 C 
HETATM   10  C   UNL     1      24.449  44.563  51.243  1.00  0.00     0.042 C 
BRANCH   9  11
HETATM   11  N   UNL     1      25.713  45.118  53.246  1.00  0.00    -0.356 N 
HETATM   12  H   UNL     1      24.983  45.651  53.718  1.00  0.00     0.162 HD
BRANCH  11  13
HETATM   13  C   UNL     1      26.882  44.928  53.891  1.00  0.00     0.168 A 
HETATM   14  S   UNL     1      27.531  46.175  54.880  1.00  0.00    -0.050 SA
HETATM   15  C   UNL     1      28.880  45.181  55.264  1.00  0.00     0.037 A 
HETATM   16  C   UNL     1      28.743  43.962  54.601  1.00  0.00     0.076 A 
HETATM   17  C   UNL     1      29.983  45.457  56.089  1.00  0.00     0.021 A 
HETATM   18  N   UNL     1      27.598  43.831  53.833  1.00  0.00    -0.223 NA
HETATM   19  C   UNL     1      29.749  42.987  54.757  1.00  0.00     0.033 A 
HETATM   20  C   UNL     1      30.855  43.253  55.571  1.00  0.00     0.002 A 
HETATM   21  C   UNL     1      30.966  44.473  56.231  1.00  0.00     0.002 A 
ENDBRANCH  11  13
ENDBRANCH   9  11
ENDBRANCH   6   9
ENDBRANCH   2   5
BRANCH   1  22
HETATM   22  C   UNL     1      24.211  50.024  48.689  1.00  0.00     0.227 C 
BRANCH  22  23
HETATM   23  N   UNL     1      22.844  50.218  48.246  1.00  0.00    -0.348 N 
HETATM   24  C   UNL     1      21.905  50.718  49.124  1.00  0.00     0.252 C 
HETATM   25  O   UNL     1      22.157  50.949  50.301  1.00  0.00    -0.268 OA
HETATM   26  H   UNL     1      22.699  50.355  47.253  1.00  0.00     0.163 HD
BRANCH  24  27
HETATM   27  C   UNL     1      20.562  51.019  48.557  1.00  0.00     0.032 A 
HETATM   28  C   UNL     1      19.651  51.738  49.340  1.00  0.00     0.024 A 
HETATM   29  C   UNL     1      18.369  52.047  48.856  1.00  0.00    -0.055 A 
HETATM   30  C   UNL     1      17.988  51.593  47.576  1.00  0.00    -0.056 A 
HETATM   31  C   UNL     1      17.422  52.819  49.734  1.00  0.00     0.049 C 
HETATM   32  C   UNL     1      16.626  51.887  47.010  1.00  0.00     0.049 C 
HETATM   33  C   UNL     1      18.908  50.870  46.800  1.00  0.00     0.008 A 
HETATM   34  C   UNL     1      20.185  50.580  47.285  1.00  0.00     0.017 A 
ENDBRANCH  24  27
ENDBRANCH  22  23
ENDBRANCH   1  22
TORSDOF 7
ENDMDL
MODEL 5
REMARK VINA RESULT:      -9.8      1.737      2.077
REMARK  7 active torsions:
REMARK  status: ('A' for Active; 'I' for Inactive)
REMARK    1  A    between atoms: C_6  and  C_7 
REMARK       I    between atoms: C_7  and  N_8 
REMARK    2  A    between atoms: N_8  and  C_9 
REMARK    3  A    between atoms: C_9  and  C_10 
REMARK       I    between atoms: C_10  and  N_11 
REMARK    4  A    between atoms: N_11  and  N_12 
REMARK       I    between atoms: N_12  and  C_13 
REMARK    5  A    between atoms: C_13  and  C_14 
REMARK    6  A    between atoms: C_14  and  N_15 
REMARK    7  A    between atoms: N_15  and  C_16 
ROOT
HETATM    1  C   UNL     1      25.032  46.505  51.571  1.00  0.00     0.253 C 
HETATM    2  N   UNL     1      24.276  46.517  50.418  1.00  0.00    -0.266 N 
HETATM    3  O   UNL     1      25.563  47.519  52.027  1.00  0.00    -0.270 OA
HETATM    4  H   UNL     1      23.839  45.685  50.021  1.00  0.00     0.190 HD
ENDROOT
BRANCH   2   5
HETATM    5  N   UNL     1      23.956  47.753  49.847  1.00  0.00    -0.266 N 
HETATM    6  C   UNL     1      22.914  47.791  48.938  1.00  0.00     0.258 C 
HETATM    7  O   UNL     1      22.413  46.773  48.453  1.00  0.00    -0.269 OA
HETATM    8  H   UNL     1      24.208  48.568  50.407  1.00  0.00     0.190 HD
BRANCH   6   9
HETATM    9  C   UNL     1      22.442  49.211  48.574  1.00  0.00     0.173 C 
HETATM   10  C   UNL     1      23.647  50.101  48.285  1.00  0.00     0.042 C 
BRANCH   9  11
HETATM   11  N   UNL     1      21.691  49.777  49.695  1.00  0.00    -0.356 N 
HETATM   12  H   UNL     1      21.963  49.408  50.606  1.00  0.00     0.162 HD
BRANCH  11  13
HETATM   13  C   UNL     1      20.410  50.161  49.519  1.00  0.00     0.168 A 
HETATM   14  S   UNL     1      19.325  49.157  48.642  1.00  0.00    -0.050 SA
HETATM   15  C   UNL     1      18.060  50.297  48.886  1.00  0.00     0.037 A 
HETATM   16  C   UNL     1      18.561  51.373  49.619  1.00  0.00     0.076 A 
HETATM   17  C   UNL     1      16.723  50.247  48.460  1.00  0.00     0.021 A 
HETATM   18  N   UNL     1      19.894  51.276  49.978  1.00  0.00    -0.223 NA
HETATM   19  C   UNL     1      17.698  52.443  49.926  1.00  0.00     0.033 A 
HETATM   20  C   UNL     1      16.366  52.409  49.501  1.00  0.00     0.002 A 
HETATM   21  C   UNL     1      15.886  51.320  48.780  1.00  0.00     0.002 A 
ENDBRANCH  11  13
ENDBRANCH   9  11
ENDBRANCH   6   9
ENDBRANCH   2   5
BRANCH   1  22
HETATM   22  C   UNL     1      25.225  45.125  52.189  1.00  0.00     0.227 C 
BRANCH  22  23
HETATM   23  N   UNL     1      26.062  45.236  53.366  1.00  0.00    -0.348 N 
HETATM   24  C   UNL     1      27.362  44.775  53.326  1.00  0.00     0.252 C 
HETATM   25  O   UNL     1      27.832  44.206  52.348  1.00  0.00    -0.268 OA
HETATM   26  H   UNL     1      25.828  45.965  54.028  1.00  0.00     0.163 HD
BRANCH  24  27
HETATM   27  C   UNL     1      28.199  45.050  54.526  1.00  0.00     0.032 A 
HETATM   28  C   UNL     1      29.284  44.205  54.793  1.00  0.00     0.024 A 
HETATM   29  C   UNL     1      30.106  44.418  55.912  1.00  0.00    -0.055 A 
HETATM   30  C   UNL     1      29.808  45.476  56.796  1.00  0.00    -0.056 A 
HETATM   31  C   UNL     1      31.258  43.482  56.162  1.00  0.00     0.049 C 
HETATM   32  C   UNL     1      30.648  45.744  58.014  1.00  0.00     0.049 C 
HETATM   33  C   UNL     1      28.716  46.316  56.520  1.00  0.00     0.008 A 
HETATM   34  C   UNL     1      27.914  46.105  55.397  1.00  0.00     0.017 A 
ENDBRANCH  24  27
ENDBRANCH  22  23
ENDBRANCH   1  22
TORSDOF 7
ENDMDL
MODEL 6
REMARK VINA RESULT:      -9.7      2.263     11.125
REMARK  7 active torsions:
REMARK  status: ('A' for Active; 'I' for Inactive)
REMARK    1  A    between atoms: C_6  and  C_7 
REMARK       I    between atoms: C_7  and  N_8 
REMARK    2  A    between atoms: N_8  and  C_9 
REMARK    3  A    between atoms: C_9  and  C_10 
REMARK       I    between atoms: C_10  and  N_11 
REMARK    4  A    between atoms: N_11  and  N_12 
REMARK       I    between atoms: N_12  and  C_13 
REMARK    5  A    between atoms: C_13  and  C_14 
REMARK    6  A    between atoms: C_14  and  N_15 
REMARK    7  A    between atoms: N_15  and  C_16 
ROOT
HETATM    1  C   UNL     1      24.743  46.917  50.380  1.00  0.00     0.253 C 
HETATM    2  N   UNL     1      24.613  45.777  49.617  1.00  0.00    -0.266 N 
HETATM    3  O   UNL     1      24.981  46.884  51.589  1.00  0.00    -0.270 OA
HETATM    4  H   UNL     1      24.406  45.786  48.619  1.00  0.00     0.190 HD
ENDROOT
BRANCH   2   5
HETATM    5  N   UNL     1      24.939  44.548  50.201  1.00  0.00    -0.266 N 
HETATM    6  C   UNL     1      26.259  44.140  50.147  1.00  0.00     0.258 C 
HETATM    7  O   UNL     1      27.100  44.690  49.430  1.00  0.00    -0.269 OA
HETATM    8  H   UNL     1      24.316  44.244  50.949  1.00  0.00     0.190 HD
BRANCH   6   9
HETATM    9  C   UNL     1      26.587  42.934  51.046  1.00  0.00     0.173 C 
HETATM   10  C   UNL     1      25.784  41.717  50.598  1.00  0.00     0.042 C 
BRANCH   9  11
HETATM   11  N   UNL     1      26.240  43.250  52.431  1.00  0.00    -0.356 N 
HETATM   12  H   UNL     1      25.295  43.615  52.550  1.00  0.00     0.162 HD
BRANCH  11  13
HETATM   13  C   UNL     1      27.196  43.669  53.285  1.00  0.00     0.168 A 
HETATM   14  S   UNL     1      27.059  45.205  54.043  1.00  0.00    -0.050 SA
HETATM   15  C   UNL     1      28.546  44.941  54.866  1.00  0.00     0.037 A 
HETATM   16  C   UNL     1      29.048  43.694  54.497  1.00  0.00     0.076 A 
HETATM   17  C   UNL     1      29.222  45.775  55.771  1.00  0.00     0.021 A 
HETATM   18  N   UNL     1      28.265  42.980  53.605  1.00  0.00    -0.223 NA
HETATM   19  C   UNL     1      30.276  43.269  55.041  1.00  0.00     0.033 A 
HETATM   20  C   UNL     1      30.963  44.094  55.939  1.00  0.00     0.002 A 
HETATM   21  C   UNL     1      30.437  45.330  56.300  1.00  0.00     0.002 A 
ENDBRANCH  11  13
ENDBRANCH   9  11
ENDBRANCH   6   9
ENDBRANCH   2   5
BRANCH   1  22
HETATM   22  C   UNL     1      24.487  48.217  49.626  1.00  0.00     0.227 C 
BRANCH  22  23
HETATM   23  N   UNL     1      23.060  48.452  49.539  1.00  0.00    -0.348 N 
HETATM   24  C   UNL     1      22.583  49.745  49.469  1.00  0.00     0.252 C 
HETATM   25  O   UNL     1      23.315  50.725  49.546  1.00  0.00    -0.268 OA
HETATM   26  H   UNL     1      22.495  47.707  49.150  1.00  0.00     0.163 HD
BRANCH  24  27
HETATM   27  C   UNL     1      21.120  49.900  49.241  1.00  0.00     0.032 A 
HETATM   28  C   UNL     1      20.631  51.157  48.867  1.00  0.00     0.024 A 
HETATM   29  C   UNL     1      19.259  51.361  48.641  1.00  0.00    -0.055 A 
HETATM   30  C   UNL     1      18.363  50.288  48.831  1.00  0.00    -0.056 A 
HETATM   31  C   UNL     1      18.778  52.729  48.244  1.00  0.00     0.049 C 
HETATM   32  C   UNL     1      16.884  50.450  48.613  1.00  0.00     0.049 C 
HETATM   33  C   UNL     1      18.864  49.032  49.210  1.00  0.00     0.008 A 
HETATM   34  C   UNL     1      20.231  48.837  49.418  1.00  0.00     0.017 A 
ENDBRANCH  24  27
ENDBRANCH  22  23
ENDBRANCH   1  22
TORSDOF 7
ENDMDL
MODEL 7
REMARK VINA RESULT:      -9.4      1.769      2.544
REMARK  7 active torsions:
REMARK  status: ('A' for Active; 'I' for Inactive)
REMARK    1  A    between atoms: C_6  and  C_7 
REMARK       I    between atoms: C_7  and  N_8 
REMARK    2  A    between atoms: N_8  and  C_9 
REMARK    3  A    between atoms: C_9  and  C_10 
REMARK       I    between atoms: C_10  and  N_11 
REMARK    4  A    between atoms: N_11  and  N_12 
REMARK       I    between atoms: N_12  and  C_13 
REMARK    5  A    between atoms: C_13  and  C_14 
REMARK    6  A    between atoms: C_14  and  N_15 
REMARK    7  A    between atoms: N_15  and  C_16 
ROOT
HETATM    1  C   UNL     1      24.144  45.298  49.399  1.00  0.00     0.253 C 
HETATM    2  N   UNL     1      24.147  46.434  50.181  1.00  0.00    -0.266 N 
HETATM    3  O   UNL     1      23.257  45.060  48.578  1.00  0.00    -0.270 OA
HETATM    4  H   UNL     1      24.866  46.641  50.873  1.00  0.00     0.190 HD
ENDROOT
BRANCH   2   5
HETATM    5  N   UNL     1      23.207  47.432  49.904  1.00  0.00    -0.266 N 
HETATM    6  C   UNL     1      23.669  48.619  49.364  1.00  0.00     0.258 C 
HETATM    7  O   UNL     1      24.867  48.914  49.326  1.00  0.00    -0.269 OA
HETATM    8  H   UNL     1      22.258  47.099  49.729  1.00  0.00     0.190 HD
BRANCH   6   9
HETATM    9  C   UNL     1      22.562  49.545  48.829  1.00  0.00     0.173 C 
HETATM   10  C   UNL     1      23.183  50.784  48.192  1.00  0.00     0.042 C 
BRANCH   9  11
HETATM   11  N   UNL     1      21.697  49.961  49.933  1.00  0.00    -0.356 N 
HETATM   12  H   UNL     1      21.923  49.522  50.826  1.00  0.00     0.162 HD
BRANCH  11  13
HETATM   13  C   UNL     1      20.412  50.291  49.693  1.00  0.00     0.168 A 
HETATM   14  S   UNL     1      19.385  49.194  48.858  1.00  0.00    -0.050 SA
HETATM   15  C   UNL     1      18.080  50.307  48.982  1.00  0.00     0.037 A 
HETATM   16  C   UNL     1      18.526  51.448  49.649  1.00  0.00     0.076 A 
HETATM   17  C   UNL     1      16.760  50.185  48.521  1.00  0.00     0.021 A 
HETATM   18  N   UNL     1      19.850  51.419  50.054  1.00  0.00    -0.223 NA
HETATM   19  C   UNL     1      17.623  52.510  49.853  1.00  0.00     0.033 A 
HETATM   20  C   UNL     1      16.306  52.403  49.393  1.00  0.00     0.002 A 
HETATM   21  C   UNL     1      15.882  51.251  48.738  1.00  0.00     0.002 A 
ENDBRANCH  11  13
ENDBRANCH   9  11
ENDBRANCH   6   9
ENDBRANCH   2   5
BRANCH   1  22
HETATM   22  C   UNL     1      25.279  44.324  49.692  1.00  0.00     0.227 C 
BRANCH  22  23
HETATM   23  N   UNL     1      26.057  44.812  50.813  1.00  0.00    -0.348 N 
HETATM   24  C   UNL     1      25.789  44.350  52.085  1.00  0.00     0.252 C 
HETATM   25  O   UNL     1      24.864  43.583  52.328  1.00  0.00    -0.268 OA
HETATM   26  H   UNL     1      26.988  45.155  50.610  1.00  0.00     0.163 HD
BRANCH  24  27
HETATM   27  C   UNL     1      26.719  44.790  53.160  1.00  0.00     0.032 A 
HETATM   28  C   UNL     1      27.839  43.999  53.442  1.00  0.00     0.024 A 
HETATM   29  C   UNL     1      28.749  44.366  54.448  1.00  0.00    -0.055 A 
HETATM   30  C   UNL     1      28.505  45.530  55.206  1.00  0.00    -0.056 A 
HETATM   31  C   UNL     1      29.936  43.483  54.718  1.00  0.00     0.049 C 
HETATM   32  C   UNL     1      29.439  45.967  56.300  1.00  0.00     0.049 C 
HETATM   33  C   UNL     1      27.377  46.316  54.917  1.00  0.00     0.008 A 
HETATM   34  C   UNL     1      26.487  45.949  53.905  1.00  0.00     0.017 A 
ENDBRANCH  24  27
ENDBRANCH  22  23
ENDBRANCH   1  22
TORSDOF 7
ENDMDL
MODEL 8
REMARK VINA RESULT:      -9.2      2.273      3.226
REMARK  7 active torsions:
REMARK  status: ('A' for Active; 'I' for Inactive)
REMARK    1  A    between atoms: C_6  and  C_7 
REMARK       I    between atoms: C_7  and  N_8 
REMARK    2  A    between atoms: N_8  and  C_9 
REMARK    3  A    between atoms: C_9  and  C_10 
REMARK       I    between atoms: C_10  and  N_11 
REMARK    4  A    between atoms: N_11  and  N_12 
REMARK       I    between atoms: N_12  and  C_13 
REMARK    5  A    between atoms: C_13  and  C_14 
REMARK    6  A    between atoms: C_14  and  N_15 
REMARK    7  A    between atoms: N_15  and  C_16 
ROOT
HETATM    1  C   UNL     1      24.447  43.758  49.788  1.00  0.00     0.253 C 
HETATM    2  N   UNL     1      23.114  43.948  50.084  1.00  0.00    -0.266 N 
HETATM    3  O   UNL     1      25.049  44.451  48.966  1.00  0.00    -0.270 OA
HETATM    4  H   UNL     1      22.598  43.377  50.752  1.00  0.00     0.190 HD
ENDROOT
BRANCH   2   5
HETATM    5  N   UNL     1      22.473  45.077  49.563  1.00  0.00    -0.266 N 
HETATM    6  C   UNL     1      21.499  44.877  48.601  1.00  0.00     0.258 C 
HETATM    7  O   UNL     1      21.331  43.794  48.035  1.00  0.00    -0.269 OA
HETATM    8  H   UNL     1      22.458  45.890  50.179  1.00  0.00     0.190 HD
BRANCH   6   9
HETATM    9  C   UNL     1      20.652  46.124  48.289  1.00  0.00     0.173 C 
HETATM   10  C   UNL     1      20.582  46.341  46.780  1.00  0.00     0.042 C 
BRANCH   9  11
HETATM   11  N   UNL     1      21.265  47.298  48.910  1.00  0.00    -0.356 N 
HETATM   12  H   UNL     1      21.893  47.079  49.683  1.00  0.00     0.162 HD
BRANCH  11  13
HETATM   13  C   UNL     1      20.593  48.467  48.947  1.00  0.00     0.168 A 
HETATM   14  S   UNL     1      21.233  49.852  48.157  1.00  0.00    -0.050 SA
HETATM   15  C   UNL     1      19.876  50.779  48.663  1.00  0.00     0.037 A 
HETATM   16  C   UNL     1      19.028  49.962  49.411  1.00  0.00     0.076 A 
HETATM   17  C   UNL     1      19.581  52.131  48.422  1.00  0.00     0.021 A 
HETATM   18  N   UNL     1      19.445  48.649  49.555  1.00  0.00    -0.223 NA
HETATM   19  C   UNL     1      17.849  50.518  49.946  1.00  0.00     0.033 A 
HETATM   20  C   UNL     1      17.547  51.865  49.718  1.00  0.00     0.002 A 
HETATM   21  C   UNL     1      18.404  52.658  48.961  1.00  0.00     0.002 A 
ENDBRANCH  11  13
ENDBRANCH   9  11
ENDBRANCH   6   9
ENDBRANCH   2   5
BRANCH   1  22
HETATM   22  C   UNL     1      25.091  42.573  50.498  1.00  0.00     0.227 C 
BRANCH  22  23
HETATM   23  N   UNL     1      26.153  43.048  51.362  1.00  0.00    -0.348 N 
HETATM   24  C   UNL     1      25.839  43.715  52.527  1.00  0.00     0.252 C 
HETATM   25  O   UNL     1      24.687  43.991  52.841  1.00  0.00    -0.268 OA
HETATM   26  H   UNL     1      27.041  42.562  51.308  1.00  0.00     0.163 HD
BRANCH  24  27
HETATM   27  C   UNL     1      26.976  44.047  53.429  1.00  0.00     0.032 A 
HETATM   28  C   UNL     1      27.026  45.323  54.001  1.00  0.00     0.024 A 
HETATM   29  C   UNL     1      28.078  45.690  54.858  1.00  0.00    -0.055 A 
HETATM   30  C   UNL     1      29.114  44.768  55.111  1.00  0.00    -0.056 A 
HETATM   31  C   UNL     1      28.093  47.074  55.447  1.00  0.00     0.049 C 
HETATM   32  C   UNL     1      30.269  45.109  56.012  1.00  0.00     0.049 C 
HETATM   33  C   UNL     1      29.056  43.491  54.529  1.00  0.00     0.008 A 
HETATM   34  C   UNL     1      27.999  43.131  53.691  1.00  0.00     0.017 A 
ENDBRANCH  24  27
ENDBRANCH  22  23
ENDBRANCH   1  22
TORSDOF 7
ENDMDL
MODEL 9
REMARK VINA RESULT:      -9.2      2.727     11.386
REMARK  7 active torsions:
REMARK  status: ('A' for Active; 'I' for Inactive)
REMARK    1  A    between atoms: C_6  and  C_7 
REMARK       I    between atoms: C_7  and  N_8 
REMARK    2  A    between atoms: N_8  and  C_9 
REMARK    3  A    between atoms: C_9  and  C_10 
REMARK       I    between atoms: C_10  and  N_11 
REMARK    4  A    between atoms: N_11  and  N_12 
REMARK       I    between atoms: N_12  and  C_13 
REMARK    5  A    between atoms: C_13  and  C_14 
REMARK    6  A    between atoms: C_14  and  N_15 
REMARK    7  A    between atoms: N_15  and  C_16 
ROOT
HETATM    1  C   UNL     1      23.036  45.039  48.811  1.00  0.00     0.253 C 
HETATM    2  N   UNL     1      23.481  45.713  49.928  1.00  0.00    -0.266 N 
HETATM    3  O   UNL     1      23.801  44.473  48.027  1.00  0.00    -0.270 OA
HETATM    4  H   UNL     1      22.863  46.195  50.579  1.00  0.00     0.190 HD
ENDROOT
BRANCH   2   5
HETATM    5  N   UNL     1      24.831  45.599  50.276  1.00  0.00    -0.266 N 
HETATM    6  C   UNL     1      25.141  44.891  51.424  1.00  0.00     0.258 C 
HETATM    7  O   UNL     1      24.291  44.556  52.252  1.00  0.00    -0.269 OA
HETATM    8  H   UNL     1      25.488  45.672  49.499  1.00  0.00     0.190 HD
BRANCH   6   9
HETATM    9  C   UNL     1      26.639  44.570  51.585  1.00  0.00     0.173 C 
HETATM   10  C   UNL     1      27.166  43.902  50.319  1.00  0.00     0.042 C 
BRANCH   9  11
HETATM   11  N   UNL     1      26.823  43.661  52.716  1.00  0.00    -0.356 N 
HETATM   12  H   UNL     1      25.972  43.181  53.007  1.00  0.00     0.162 HD
BRANCH  11  13
HETATM   13  C   UNL     1      27.752  43.937  53.654  1.00  0.00     0.168 A 
HETATM   14  S   UNL     1      27.698  45.430  54.504  1.00  0.00    -0.050 SA
HETATM   15  C   UNL     1      29.095  44.981  55.400  1.00  0.00     0.037 A 
HETATM   16  C   UNL     1      29.511  43.717  54.980  1.00  0.00     0.076 A 
HETATM   17  C   UNL     1      29.778  45.692  56.400  1.00  0.00     0.021 A 
HETATM   18  N   UNL     1      28.732  43.134  53.995  1.00  0.00    -0.223 NA
HETATM   19  C   UNL     1      30.657  43.149  55.571  1.00  0.00     0.033 A 
HETATM   20  C   UNL     1      31.350  43.851  56.563  1.00  0.00     0.002 A 
HETATM   21  C   UNL     1      30.911  45.106  56.973  1.00  0.00     0.002 A 
ENDBRANCH  11  13
ENDBRANCH   9  11
ENDBRANCH   6   9
ENDBRANCH   2   5
BRANCH   1  22
HETATM   22  C   UNL     1      21.531  45.119  48.580  1.00  0.00     0.227 C 
BRANCH  22  23
HETATM   23  N   UNL     1      21.086  46.486  48.764  1.00  0.00    -0.348 N 
HETATM   24  C   UNL     1      21.162  47.376  47.714  1.00  0.00     0.252 C 
HETATM   25  O   UNL     1      21.657  47.082  46.631  1.00  0.00    -0.268 OA
HETATM   26  H   UNL     1      20.399  46.651  49.489  1.00  0.00     0.163 HD
BRANCH  24  27
HETATM   27  C   UNL     1      20.558  48.718  47.938  1.00  0.00     0.032 A 
HETATM   28  C   UNL     1      19.164  48.822  48.008  1.00  0.00     0.024 A 
HETATM   29  C   UNL     1      18.541  50.064  48.216  1.00  0.00    -0.055 A 
HETATM   30  C   UNL     1      19.336  51.225  48.319  1.00  0.00    -0.056 A 
HETATM   31  C   UNL     1      17.039  50.128  48.281  1.00  0.00     0.049 C 
HETATM   32  C   UNL     1      18.724  52.582  48.533  1.00  0.00     0.049 C 
HETATM   33  C   UNL     1      20.734  51.110  48.245  1.00  0.00     0.008 A 
HETATM   34  C   UNL     1      21.343  49.869  48.052  1.00  0.00     0.017 A 
ENDBRANCH  24  27
ENDBRANCH  22  23
ENDBRANCH   1  22
TORSDOF 7
ENDMDL
MODEL 10
REMARK VINA RESULT:      -9.1      5.009      8.175
REMARK  7 active torsions:
REMARK  status: ('A' for Active; 'I' for Inactive)
REMARK    1  A    between atoms: C_6  and  C_7 
REMARK       I    between atoms: C_7  and  N_8 
REMARK    2  A    between atoms: N_8  and  C_9 
REMARK    3  A    between atoms: C_9  and  C_10 
REMARK       I    between atoms: C_10  and  N_11 
REMARK    4  A    between atoms: N_11  and  N_12 
REMARK       I    between atoms: N_12  and  C_13 
REMARK    5  A    between atoms: C_13  and  C_14 
REMARK    6  A    between atoms: C_14  and  N_15 
REMARK    7  A    between atoms: N_15  and  C_16 
ROOT
HETATM    1  C   UNL     1      25.001  45.394  52.180  1.00  0.00     0.253 C 
HETATM    2  N   UNL     1      24.877  45.772  50.861  1.00  0.00    -0.266 N 
HETATM    3  O   UNL     1      24.477  44.373  52.630  1.00  0.00    -0.270 OA
HETATM    4  H   UNL     1      25.293  46.619  50.475  1.00  0.00     0.190 HD
ENDROOT
BRANCH   2   5
HETATM    5  N   UNL     1      24.285  44.874  49.966  1.00  0.00    -0.266 N 
HETATM    6  C   UNL     1      25.113  43.975  49.317  1.00  0.00     0.258 C 
HETATM    7  O   UNL     1      26.342  44.076  49.321  1.00  0.00    -0.269 OA
HETATM    8  H   UNL     1      23.304  44.662  50.148  1.00  0.00     0.190 HD
BRANCH   6   9
HETATM    9  C   UNL     1      24.368  42.849  48.577  1.00  0.00     0.173 C 
HETATM   10  C   UNL     1      22.902  43.229  48.392  1.00  0.00     0.042 C 
BRANCH   9  11
HETATM   11  N   UNL     1      24.444  41.617  49.363  1.00  0.00    -0.356 N 
HETATM   12  H   UNL     1      23.973  41.670  50.266  1.00  0.00     0.162 HD
BRANCH  11  13
HETATM   13  C   UNL     1      25.524  40.816  49.253  1.00  0.00     0.168 A 
HETATM   14  S   UNL     1      26.572  40.598  50.597  1.00  0.00    -0.050 SA
HETATM   15  C   UNL     1      27.561  39.543  49.666  1.00  0.00     0.037 A 
HETATM   16  C   UNL     1      27.021  39.437  48.384  1.00  0.00     0.076 A 
HETATM   17  C   UNL     1      28.730  38.860  50.038  1.00  0.00     0.021 A 
HETATM   18  N   UNL     1      25.859  40.159  48.169  1.00  0.00    -0.223 NA
HETATM   19  C   UNL     1      27.680  38.629  47.436  1.00  0.00     0.033 A 
HETATM   20  C   UNL     1      28.849  37.949  47.792  1.00  0.00     0.002 A 
HETATM   21  C   UNL     1      29.364  38.063  49.080  1.00  0.00     0.002 A 
ENDBRANCH  11  13
ENDBRANCH   9  11
ENDBRANCH   6   9
ENDBRANCH   2   5
BRANCH   1  22
HETATM   22  C   UNL     1      25.767  46.381  53.054  1.00  0.00     0.227 C 
BRANCH  22  23
HETATM   23  N   UNL     1      26.930  45.726  53.617  1.00  0.00    -0.348 N 
HETATM   24  C   UNL     1      27.620  46.327  54.649  1.00  0.00     0.252 C 
HETATM   25  O   UNL     1      27.333  47.439  55.078  1.00  0.00    -0.268 OA
HETATM   26  H   UNL     1      26.979  44.719  53.525  1.00  0.00     0.163 HD
BRANCH  24  27
HETATM   27  C   UNL     1      28.716  45.530  55.266  1.00  0.00     0.032 A 
HETATM   28  C   UNL     1      29.236  45.948  56.497  1.00  0.00     0.024 A 
HETATM   29  C   UNL     1      30.272  45.234  57.123  1.00  0.00    -0.055 A 
HETATM   30  C   UNL     1      30.817  44.103  56.479  1.00  0.00    -0.056 A 
HETATM   31  C   UNL     1      30.802  45.722  58.443  1.00  0.00     0.049 C 
HETATM   32  C   UNL     1      31.933  43.307  57.098  1.00  0.00     0.049 C 
HETATM   33  C   UNL     1      30.290  43.695  55.243  1.00  0.00     0.008 A 
HETATM   34  C   UNL     1      29.250  44.403  54.636  1.00  0.00     0.017 A 
ENDBRANCH  24  27
ENDBRANCH  22  23
ENDBRANCH   1  22
TORSDOF 7
ENDMDL
