MODEL 1
REMARK VINA RESULT:      -8.4      0.000      0.000
REMARK  11 active torsions:
REMARK  status: ('A' for Active; 'I' for Inactive)
REMARK    1  A    between atoms: C_6  and  C_7 
REMARK    2  A    between atoms: C_7  and  C_8 
REMARK       I    between atoms: C_8  and  N_9 
REMARK    3  A    between atoms: N_9  and  C_10 
REMARK    4  A    between atoms: C_10  and  C_11 
REMARK    5  A    between atoms: C_11  and  N_12 
REMARK    6  A    between atoms: C_17  and  C_18 
REMARK    7  A    between atoms: C_21  and  C_22 
REMARK    8  A    between atoms: C_29  and  C_30 
REMARK    9  A    between atoms: C_30  and  O_31 
REMARK   10  A    between atoms: O_31  and  C_32 
REMARK   11  A    between atoms: C_32  and  C_33 
ROOT
HETATM    1  C   UNL     1      26.771  42.942  49.083  1.00  0.00     0.071 C 
HETATM    2  C   UNL     1      26.345  44.157  49.866  1.00  0.00     0.048 C 
HETATM    3  N   UNL     1      27.236  45.229  49.786  1.00  0.00    -0.229 NA
HETATM    4  C   UNL     1      26.724  46.403  49.953  1.00  0.00     0.170 C 
HETATM    5  N   UNL     1      25.236  46.608  50.343  1.00  0.00    -0.319 N 
HETATM    6  C   UNL     1      24.738  47.590  49.679  1.00  0.00     0.011 C 
HETATM    7  C   UNL     1      24.779  45.524  51.232  1.00  0.00     0.166 C 
HETATM    8  S   UNL     1      27.438  47.898  49.467  1.00  0.00    -0.086 SA
HETATM    9  C   UNL     1      25.764  48.587  49.160  1.00  0.00     0.135 C 
HETATM   10  C   UNL     1      25.159  44.271  50.507  1.00  0.00     0.069 C 
ENDROOT
BRANCH   6  11
HETATM   11  C   UNL     1      23.281  47.620  49.325  1.00  0.00     0.156 C 
BRANCH  11  12
HETATM   12  C   UNL     1      22.916  49.018  48.861  1.00  0.00     0.223 C 
HETATM   13  N   UNL     1      22.372  49.853  49.801  1.00  0.00    -0.359 N 
HETATM   14  H   UNL     1      22.413  49.608  50.794  1.00  0.00     0.162 HD
HETATM   15  O   UNL     1      22.958  49.323  47.671  1.00  0.00    -0.273 OA
BRANCH  13  16
HETATM   16  C   UNL     1      21.557  51.028  49.457  1.00  0.00     0.150 C 
BRANCH  16  17
HETATM   17  C   UNL     1      20.066  51.009  49.877  1.00  0.00     0.253 C 
BRANCH  17  18
HETATM   18  N   UNL     1      19.387  49.676  49.638  1.00  0.00    -0.077 N 
HETATM   19  H   UNL     1      20.127  49.010  49.337  1.00  0.00     0.279 HD
HETATM   20  C   UNL     1      18.763  49.063  50.861  1.00  0.00     0.269 C 
HETATM   21  C   UNL     1      18.395  49.741  48.509  1.00  0.00     0.269 C 
ENDBRANCH  17  18
ENDBRANCH  16  17
ENDBRANCH  13  16
ENDBRANCH  11  12
ENDBRANCH   6  11
BRANCH   7  22
HETATM   22  C   UNL     1      25.474  45.732  52.590  1.00  0.00    -0.030 C 
HETATM   23  C   UNL     1      25.931  47.016  52.950  1.00  0.00     0.010 C 
HETATM   24  C   UNL     1      26.902  47.174  53.942  1.00  0.00     0.008 C 
HETATM   25  C   UNL     1      27.406  46.065  54.630  1.00  0.00    -0.055 C 
HETATM   26  C   UNL     1      26.812  44.818  54.406  1.00  0.00     0.008 C 
HETATM   27  C   UNL     1      25.847  44.654  53.409  1.00  0.00     0.010 C 
BRANCH  25  28
HETATM   28  C   UNL     1      28.629  46.211  55.521  1.00  0.00     0.010 C 
HETATM   29  C   UNL     1      28.272  46.451  56.986  1.00  0.00     0.015 C 
HETATM   30  C   UNL     1      29.540  44.984  55.378  1.00  0.00     0.015 C 
ENDBRANCH  25  28
ENDBRANCH   7  22
BRANCH  10  31
HETATM   31  C   UNL     1      24.009  43.416  50.208  1.00  0.00     0.294 C 
HETATM   32  O   UNL     1      23.628  42.620  51.058  1.00  0.00    -0.259 OA
BRANCH  31  33
HETATM   33  O   UNL     1      23.656  43.529  48.920  1.00  0.00    -0.313 OA
BRANCH  33  34
HETATM   34  C   UNL     1      22.277  43.252  48.626  1.00  0.00     0.217 C 
BRANCH  34  35
HETATM   35  C   UNL     1      21.614  44.489  48.092  1.00  0.00    -0.034 A 
HETATM   36  C   UNL     1      22.034  45.042  46.874  1.00  0.00     0.009 A 
HETATM   37  C   UNL     1      21.417  46.186  46.368  1.00  0.00     0.001 A 
HETATM   38  C   UNL     1      20.382  46.792  47.077  1.00  0.00     0.000 A 
HETATM   39  C   UNL     1      19.963  46.256  48.294  1.00  0.00     0.001 A 
HETATM   40  C   UNL     1      20.578  45.112  48.802  1.00  0.00     0.009 A 
ENDBRANCH  34  35
ENDBRANCH  33  34
ENDBRANCH  31  33
ENDBRANCH  10  31
TORSDOF 11
ENDMDL
MODEL 2
REMARK VINA RESULT:      -7.8     19.713     22.548
REMARK  11 active torsions:
REMARK  status: ('A' for Active; 'I' for Inactive)
REMARK    1  A    between atoms: C_6  and  C_7 
REMARK    2  A    between atoms: C_7  and  C_8 
REMARK       I    between atoms: C_8  and  N_9 
REMARK    3  A    between atoms: N_9  and  C_10 
REMARK    4  A    between atoms: C_10  and  C_11 
REMARK    5  A    between atoms: C_11  and  N_12 
REMARK    6  A    between atoms: C_17  and  C_18 
REMARK    7  A    between atoms: C_21  and  C_22 
REMARK    8  A    between atoms: C_29  and  C_30 
REMARK    9  A    between atoms: C_30  and  O_31 
REMARK   10  A    between atoms: O_31  and  C_32 
REMARK   11  A    between atoms: C_32  and  C_33 
ROOT
HETATM    1  C   UNL     1      40.387  43.229  69.003  1.00  0.00     0.071 C 
HETATM    2  C   UNL     1      40.485  44.239  67.889  1.00  0.00     0.048 C 
HETATM    3  N   UNL     1      41.777  44.724  67.669  1.00  0.00    -0.229 NA
HETATM    4  C   UNL     1      42.029  45.135  66.471  1.00  0.00     0.170 C 
HETATM    5  N   UNL     1      40.934  45.206  65.374  1.00  0.00    -0.319 N 
HETATM    6  C   UNL     1      41.410  44.798  64.251  1.00  0.00     0.011 C 
HETATM    7  C   UNL     1      39.631  45.562  65.963  1.00  0.00     0.166 C 
HETATM    8  S   UNL     1      43.598  45.343  65.782  1.00  0.00    -0.086 SA
HETATM    9  C   UNL     1      42.924  44.888  64.135  1.00  0.00     0.135 C 
HETATM   10  C   UNL     1      39.455  44.582  67.081  1.00  0.00     0.069 C 
ENDROOT
BRANCH   6  11
HETATM   11  C   UNL     1      40.526  44.138  63.235  1.00  0.00     0.156 C 
BRANCH  11  12
HETATM   12  C   UNL     1      40.399  42.664  63.576  1.00  0.00     0.223 C 
HETATM   13  N   UNL     1      39.599  41.913  62.757  1.00  0.00    -0.359 N 
HETATM   14  H   UNL     1      39.286  42.288  61.856  1.00  0.00     0.162 HD
HETATM   15  O   UNL     1      40.859  42.213  64.622  1.00  0.00    -0.273 OA
BRANCH  13  16
HETATM   16  C   UNL     1      38.999  40.635  63.170  1.00  0.00     0.150 C 
BRANCH  16  17
HETATM   17  C   UNL     1      39.891  39.372  63.094  1.00  0.00     0.253 C 
BRANCH  17  18
HETATM   18  N   UNL     1      40.687  39.116  64.358  1.00  0.00    -0.077 N 
HETATM   19  H   UNL     1      41.270  39.960  64.523  1.00  0.00     0.279 HD
HETATM   20  C   UNL     1      39.853  38.950  65.599  1.00  0.00     0.269 C 
HETATM   21  C   UNL     1      41.645  37.967  64.200  1.00  0.00     0.269 C 
ENDBRANCH  17  18
ENDBRANCH  16  17
ENDBRANCH  13  16
ENDBRANCH  11  12
ENDBRANCH   6  11
BRANCH   7  22
HETATM   22  C   UNL     1      39.718  47.038  66.393  1.00  0.00    -0.030 C 
HETATM   23  C   UNL     1      39.352  47.405  67.703  1.00  0.00     0.010 C 
HETATM   24  C   UNL     1      39.023  48.729  68.006  1.00  0.00     0.008 C 
HETATM   25  C   UNL     1      39.094  49.724  67.025  1.00  0.00    -0.055 C 
HETATM   26  C   UNL     1      39.641  49.392  65.781  1.00  0.00     0.008 C 
HETATM   27  C   UNL     1      39.963  48.069  65.471  1.00  0.00     0.010 C 
BRANCH  25  28
HETATM   28  C   UNL     1      38.500  51.099  67.288  1.00  0.00     0.010 C 
HETATM   29  C   UNL     1      37.763  51.670  66.078  1.00  0.00     0.015 C 
HETATM   30  C   UNL     1      37.579  51.052  68.514  1.00  0.00     0.015 C 
ENDBRANCH  25  28
ENDBRANCH   7  22
BRANCH  10  31
HETATM   31  C   UNL     1      38.254  43.759  66.933  1.00  0.00     0.294 C 
HETATM   32  O   UNL     1      38.235  42.894  66.065  1.00  0.00    -0.259 OA
BRANCH  31  33
HETATM   33  O   UNL     1      37.258  44.231  67.694  1.00  0.00    -0.313 OA
BRANCH  33  34
HETATM   34  C   UNL     1      36.020  44.486  67.010  1.00  0.00     0.217 C 
BRANCH  34  35
HETATM   35  C   UNL     1      36.122  45.770  66.239  1.00  0.00    -0.034 A 
HETATM   36  C   UNL     1      35.857  46.993  66.871  1.00  0.00     0.009 A 
HETATM   37  C   UNL     1      35.959  48.191  66.163  1.00  0.00     0.001 A 
HETATM   38  C   UNL     1      36.317  48.178  64.817  1.00  0.00     0.000 A 
HETATM   39  C   UNL     1      36.572  46.967  64.176  1.00  0.00     0.001 A 
HETATM   40  C   UNL     1      36.472  45.768  64.881  1.00  0.00     0.009 A 
ENDBRANCH  34  35
ENDBRANCH  33  34
ENDBRANCH  31  33
ENDBRANCH  10  31
TORSDOF 11
ENDMDL
MODEL 3
REMARK VINA RESULT:      -7.7      7.193     10.215
REMARK  11 active torsions:
REMARK  status: ('A' for Active; 'I' for Inactive)
REMARK    1  A    between atoms: C_6  and  C_7 
REMARK    2  A    between atoms: C_7  and  C_8 
REMARK       I    between atoms: C_8  and  N_9 
REMARK    3  A    between atoms: N_9  and  C_10 
REMARK    4  A    between atoms: C_10  and  C_11 
REMARK    5  A    between atoms: C_11  and  N_12 
REMARK    6  A    between atoms: C_17  and  C_18 
REMARK    7  A    between atoms: C_21  and  C_22 
REMARK    8  A    between atoms: C_29  and  C_30 
REMARK    9  A    between atoms: C_30  and  O_31 
REMARK   10  A    between atoms: O_31  and  C_32 
REMARK   11  A    between atoms: C_32  and  C_33 
ROOT
HETATM    1  C   UNL     1      16.293  48.612  43.120  1.00  0.00     0.071 C 
HETATM    2  C   UNL     1      16.553  49.797  44.014  1.00  0.00     0.048 C 
HETATM    3  N   UNL     1      17.162  50.876  43.369  1.00  0.00    -0.229 NA
HETATM    4  C   UNL     1      16.932  52.041  43.878  1.00  0.00     0.170 C 
HETATM    5  N   UNL     1      16.135  52.224  45.196  1.00  0.00    -0.319 N 
HETATM    6  C   UNL     1      15.336  53.226  45.091  1.00  0.00     0.011 C 
HETATM    7  C   UNL     1      16.399  51.108  46.122  1.00  0.00     0.166 C 
HETATM    8  S   UNL     1      17.140  53.555  43.076  1.00  0.00    -0.086 SA
HETATM    9  C   UNL     1      15.736  54.246  44.035  1.00  0.00     0.135 C 
HETATM   10  C   UNL     1      16.146  49.883  45.301  1.00  0.00     0.069 C 
ENDROOT
BRANCH   6  11
HETATM   11  C   UNL     1      14.041  53.261  45.847  1.00  0.00     0.156 C 
BRANCH  11  12
HETATM   12  C   UNL     1      14.167  54.250  46.992  1.00  0.00     0.223 C 
HETATM   13  N   UNL     1      14.554  53.739  48.203  1.00  0.00    -0.359 N 
HETATM   14  H   UNL     1      14.937  52.791  48.264  1.00  0.00     0.162 HD
HETATM   15  O   UNL     1      13.784  55.411  46.873  1.00  0.00    -0.273 OA
BRANCH  13  16
HETATM   16  C   UNL     1      14.291  54.415  49.482  1.00  0.00     0.150 C 
BRANCH  16  17
HETATM   17  C   UNL     1      15.472  54.547  50.475  1.00  0.00     0.253 C 
BRANCH  17  18
HETATM   18  N   UNL     1      15.281  55.648  51.499  1.00  0.00    -0.077 N 
HETATM   19  H   UNL     1      16.146  55.676  52.076  1.00  0.00     0.279 HD
HETATM   20  C   UNL     1      15.137  57.027  50.916  1.00  0.00     0.269 C 
HETATM   21  C   UNL     1      14.153  55.348  52.448  1.00  0.00     0.269 C 
ENDBRANCH  17  18
ENDBRANCH  16  17
ENDBRANCH  13  16
ENDBRANCH  11  12
ENDBRANCH   6  11
BRANCH   7  22
HETATM   22  C   UNL     1      17.846  51.273  46.624  1.00  0.00    -0.030 C 
HETATM   23  C   UNL     1      18.840  50.374  46.190  1.00  0.00     0.010 C 
HETATM   24  C   UNL     1      20.028  50.225  46.911  1.00  0.00     0.008 C 
HETATM   25  C   UNL     1      20.273  50.998  48.051  1.00  0.00    -0.055 C 
HETATM   26  C   UNL     1      19.373  52.021  48.366  1.00  0.00     0.008 C 
HETATM   27  C   UNL     1      18.180  52.168  47.654  1.00  0.00     0.010 C 
BRANCH  25  28
HETATM   28  C   UNL     1      21.440  50.659  48.966  1.00  0.00     0.010 C 
HETATM   29  C   UNL     1      22.768  51.229  48.471  1.00  0.00     0.015 C 
HETATM   30  C   UNL     1      21.145  51.131  50.396  1.00  0.00     0.015 C 
ENDBRANCH  25  28
ENDBRANCH   7  22
BRANCH  10  31
HETATM   31  C   UNL     1      15.092  49.033  45.858  1.00  0.00     0.294 C 
HETATM   32  O   UNL     1      13.928  49.410  45.783  1.00  0.00    -0.259 OA
BRANCH  31  33
HETATM   33  O   UNL     1      15.619  48.015  46.551  1.00  0.00    -0.313 OA
BRANCH  33  34
HETATM   34  C   UNL     1      15.813  48.253  47.955  1.00  0.00     0.217 C 
BRANCH  34  35
HETATM   35  C   UNL     1      17.219  47.893  48.341  1.00  0.00    -0.034 A 
HETATM   36  C   UNL     1      17.965  47.015  47.542  1.00  0.00     0.009 A 
HETATM   37  C   UNL     1      19.274  46.683  47.890  1.00  0.00     0.001 A 
HETATM   38  C   UNL     1      19.847  47.217  49.042  1.00  0.00     0.000 A 
HETATM   39  C   UNL     1      19.111  48.082  49.849  1.00  0.00     0.001 A 
HETATM   40  C   UNL     1      17.802  48.417  49.504  1.00  0.00     0.009 A 
ENDBRANCH  34  35
ENDBRANCH  33  34
ENDBRANCH  31  33
ENDBRANCH  10  31
TORSDOF 11
ENDMDL
MODEL 4
REMARK VINA RESULT:      -7.6     19.682     22.753
REMARK  11 active torsions:
REMARK  status: ('A' for Active; 'I' for Inactive)
REMARK    1  A    between atoms: C_6  and  C_7 
REMARK    2  A    between atoms: C_7  and  C_8 
REMARK       I    between atoms: C_8  and  N_9 
REMARK    3  A    between atoms: N_9  and  C_10 
REMARK    4  A    between atoms: C_10  and  C_11 
REMARK    5  A    between atoms: C_11  and  N_12 
REMARK    6  A    between atoms: C_17  and  C_18 
REMARK    7  A    between atoms: C_21  and  C_22 
REMARK    8  A    between atoms: C_29  and  C_30 
REMARK    9  A    between atoms: C_30  and  O_31 
REMARK   10  A    between atoms: O_31  and  C_32 
REMARK   11  A    between atoms: C_32  and  C_33 
ROOT
HETATM    1  C   UNL     1      35.649  43.390  66.028  1.00  0.00     0.071 C 
HETATM    2  C   UNL     1      36.919  44.188  66.174  1.00  0.00     0.048 C 
HETATM    3  N   UNL     1      37.597  43.967  67.375  1.00  0.00    -0.229 NA
HETATM    4  C   UNL     1      38.873  44.167  67.347  1.00  0.00     0.170 C 
HETATM    5  N   UNL     1      39.594  44.737  66.097  1.00  0.00    -0.319 N 
HETATM    6  C   UNL     1      40.704  44.115  65.908  1.00  0.00     0.011 C 
HETATM    7  C   UNL     1      38.731  45.705  65.397  1.00  0.00     0.166 C 
HETATM    8  S   UNL     1      40.018  43.554  68.484  1.00  0.00    -0.086 SA
HETATM    9  C   UNL     1      41.273  43.445  67.149  1.00  0.00     0.135 C 
HETATM   10  C   UNL     1      37.441  44.972  65.202  1.00  0.00     0.069 C 
ENDROOT
BRANCH   6  11
HETATM   11  C   UNL     1      41.267  43.949  64.528  1.00  0.00     0.156 C 
BRANCH  11  12
HETATM   12  C   UNL     1      42.284  45.047  64.275  1.00  0.00     0.223 C 
HETATM   13  N   UNL     1      43.591  44.748  64.556  1.00  0.00    -0.359 N 
HETATM   14  H   UNL     1      43.874  43.778  64.720  1.00  0.00     0.162 HD
HETATM   15  O   UNL     1      41.928  46.189  63.991  1.00  0.00    -0.273 OA
BRANCH  13  16
HETATM   16  C   UNL     1      44.612  45.774  64.815  1.00  0.00     0.150 C 
BRANCH  16  17
HETATM   17  C   UNL     1      44.788  46.252  66.277  1.00  0.00     0.253 C 
BRANCH  17  18
HETATM   18  N   UNL     1      45.777  47.391  66.427  1.00  0.00    -0.077 N 
HETATM   19  H   UNL     1      46.606  47.006  66.923  1.00  0.00     0.279 HD
HETATM   20  C   UNL     1      46.300  47.940  65.129  1.00  0.00     0.269 C 
HETATM   21  C   UNL     1      45.241  48.494  67.297  1.00  0.00     0.269 C 
ENDBRANCH  17  18
ENDBRANCH  16  17
ENDBRANCH  13  16
ENDBRANCH  11  12
ENDBRANCH   6  11
BRANCH   7  22
HETATM   22  C   UNL     1      38.644  46.958  66.287  1.00  0.00    -0.030 C 
HETATM   23  C   UNL     1      37.383  47.494  66.615  1.00  0.00     0.010 C 
HETATM   24  C   UNL     1      37.263  48.816  67.051  1.00  0.00     0.008 C 
HETATM   25  C   UNL     1      38.397  49.619  67.215  1.00  0.00    -0.055 C 
HETATM   26  C   UNL     1      39.657  49.027  67.075  1.00  0.00     0.008 C 
HETATM   27  C   UNL     1      39.781  47.708  66.631  1.00  0.00     0.010 C 
BRANCH  25  28
HETATM   28  C   UNL     1      38.246  51.116  67.444  1.00  0.00     0.010 C 
HETATM   29  C   UNL     1      37.734  51.856  66.210  1.00  0.00     0.015 C 
HETATM   30  C   UNL     1      37.337  51.378  68.652  1.00  0.00     0.015 C 
ENDBRANCH  25  28
ENDBRANCH   7  22
BRANCH  10  31
HETATM   31  C   UNL     1      37.067  44.843  63.792  1.00  0.00     0.294 C 
HETATM   32  O   UNL     1      36.653  45.832  63.199  1.00  0.00    -0.259 OA
BRANCH  31  33
HETATM   33  O   UNL     1      37.074  43.558  63.415  1.00  0.00    -0.313 OA
BRANCH  33  34
HETATM   34  C   UNL     1      38.264  43.113  62.743  1.00  0.00     0.217 C 
BRANCH  34  35
HETATM   35  C   UNL     1      38.638  41.742  63.229  1.00  0.00    -0.034 A 
HETATM   36  C   UNL     1      39.190  40.807  62.343  1.00  0.00     0.009 A 
HETATM   37  C   UNL     1      39.547  39.535  62.790  1.00  0.00     0.001 A 
HETATM   38  C   UNL     1      39.349  39.183  64.123  1.00  0.00     0.000 A 
HETATM   39  C   UNL     1      38.792  40.101  65.011  1.00  0.00     0.001 A 
HETATM   40  C   UNL     1      38.434  41.374  64.567  1.00  0.00     0.009 A 
ENDBRANCH  34  35
ENDBRANCH  33  34
ENDBRANCH  31  33
ENDBRANCH  10  31
TORSDOF 11
ENDMDL
MODEL 5
REMARK VINA RESULT:      -7.5      5.423     12.150
REMARK  11 active torsions:
REMARK  status: ('A' for Active; 'I' for Inactive)
REMARK    1  A    between atoms: C_6  and  C_7 
REMARK    2  A    between atoms: C_7  and  C_8 
REMARK       I    between atoms: C_8  and  N_9 
REMARK    3  A    between atoms: N_9  and  C_10 
REMARK    4  A    between atoms: C_10  and  C_11 
REMARK    5  A    between atoms: C_11  and  N_12 
REMARK    6  A    between atoms: C_17  and  C_18 
REMARK    7  A    between atoms: C_21  and  C_22 
REMARK    8  A    between atoms: C_29  and  C_30 
REMARK    9  A    between atoms: C_30  and  O_31 
REMARK   10  A    between atoms: O_31  and  C_32 
REMARK   11  A    between atoms: C_32  and  C_33 
ROOT
HETATM    1  C   UNL     1      19.668  52.134  48.165  1.00  0.00     0.071 C 
HETATM    2  C   UNL     1      18.453  51.538  47.504  1.00  0.00     0.048 C 
HETATM    3  N   UNL     1      18.668  51.114  46.190  1.00  0.00    -0.229 NA
HETATM    4  C   UNL     1      17.903  50.161  45.771  1.00  0.00     0.170 C 
HETATM    5  N   UNL     1      16.734  49.604  46.626  1.00  0.00    -0.319 N 
HETATM    6  C   UNL     1      16.689  48.322  46.527  1.00  0.00     0.011 C 
HETATM    7  C   UNL     1      16.120  50.677  47.429  1.00  0.00     0.166 C 
HETATM    8  S   UNL     1      18.212  49.135  44.419  1.00  0.00    -0.086 SA
HETATM    9  C   UNL     1      17.343  47.762  45.273  1.00  0.00     0.135 C 
HETATM   10  C   UNL     1      17.276  51.314  48.134  1.00  0.00     0.069 C 
ENDROOT
BRANCH   6  11
HETATM   11  C   UNL     1      16.174  47.481  47.657  1.00  0.00     0.156 C 
BRANCH  11  12
HETATM   12  C   UNL     1      17.355  46.889  48.406  1.00  0.00     0.223 C 
HETATM   13  N   UNL     1      18.213  47.778  48.997  1.00  0.00    -0.359 N 
HETATM   14  H   UNL     1      17.946  48.762  49.100  1.00  0.00     0.162 HD
HETATM   15  O   UNL     1      17.609  45.689  48.344  1.00  0.00    -0.273 OA
BRANCH  13  16
HETATM   16  C   UNL     1      19.601  47.443  49.349  1.00  0.00     0.150 C 
BRANCH  16  17
HETATM   17  C   UNL     1      20.728  48.202  48.606  1.00  0.00     0.253 C 
BRANCH  17  18
HETATM   18  N   UNL     1      21.970  48.416  49.448  1.00  0.00    -0.077 N 
HETATM   19  H   UNL     1      21.715  48.177  50.428  1.00  0.00     0.279 HD
HETATM   20  C   UNL     1      23.125  47.519  49.099  1.00  0.00     0.269 C 
HETATM   21  C   UNL     1      22.400  49.858  49.466  1.00  0.00     0.269 C 
ENDBRANCH  17  18
ENDBRANCH  16  17
ENDBRANCH  13  16
ENDBRANCH  11  12
ENDBRANCH   6  11
BRANCH   7  22
HETATM   22  C   UNL     1      15.362  51.594  46.451  1.00  0.00    -0.030 C 
HETATM   23  C   UNL     1      15.410  52.991  46.627  1.00  0.00     0.010 C 
HETATM   24  C   UNL     1      14.441  53.815  46.048  1.00  0.00     0.008 C 
HETATM   25  C   UNL     1      13.432  53.274  45.245  1.00  0.00    -0.055 C 
HETATM   26  C   UNL     1      13.501  51.916  44.917  1.00  0.00     0.008 C 
HETATM   27  C   UNL     1      14.462  51.087  45.499  1.00  0.00     0.010 C 
BRANCH  25  28
HETATM   28  C   UNL     1      12.246  54.131  44.828  1.00  0.00     0.010 C 
HETATM   29  C   UNL     1      11.518  54.756  46.017  1.00  0.00     0.015 C 
HETATM   30  C   UNL     1      12.697  55.212  43.836  1.00  0.00     0.015 C 
ENDBRANCH  25  28
ENDBRANCH   7  22
BRANCH  10  31
HETATM   31  C   UNL     1      17.155  51.259  49.591  1.00  0.00     0.294 C 
HETATM   32  O   UNL     1      17.823  50.438  50.209  1.00  0.00    -0.259 OA
BRANCH  31  33
HETATM   33  O   UNL     1      16.148  52.036  50.014  1.00  0.00    -0.313 OA
BRANCH  33  34
HETATM   34  C   UNL     1      16.420  53.447  50.039  1.00  0.00     0.217 C 
BRANCH  34  35
HETATM   35  C   UNL     1      15.129  54.212  50.009  1.00  0.00    -0.034 A 
HETATM   36  C   UNL     1      13.907  53.529  49.947  1.00  0.00     0.009 A 
HETATM   37  C   UNL     1      12.703  54.234  49.928  1.00  0.00     0.001 A 
HETATM   38  C   UNL     1      12.710  55.627  49.962  1.00  0.00     0.000 A 
HETATM   39  C   UNL     1      13.919  56.317  50.013  1.00  0.00     0.001 A 
HETATM   40  C   UNL     1      15.124  55.615  50.033  1.00  0.00     0.009 A 
ENDBRANCH  34  35
ENDBRANCH  33  34
ENDBRANCH  31  33
ENDBRANCH  10  31
TORSDOF 11
ENDMDL
MODEL 6
REMARK VINA RESULT:      -7.5     19.613     23.085
REMARK  11 active torsions:
REMARK  status: ('A' for Active; 'I' for Inactive)
REMARK    1  A    between atoms: C_6  and  C_7 
REMARK    2  A    between atoms: C_7  and  C_8 
REMARK       I    between atoms: C_8  and  N_9 
REMARK    3  A    between atoms: N_9  and  C_10 
REMARK    4  A    between atoms: C_10  and  C_11 
REMARK    5  A    between atoms: C_11  and  N_12 
REMARK    6  A    between atoms: C_17  and  C_18 
REMARK    7  A    between atoms: C_21  and  C_22 
REMARK    8  A    between atoms: C_29  and  C_30 
REMARK    9  A    between atoms: C_30  and  O_31 
REMARK   10  A    between atoms: O_31  and  C_32 
REMARK   11  A    between atoms: C_32  and  C_33 
ROOT
HETATM    1  C   UNL     1      35.907  43.062  65.392  1.00  0.00     0.071 C 
HETATM    2  C   UNL     1      37.217  43.704  65.768  1.00  0.00     0.048 C 
HETATM    3  N   UNL     1      38.079  42.868  66.482  1.00  0.00    -0.229 NA
HETATM    4  C   UNL     1      39.339  43.126  66.369  1.00  0.00     0.170 C 
HETATM    5  N   UNL     1      39.863  44.362  65.591  1.00  0.00    -0.319 N 
HETATM    6  C   UNL     1      40.896  44.040  64.897  1.00  0.00     0.011 C 
HETATM    7  C   UNL     1      38.938  45.500  65.741  1.00  0.00     0.166 C 
HETATM    8  S   UNL     1      40.631  42.040  66.728  1.00  0.00    -0.086 SA
HETATM    9  C   UNL     1      41.636  42.809  65.398  1.00  0.00     0.135 C 
HETATM   10  C   UNL     1      37.602  44.938  65.368  1.00  0.00     0.069 C 
ENDROOT
BRANCH   6  11
HETATM   11  C   UNL     1      41.209  44.745  63.611  1.00  0.00     0.156 C 
BRANCH  11  12
HETATM   12  C   UNL     1      42.236  45.830  63.882  1.00  0.00     0.223 C 
HETATM   13  N   UNL     1      43.551  45.484  63.717  1.00  0.00    -0.359 N 
HETATM   14  H   UNL     1      43.799  44.615  63.236  1.00  0.00     0.162 HD
HETATM   15  O   UNL     1      41.906  46.905  64.378  1.00  0.00    -0.273 OA
BRANCH  13  16
HETATM   16  C   UNL     1      44.659  46.213  64.352  1.00  0.00     0.150 C 
BRANCH  16  17
HETATM   17  C   UNL     1      44.941  45.919  65.847  1.00  0.00     0.253 C 
BRANCH  17  18
HETATM   18  N   UNL     1      45.206  47.165  66.669  1.00  0.00    -0.077 N 
HETATM   19  H   UNL     1      45.769  46.869  67.491  1.00  0.00     0.279 HD
HETATM   20  C   UNL     1      46.028  48.212  65.970  1.00  0.00     0.269 C 
HETATM   21  C   UNL     1      43.939  47.759  67.219  1.00  0.00     0.269 C 
ENDBRANCH  17  18
ENDBRANCH  16  17
ENDBRANCH  13  16
ENDBRANCH  11  12
ENDBRANCH   6  11
BRANCH   7  22
HETATM   22  C   UNL     1      39.059  45.991  67.196  1.00  0.00    -0.030 C 
HETATM   23  C   UNL     1      37.897  46.155  67.975  1.00  0.00     0.010 C 
HETATM   24  C   UNL     1      37.912  46.964  69.114  1.00  0.00     0.008 C 
HETATM   25  C   UNL     1      39.092  47.590  69.529  1.00  0.00    -0.055 C 
HETATM   26  C   UNL     1      40.282  47.271  68.867  1.00  0.00     0.008 C 
HETATM   27  C   UNL     1      40.270  46.469  67.723  1.00  0.00     0.010 C 
BRANCH  25  28
HETATM   28  C   UNL     1      39.049  48.660  70.610  1.00  0.00     0.010 C 
HETATM   29  C   UNL     1      40.044  49.792  70.365  1.00  0.00     0.015 C 
HETATM   30  C   UNL     1      37.624  49.209  70.756  1.00  0.00     0.015 C 
ENDBRANCH  25  28
ENDBRANCH   7  22
BRANCH  10  31
HETATM   31  C   UNL     1      36.990  45.632  64.234  1.00  0.00     0.294 C 
HETATM   32  O   UNL     1      37.277  45.273  63.098  1.00  0.00    -0.259 OA
BRANCH  31  33
HETATM   33  O   UNL     1      36.319  46.716  64.646  1.00  0.00    -0.313 OA
BRANCH  33  34
HETATM   34  C   UNL     1      36.704  47.957  64.032  1.00  0.00     0.217 C 
BRANCH  34  35
HETATM   35  C   UNL     1      37.599  48.725  64.960  1.00  0.00    -0.034 A 
HETATM   36  C   UNL     1      37.093  49.237  66.163  1.00  0.00     0.009 A 
HETATM   37  C   UNL     1      37.922  49.944  67.034  1.00  0.00     0.001 A 
HETATM   38  C   UNL     1      39.260  50.154  66.708  1.00  0.00     0.000 A 
HETATM   39  C   UNL     1      39.772  49.658  65.510  1.00  0.00     0.001 A 
HETATM   40  C   UNL     1      38.946  48.950  64.638  1.00  0.00     0.009 A 
ENDBRANCH  34  35
ENDBRANCH  33  34
ENDBRANCH  31  33
ENDBRANCH  10  31
TORSDOF 11
ENDMDL
MODEL 7
REMARK VINA RESULT:      -7.3      9.359     12.919
REMARK  11 active torsions:
REMARK  status: ('A' for Active; 'I' for Inactive)
REMARK    1  A    between atoms: C_6  and  C_7 
REMARK    2  A    between atoms: C_7  and  C_8 
REMARK       I    between atoms: C_8  and  N_9 
REMARK    3  A    between atoms: N_9  and  C_10 
REMARK    4  A    between atoms: C_10  and  C_11 
REMARK    5  A    between atoms: C_11  and  N_12 
REMARK    6  A    between atoms: C_17  and  C_18 
REMARK    7  A    between atoms: C_21  and  C_22 
REMARK    8  A    between atoms: C_29  and  C_30 
REMARK    9  A    between atoms: C_30  and  O_31 
REMARK   10  A    between atoms: O_31  and  C_32 
REMARK   11  A    between atoms: C_32  and  C_33 
ROOT
HETATM    1  C   UNL     1      27.620  44.820  36.868  1.00  0.00     0.071 C 
HETATM    2  C   UNL     1      27.199  45.704  38.013  1.00  0.00     0.048 C 
HETATM    3  N   UNL     1      25.845  46.048  38.001  1.00  0.00    -0.229 NA
HETATM    4  C   UNL     1      25.321  46.317  39.150  1.00  0.00     0.170 C 
HETATM    5  N   UNL     1      26.166  46.379  40.450  1.00  0.00    -0.319 N 
HETATM    6  C   UNL     1      25.527  45.823  41.417  1.00  0.00     0.011 C 
HETATM    7  C   UNL     1      27.514  46.905  40.168  1.00  0.00     0.166 C 
HETATM    8  S   UNL     1      23.635  46.315  39.519  1.00  0.00    -0.086 SA
HETATM    9  C   UNL     1      24.019  45.766  41.229  1.00  0.00     0.135 C 
HETATM   10  C   UNL     1      28.008  46.059  39.038  1.00  0.00     0.069 C 
ENDROOT
BRANCH   6  11
HETATM   11  C   UNL     1      26.261  45.150  42.539  1.00  0.00     0.156 C 
BRANCH  11  12
HETATM   12  C   UNL     1      26.182  43.646  42.346  1.00  0.00     0.223 C 
HETATM   13  N   UNL     1      25.687  42.920  43.397  1.00  0.00    -0.359 N 
HETATM   14  H   UNL     1      25.208  43.391  44.170  1.00  0.00     0.162 HD
HETATM   15  O   UNL     1      26.686  43.104  41.365  1.00  0.00    -0.273 OA
BRANCH  13  16
HETATM   16  C   UNL     1      25.956  41.485  43.580  1.00  0.00     0.150 C 
BRANCH  16  17
HETATM   17  C   UNL     1      27.194  41.094  44.424  1.00  0.00     0.253 C 
BRANCH  17  18
HETATM   18  N   UNL     1      26.963  41.195  45.919  1.00  0.00    -0.077 N 
HETATM   19  H   UNL     1      26.758  42.193  46.125  1.00  0.00     0.279 HD
HETATM   20  C   UNL     1      25.774  40.423  46.421  1.00  0.00     0.269 C 
HETATM   21  C   UNL     1      28.197  40.847  46.706  1.00  0.00     0.269 C 
ENDBRANCH  17  18
ENDBRANCH  16  17
ENDBRANCH  13  16
ENDBRANCH  11  12
ENDBRANCH   6  11
BRANCH   7  22
HETATM   22  C   UNL     1      27.355  48.402  39.845  1.00  0.00    -0.030 C 
HETATM   23  C   UNL     1      27.536  48.853  38.522  1.00  0.00     0.010 C 
HETATM   24  C   UNL     1      27.808  50.198  38.259  1.00  0.00     0.008 C 
HETATM   25  C   UNL     1      27.861  51.132  39.299  1.00  0.00    -0.055 C 
HETATM   26  C   UNL     1      27.491  50.718  40.583  1.00  0.00     0.008 C 
HETATM   27  C   UNL     1      27.226  49.373  40.853  1.00  0.00     0.010 C 
BRANCH  25  28
HETATM   28  C   UNL     1      28.399  52.531  39.042  1.00  0.00     0.010 C 
HETATM   29  C   UNL     1      29.076  53.141  40.268  1.00  0.00     0.015 C 
HETATM   30  C   UNL     1      29.357  52.518  37.843  1.00  0.00     0.015 C 
ENDBRANCH  25  28
ENDBRANCH   7  22
BRANCH  10  31
HETATM   31  C   UNL     1      29.239  45.335  39.364  1.00  0.00     0.294 C 
HETATM   32  O   UNL     1      29.226  44.110  39.345  1.00  0.00    -0.259 OA
BRANCH  31  33
HETATM   33  O   UNL     1      30.175  46.175  39.826  1.00  0.00    -0.313 OA
BRANCH  33  34
HETATM   34  C   UNL     1      30.651  47.153  38.886  1.00  0.00     0.217 C 
BRANCH  34  35
HETATM   35  C   UNL     1      30.998  48.423  39.608  1.00  0.00    -0.034 A 
HETATM   36  C   UNL     1      30.865  48.499  41.002  1.00  0.00     0.009 A 
HETATM   37  C   UNL     1      31.193  49.673  41.679  1.00  0.00     0.001 A 
HETATM   38  C   UNL     1      31.648  50.784  40.971  1.00  0.00     0.000 A 
HETATM   39  C   UNL     1      31.775  50.722  39.585  1.00  0.00     0.001 A 
HETATM   40  C   UNL     1      31.448  49.549  38.904  1.00  0.00     0.009 A 
ENDBRANCH  34  35
ENDBRANCH  33  34
ENDBRANCH  31  33
ENDBRANCH  10  31
TORSDOF 11
ENDMDL
MODEL 8
REMARK VINA RESULT:      -7.3     20.013     23.004
REMARK  11 active torsions:
REMARK  status: ('A' for Active; 'I' for Inactive)
REMARK    1  A    between atoms: C_6  and  C_7 
REMARK    2  A    between atoms: C_7  and  C_8 
REMARK       I    between atoms: C_8  and  N_9 
REMARK    3  A    between atoms: N_9  and  C_10 
REMARK    4  A    between atoms: C_10  and  C_11 
REMARK    5  A    between atoms: C_11  and  N_12 
REMARK    6  A    between atoms: C_17  and  C_18 
REMARK    7  A    between atoms: C_21  and  C_22 
REMARK    8  A    between atoms: C_29  and  C_30 
REMARK    9  A    between atoms: C_30  and  O_31 
REMARK   10  A    between atoms: O_31  and  C_32 
REMARK   11  A    between atoms: C_32  and  C_33 
ROOT
HETATM    1  C   UNL     1      39.430  43.481  66.737  1.00  0.00     0.071 C 
HETATM    2  C   UNL     1      39.909  44.856  66.352  1.00  0.00     0.048 C 
HETATM    3  N   UNL     1      40.288  45.653  67.435  1.00  0.00    -0.229 NA
HETATM    4  C   UNL     1      41.165  46.567  67.184  1.00  0.00     0.170 C 
HETATM    5  N   UNL     1      41.676  46.850  65.746  1.00  0.00    -0.319 N 
HETATM    6  C   UNL     1      42.945  47.056  65.763  1.00  0.00     0.011 C 
HETATM    7  C   UNL     1      40.599  46.641  64.762  1.00  0.00     0.166 C 
HETATM    8  S   UNL     1      42.150  47.373  68.350  1.00  0.00    -0.086 SA
HETATM    9  C   UNL     1      43.495  47.508  67.107  1.00  0.00     0.135 C 
HETATM   10  C   UNL     1      40.077  45.274  65.076  1.00  0.00     0.069 C 
ENDROOT
BRANCH   6  11
HETATM   11  C   UNL     1      43.798  46.703  64.580  1.00  0.00     0.156 C 
BRANCH  11  12
HETATM   12  C   UNL     1      44.549  45.418  64.880  1.00  0.00     0.223 C 
HETATM   13  N   UNL     1      43.796  44.279  64.984  1.00  0.00    -0.359 N 
HETATM   14  H   UNL     1      42.822  44.273  64.666  1.00  0.00     0.162 HD
HETATM   15  O   UNL     1      45.742  45.434  65.174  1.00  0.00    -0.273 OA
BRANCH  13  16
HETATM   16  C   UNL     1      44.250  43.077  65.699  1.00  0.00     0.150 C 
BRANCH  16  17
HETATM   17  C   UNL     1      43.169  42.192  66.366  1.00  0.00     0.253 C 
BRANCH  17  18
HETATM   18  N   UNL     1      42.996  40.841  65.700  1.00  0.00    -0.077 N 
HETATM   19  H   UNL     1      43.383  40.929  64.738  1.00  0.00     0.279 HD
HETATM   20  C   UNL     1      43.766  39.723  66.346  1.00  0.00     0.269 C 
HETATM   21  C   UNL     1      41.548  40.471  65.539  1.00  0.00     0.269 C 
ENDBRANCH  17  18
ENDBRANCH  16  17
ENDBRANCH  13  16
ENDBRANCH  11  12
ENDBRANCH   6  11
BRANCH   7  22
HETATM   22  C   UNL     1      39.588  47.787  64.949  1.00  0.00    -0.030 C 
HETATM   23  C   UNL     1      40.033  49.123  64.897  1.00  0.00     0.010 C 
HETATM   24  C   UNL     1      39.268  50.150  65.456  1.00  0.00     0.008 C 
HETATM   25  C   UNL     1      38.025  49.879  66.037  1.00  0.00    -0.055 C 
HETATM   26  C   UNL     1      37.502  48.587  65.915  1.00  0.00     0.008 C 
HETATM   27  C   UNL     1      38.267  47.555  65.365  1.00  0.00     0.010 C 
BRANCH  25  28
HETATM   28  C   UNL     1      37.318  50.945  66.860  1.00  0.00     0.010 C 
HETATM   29  C   UNL     1      37.476  50.737  68.364  1.00  0.00     0.015 C 
HETATM   30  C   UNL     1      37.806  52.341  66.449  1.00  0.00     0.015 C 
ENDBRANCH  25  28
ENDBRANCH   7  22
BRANCH  10  31
HETATM   31  C   UNL     1      40.188  44.349  63.946  1.00  0.00     0.294 C 
HETATM   32  O   UNL     1      41.145  43.585  63.901  1.00  0.00    -0.259 OA
BRANCH  31  33
HETATM   33  O   UNL     1      39.270  44.630  63.011  1.00  0.00    -0.313 OA
BRANCH  33  34
HETATM   34  C   UNL     1      38.352  43.568  62.702  1.00  0.00     0.217 C 
BRANCH  34  35
HETATM   35  C   UNL     1      37.293  43.489  63.764  1.00  0.00    -0.034 A 
HETATM   36  C   UNL     1      36.643  44.653  64.197  1.00  0.00     0.009 A 
HETATM   37  C   UNL     1      35.652  44.585  65.177  1.00  0.00     0.001 A 
HETATM   38  C   UNL     1      35.309  43.358  65.739  1.00  0.00     0.000 A 
HETATM   39  C   UNL     1      35.957  42.196  65.324  1.00  0.00     0.001 A 
HETATM   40  C   UNL     1      36.947  42.260  64.344  1.00  0.00     0.009 A 
ENDBRANCH  34  35
ENDBRANCH  33  34
ENDBRANCH  31  33
ENDBRANCH  10  31
TORSDOF 11
ENDMDL
MODEL 9
REMARK VINA RESULT:      -7.2     20.512     23.418
REMARK  11 active torsions:
REMARK  status: ('A' for Active; 'I' for Inactive)
REMARK    1  A    between atoms: C_6  and  C_7 
REMARK    2  A    between atoms: C_7  and  C_8 
REMARK       I    between atoms: C_8  and  N_9 
REMARK    3  A    between atoms: N_9  and  C_10 
REMARK    4  A    between atoms: C_10  and  C_11 
REMARK    5  A    between atoms: C_11  and  N_12 
REMARK    6  A    between atoms: C_17  and  C_18 
REMARK    7  A    between atoms: C_21  and  C_22 
REMARK    8  A    between atoms: C_29  and  C_30 
REMARK    9  A    between atoms: C_30  and  O_31 
REMARK   10  A    between atoms: O_31  and  C_32 
REMARK   11  A    between atoms: C_32  and  C_33 
ROOT
HETATM    1  C   UNL     1      39.447  43.609  66.671  1.00  0.00     0.071 C 
HETATM    2  C   UNL     1      39.932  44.994  66.334  1.00  0.00     0.048 C 
HETATM    3  N   UNL     1      40.291  45.760  67.446  1.00  0.00    -0.229 NA
HETATM    4  C   UNL     1      41.172  46.681  67.237  1.00  0.00     0.170 C 
HETATM    5  N   UNL     1      41.709  47.005  65.818  1.00  0.00    -0.319 N 
HETATM    6  C   UNL     1      42.977  47.210  65.864  1.00  0.00     0.011 C 
HETATM    7  C   UNL     1      40.650  46.823  64.808  1.00  0.00     0.166 C 
HETATM    8  S   UNL     1      42.135  47.453  68.443  1.00  0.00    -0.086 SA
HETATM    9  C   UNL     1      43.502  47.625  67.230  1.00  0.00     0.135 C 
HETATM   10  C   UNL     1      40.123  45.448  65.074  1.00  0.00     0.069 C 
ENDROOT
BRANCH   6  11
HETATM   11  C   UNL     1      43.852  46.892  64.687  1.00  0.00     0.156 C 
BRANCH  11  12
HETATM   12  C   UNL     1      44.600  45.601  64.966  1.00  0.00     0.223 C 
HETATM   13  N   UNL     1      43.851  44.454  64.998  1.00  0.00    -0.359 N 
HETATM   14  H   UNL     1      42.890  44.455  64.645  1.00  0.00     0.162 HD
HETATM   15  O   UNL     1      45.781  45.612  65.303  1.00  0.00    -0.273 OA
BRANCH  13  16
HETATM   16  C   UNL     1      44.288  43.228  65.683  1.00  0.00     0.150 C 
BRANCH  16  17
HETATM   17  C   UNL     1      43.480  42.779  66.926  1.00  0.00     0.253 C 
BRANCH  17  18
HETATM   18  N   UNL     1      43.366  43.850  67.993  1.00  0.00    -0.077 N 
HETATM   19  H   UNL     1      42.931  44.679  67.541  1.00  0.00     0.279 HD
HETATM   20  C   UNL     1      42.465  43.494  69.143  1.00  0.00     0.269 C 
HETATM   21  C   UNL     1      44.713  44.300  68.488  1.00  0.00     0.269 C 
ENDBRANCH  17  18
ENDBRANCH  16  17
ENDBRANCH  13  16
ENDBRANCH  11  12
ENDBRANCH   6  11
BRANCH   7  22
HETATM   22  C   UNL     1      39.635  47.964  65.010  1.00  0.00    -0.030 C 
HETATM   23  C   UNL     1      40.083  49.300  65.031  1.00  0.00     0.010 C 
HETATM   24  C   UNL     1      39.301  50.304  65.606  1.00  0.00     0.008 C 
HETATM   25  C   UNL     1      38.038  50.012  66.132  1.00  0.00    -0.055 C 
HETATM   26  C   UNL     1      37.518  48.728  65.936  1.00  0.00     0.008 C 
HETATM   27  C   UNL     1      38.299  47.719  65.369  1.00  0.00     0.010 C 
BRANCH  25  28
HETATM   28  C   UNL     1      37.304  51.044  66.974  1.00  0.00     0.010 C 
HETATM   29  C   UNL     1      37.448  50.797  68.474  1.00  0.00     0.015 C 
HETATM   30  C   UNL     1      37.776  52.458  66.608  1.00  0.00     0.015 C 
ENDBRANCH  25  28
ENDBRANCH   7  22
BRANCH  10  31
HETATM   31  C   UNL     1      40.255  44.556  63.921  1.00  0.00     0.294 C 
HETATM   32  O   UNL     1      41.370  44.152  63.612  1.00  0.00    -0.259 OA
BRANCH  31  33
HETATM   33  O   UNL     1      39.097  44.467  63.254  1.00  0.00    -0.313 OA
BRANCH  33  34
HETATM   34  C   UNL     1      38.965  43.328  62.386  1.00  0.00     0.217 C 
BRANCH  34  35
HETATM   35  C   UNL     1      38.745  42.089  63.206  1.00  0.00    -0.034 A 
HETATM   36  C   UNL     1      39.613  40.996  63.074  1.00  0.00     0.009 A 
HETATM   37  C   UNL     1      39.419  39.845  63.839  1.00  0.00     0.001 A 
HETATM   38  C   UNL     1      38.354  39.773  64.734  1.00  0.00     0.000 A 
HETATM   39  C   UNL     1      37.479  40.850  64.865  1.00  0.00     0.001 A 
HETATM   40  C   UNL     1      37.671  42.002  64.103  1.00  0.00     0.009 A 
ENDBRANCH  34  35
ENDBRANCH  33  34
ENDBRANCH  31  33
ENDBRANCH  10  31
TORSDOF 11
ENDMDL
MODEL 10
REMARK VINA RESULT:      -7.2      4.062     10.016
REMARK  11 active torsions:
REMARK  status: ('A' for Active; 'I' for Inactive)
REMARK    1  A    between atoms: C_6  and  C_7 
REMARK    2  A    between atoms: C_7  and  C_8 
REMARK       I    between atoms: C_8  and  N_9 
REMARK    3  A    between atoms: N_9  and  C_10 
REMARK    4  A    between atoms: C_10  and  C_11 
REMARK    5  A    between atoms: C_11  and  N_12 
REMARK    6  A    between atoms: C_17  and  C_18 
REMARK    7  A    between atoms: C_21  and  C_22 
REMARK    8  A    between atoms: C_29  and  C_30 
REMARK    9  A    between atoms: C_30  and  O_31 
REMARK   10  A    between atoms: O_31  and  C_32 
REMARK   11  A    between atoms: C_32  and  C_33 
ROOT
HETATM    1  C   UNL     1      17.831  45.732  47.962  1.00  0.00     0.071 C 
HETATM    2  C   UNL     1      18.028  47.224  47.885  1.00  0.00     0.048 C 
HETATM    3  N   UNL     1      17.923  47.878  49.115  1.00  0.00    -0.229 NA
HETATM    4  C   UNL     1      18.577  48.986  49.223  1.00  0.00     0.170 C 
HETATM    5  N   UNL     1      19.331  49.621  48.025  1.00  0.00    -0.319 N 
HETATM    6  C   UNL     1      20.466  50.084  48.415  1.00  0.00     0.011 C 
HETATM    7  C   UNL     1      18.611  49.366  46.764  1.00  0.00     0.166 C 
HETATM    8  S   UNL     1      19.017  49.762  50.701  1.00  0.00    -0.086 SA
HETATM    9  C   UNL     1      20.543  50.397  49.902  1.00  0.00     0.135 C 
HETATM   10  C   UNL     1      18.388  47.887  46.762  1.00  0.00     0.069 C 
ENDROOT
BRANCH   6  11
HETATM   11  C   UNL     1      21.638  50.136  47.482  1.00  0.00     0.156 C 
BRANCH  11  12
HETATM   12  C   UNL     1      22.622  49.046  47.867  1.00  0.00     0.223 C 
HETATM   13  N   UNL     1      22.099  47.800  48.093  1.00  0.00    -0.359 N 
HETATM   14  H   UNL     1      21.139  47.584  47.809  1.00  0.00     0.162 HD
HETATM   15  O   UNL     1      23.795  49.310  48.120  1.00  0.00    -0.273 OA
BRANCH  13  16
HETATM   16  C   UNL     1      22.783  46.774  48.895  1.00  0.00     0.150 C 
BRANCH  16  17
HETATM   17  C   UNL     1      22.249  45.323  48.802  1.00  0.00     0.253 C 
BRANCH  17  18
HETATM   18  N   UNL     1      22.735  44.427  49.923  1.00  0.00    -0.077 N 
HETATM   19  H   UNL     1      22.048  44.516  50.698  1.00  0.00     0.279 HD
HETATM   20  C   UNL     1      22.773  42.963  49.581  1.00  0.00     0.269 C 
HETATM   21  C   UNL     1      24.057  44.880  50.478  1.00  0.00     0.269 C 
ENDBRANCH  17  18
ENDBRANCH  16  17
ENDBRANCH  13  16
ENDBRANCH  11  12
ENDBRANCH   6  11
BRANCH   7  22
HETATM   22  C   UNL     1      17.331  50.222  46.796  1.00  0.00    -0.030 C 
HETATM   23  C   UNL     1      16.102  49.652  46.409  1.00  0.00     0.010 C 
HETATM   24  C   UNL     1      15.029  50.463  46.031  1.00  0.00     0.008 C 
HETATM   25  C   UNL     1      15.138  51.857  46.074  1.00  0.00    -0.055 C 
HETATM   26  C   UNL     1      16.288  52.416  46.642  1.00  0.00     0.008 C 
HETATM   27  C   UNL     1      17.366  51.609  47.012  1.00  0.00     0.010 C 
BRANCH  25  28
HETATM   28  C   UNL     1      14.069  52.726  45.430  1.00  0.00     0.010 C 
HETATM   29  C   UNL     1      14.644  53.962  44.742  1.00  0.00     0.015 C 
HETATM   30  C   UNL     1      13.231  51.897  44.448  1.00  0.00     0.015 C 
ENDBRANCH  25  28
ENDBRANCH   7  22
BRANCH  10  31
HETATM   31  C   UNL     1      18.997  47.222  45.609  1.00  0.00     0.294 C 
HETATM   32  O   UNL     1      20.177  46.897  45.669  1.00  0.00    -0.259 OA
BRANCH  31  33
HETATM   33  O   UNL     1      18.165  47.239  44.558  1.00  0.00    -0.313 OA
BRANCH  33  34
HETATM   34  C   UNL     1      18.670  47.883  43.376  1.00  0.00     0.217 C 
BRANCH  34  35
HETATM   35  C   UNL     1      17.930  49.170  43.146  1.00  0.00    -0.034 A 
HETATM   36  C   UNL     1      18.572  50.398  43.356  1.00  0.00     0.009 A 
HETATM   37  C   UNL     1      17.893  51.596  43.136  1.00  0.00     0.001 A 
HETATM   38  C   UNL     1      16.566  51.579  42.711  1.00  0.00     0.000 A 
HETATM   39  C   UNL     1      15.915  50.363  42.509  1.00  0.00     0.001 A 
HETATM   40  C   UNL     1      16.592  49.163  42.727  1.00  0.00     0.009 A 
ENDBRANCH  34  35
ENDBRANCH  33  34
ENDBRANCH  31  33
ENDBRANCH  10  31
TORSDOF 11
ENDMDL
