MODEL 1
REMARK VINA RESULT:      -9.0      0.000      0.000
REMARK  4 active torsions:
REMARK  status: ('A' for Active; 'I' for Inactive)
REMARK    1  A    between atoms: C_3  and  C_4 
REMARK    2  A    between atoms: C_5  and  C_6 
REMARK       I    between atoms: C_6  and  N_7 
REMARK    3  A    between atoms: N_7  and  C_8 
REMARK    4  A    between atoms: C_15  and  C_16 
REMARK       I    between atoms: C_16  and  N_17 
ROOT
HETATM    1  C   UNL     1      25.525  47.105  50.804  1.00  0.00     0.035 A 
HETATM    2  C   UNL     1      24.477  47.633  50.037  1.00  0.00     0.046 A 
HETATM    3  C   UNL     1      24.750  48.638  49.082  1.00  0.00     0.030 A 
HETATM    4  C   UNL     1      26.061  49.065  48.913  1.00  0.00     0.063 A 
HETATM    5  N   UNL     1      26.010  50.021  47.938  1.00  0.00    -0.277 N 
HETATM    6  H   UNL     1      26.786  50.549  47.554  1.00  0.00     0.189 HD
HETATM    7  N   UNL     1      24.778  50.271  47.468  1.00  0.00    -0.168 NA
HETATM    8  C   UNL     1      23.986  49.426  48.167  1.00  0.00     0.156 A 
HETATM    9  C   UNL     1      27.131  48.554  49.650  1.00  0.00     0.034 A 
HETATM   10  C   UNL     1      26.832  47.572  50.603  1.00  0.00     0.032 A 
ENDROOT
BRANCH   1  11
HETATM   11  N   UNL     1      25.347  46.136  51.814  1.00  0.00    -0.327 N 
HETATM   12  C   UNL     1      26.087  44.992  52.021  1.00  0.00     0.227 C 
HETATM   13  O   UNL     1      27.084  44.639  51.408  1.00  0.00    -0.273 OA
HETATM   14  H   UNL     1      24.588  46.303  52.455  1.00  0.00     0.169 HD
BRANCH  12  15
HETATM   15  C   UNL     1      25.563  44.077  53.074  1.00  0.00     0.087 A 
HETATM   16  C   UNL     1      26.323  43.767  54.354  1.00  0.00     0.034 A 
HETATM   17  C   UNL     1      25.001  44.507  54.398  1.00  0.00     0.025 A 
BRANCH  16  18
HETATM   18  C   UNL     1      27.578  44.489  54.815  1.00  0.00    -0.031 A 
HETATM   19  C   UNL     1      27.518  45.818  55.277  1.00  0.00     0.009 A 
HETATM   20  C   UNL     1      28.660  46.513  55.688  1.00  0.00     0.001 A 
HETATM   21  C   UNL     1      29.907  45.905  55.629  1.00  0.00     0.002 A 
HETATM   22  C   UNL     1      30.012  44.605  55.146  1.00  0.00     0.024 A 
HETATM   23  C   UNL     1      28.866  43.911  54.738  1.00  0.00     0.040 A 
HETATM   24 CL   UNL     1      29.099  42.319  54.098  1.00  0.00    -0.084 Cl
ENDBRANCH  16  18
ENDBRANCH  12  15
ENDBRANCH   1  11
BRANCH   8  25
HETATM   25  C   UNL     1      22.531  49.398  47.956  1.00  0.00     0.270 C 
HETATM   26  N   UNL     1      21.877  50.498  48.441  1.00  0.00    -0.365 N 
HETATM   27  H   UNL     1      22.418  51.219  48.906  1.00  0.00     0.159 HD
HETATM   28  H   UNL     1      20.875  50.558  48.364  1.00  0.00     0.159 HD
HETATM   29  O   UNL     1      21.919  48.488  47.409  1.00  0.00    -0.266 OA
ENDBRANCH   8  25
TORSDOF 4
ENDMDL
MODEL 2
REMARK VINA RESULT:      -8.8      5.166      7.807
REMARK  4 active torsions:
REMARK  status: ('A' for Active; 'I' for Inactive)
REMARK    1  A    between atoms: C_3  and  C_4 
REMARK    2  A    between atoms: C_5  and  C_6 
REMARK       I    between atoms: C_6  and  N_7 
REMARK    3  A    between atoms: N_7  and  C_8 
REMARK    4  A    between atoms: C_15  and  C_16 
REMARK       I    between atoms: C_16  and  N_17 
ROOT
HETATM    1  C   UNL     1      26.709  41.481  50.341  1.00  0.00     0.035 A 
HETATM    2  C   UNL     1      27.529  40.373  50.601  1.00  0.00     0.046 A 
HETATM    3  C   UNL     1      28.037  39.613  49.523  1.00  0.00     0.030 A 
HETATM    4  C   UNL     1      27.725  39.999  48.226  1.00  0.00     0.063 A 
HETATM    5  N   UNL     1      28.350  39.092  47.417  1.00  0.00    -0.277 N 
HETATM    6  H   UNL     1      28.344  39.066  46.403  1.00  0.00     0.189 HD
HETATM    7  N   UNL     1      29.026  38.135  48.072  1.00  0.00    -0.168 NA
HETATM    8  C   UNL     1      28.841  38.442  49.376  1.00  0.00     0.156 A 
HETATM    9  C   UNL     1      26.923  41.102  47.929  1.00  0.00     0.034 A 
HETATM   10  C   UNL     1      26.416  41.827  49.014  1.00  0.00     0.032 A 
ENDROOT
BRANCH   1  11
HETATM   11  N   UNL     1      26.116  42.271  51.348  1.00  0.00    -0.327 N 
HETATM   12  C   UNL     1      26.427  43.570  51.690  1.00  0.00     0.227 C 
HETATM   13  O   UNL     1      27.230  44.305  51.135  1.00  0.00    -0.273 OA
HETATM   14  H   UNL     1      25.380  41.830  51.878  1.00  0.00     0.169 HD
BRANCH  12  15
HETATM   15  C   UNL     1      25.736  44.090  52.904  1.00  0.00     0.087 A 
HETATM   16  C   UNL     1      26.406  44.172  54.266  1.00  0.00     0.034 A 
HETATM   17  C   UNL     1      25.981  45.429  53.536  1.00  0.00     0.025 A 
BRANCH  16  18
HETATM   18  C   UNL     1      27.887  43.941  54.521  1.00  0.00    -0.031 A 
HETATM   19  C   UNL     1      28.508  42.740  54.129  1.00  0.00     0.009 A 
HETATM   20  C   UNL     1      29.864  42.494  54.369  1.00  0.00     0.001 A 
HETATM   21  C   UNL     1      30.639  43.437  55.032  1.00  0.00     0.002 A 
HETATM   22  C   UNL     1      30.053  44.621  55.466  1.00  0.00     0.024 A 
HETATM   23  C   UNL     1      28.696  44.865  55.222  1.00  0.00     0.040 A 
HETATM   24 CL   UNL     1      28.039  46.341  55.847  1.00  0.00    -0.084 Cl
ENDBRANCH  16  18
ENDBRANCH  12  15
ENDBRANCH   1  11
BRANCH   8  25
HETATM   25  C   UNL     1      29.420  37.611  50.442  1.00  0.00     0.270 C 
HETATM   26  N   UNL     1      28.624  36.567  50.829  1.00  0.00    -0.365 N 
HETATM   27  H   UNL     1      27.721  36.454  50.382  1.00  0.00     0.159 HD
HETATM   28  H   UNL     1      28.927  35.956  51.570  1.00  0.00     0.159 HD
HETATM   29  O   UNL     1      30.509  37.806  50.970  1.00  0.00    -0.266 OA
ENDBRANCH   8  25
TORSDOF 4
ENDMDL
MODEL 3
REMARK VINA RESULT:      -8.8      4.838      6.620
REMARK  4 active torsions:
REMARK  status: ('A' for Active; 'I' for Inactive)
REMARK    1  A    between atoms: C_3  and  C_4 
REMARK    2  A    between atoms: C_5  and  C_6 
REMARK       I    between atoms: C_6  and  N_7 
REMARK    3  A    between atoms: N_7  and  C_8 
REMARK    4  A    between atoms: C_15  and  C_16 
REMARK       I    between atoms: C_16  and  N_17 
ROOT
HETATM    1  C   UNL     1      26.455  43.909  52.142  1.00  0.00     0.035 A 
HETATM    2  C   UNL     1      27.238  42.822  51.726  1.00  0.00     0.046 A 
HETATM    3  C   UNL     1      26.670  41.832  50.894  1.00  0.00     0.030 A 
HETATM    4  C   UNL     1      25.348  41.972  50.491  1.00  0.00     0.063 A 
HETATM    5  N   UNL     1      25.089  40.883  49.708  1.00  0.00    -0.277 N 
HETATM    6  H   UNL     1      24.219  40.658  49.237  1.00  0.00     0.189 HD
HETATM    7  N   UNL     1      26.119  40.032  49.579  1.00  0.00    -0.168 NA
HETATM    8  C   UNL     1      27.105  40.603  50.309  1.00  0.00     0.156 A 
HETATM    9  C   UNL     1      24.543  43.046  50.875  1.00  0.00     0.034 A 
HETATM   10  C   UNL     1      25.123  44.004  51.715  1.00  0.00     0.032 A 
ENDROOT
BRANCH   1  11
HETATM   11  N   UNL     1      26.917  44.922  53.010  1.00  0.00    -0.327 N 
HETATM   12  C   UNL     1      26.783  44.979  54.380  1.00  0.00     0.227 C 
HETATM   13  O   UNL     1      26.299  44.126  55.109  1.00  0.00    -0.273 OA
HETATM   14  H   UNL     1      27.399  45.691  52.572  1.00  0.00     0.169 HD
BRANCH  12  15
HETATM   15  C   UNL     1      27.234  46.253  55.010  1.00  0.00     0.087 A 
HETATM   16  C   UNL     1      28.488  46.355  55.864  1.00  0.00     0.034 A 
HETATM   17  C   UNL     1      28.387  47.092  54.544  1.00  0.00     0.025 A 
BRANCH  16  18
HETATM   18  C   UNL     1      29.531  45.259  56.010  1.00  0.00    -0.031 A 
HETATM   19  C   UNL     1      29.680  44.268  55.020  1.00  0.00     0.009 A 
HETATM   20  C   UNL     1      30.617  43.237  55.138  1.00  0.00     0.001 A 
HETATM   21  C   UNL     1      31.424  43.151  56.266  1.00  0.00     0.002 A 
HETATM   22  C   UNL     1      31.283  44.091  57.281  1.00  0.00     0.024 A 
HETATM   23  C   UNL     1      30.345  45.124  57.158  1.00  0.00     0.040 A 
HETATM   24 CL   UNL     1      30.199  46.215  58.495  1.00  0.00    -0.084 Cl
ENDBRANCH  16  18
ENDBRANCH  12  15
ENDBRANCH   1  11
BRANCH   8  25
HETATM   25  C   UNL     1      28.421  39.963  50.440  1.00  0.00     0.270 C 
HETATM   26  N   UNL     1      28.938  40.004  51.707  1.00  0.00    -0.365 N 
HETATM   27  H   UNL     1      28.404  40.468  52.433  1.00  0.00     0.159 HD
HETATM   28  H   UNL     1      29.847  39.611  51.888  1.00  0.00     0.159 HD
HETATM   29  O   UNL     1      29.039  39.437  49.521  1.00  0.00    -0.266 OA
ENDBRANCH   8  25
TORSDOF 4
ENDMDL
MODEL 4
REMARK VINA RESULT:      -8.7      4.722      9.320
REMARK  4 active torsions:
REMARK  status: ('A' for Active; 'I' for Inactive)
REMARK    1  A    between atoms: C_3  and  C_4 
REMARK    2  A    between atoms: C_5  and  C_6 
REMARK       I    between atoms: C_6  and  N_7 
REMARK    3  A    between atoms: N_7  and  C_8 
REMARK    4  A    between atoms: C_15  and  C_16 
REMARK       I    between atoms: C_16  and  N_17 
ROOT
HETATM    1  C   UNL     1      22.322  49.017  49.208  1.00  0.00     0.035 A 
HETATM    2  C   UNL     1      23.476  48.294  49.539  1.00  0.00     0.046 A 
HETATM    3  C   UNL     1      24.732  48.729  49.060  1.00  0.00     0.030 A 
HETATM    4  C   UNL     1      24.792  49.880  48.285  1.00  0.00     0.063 A 
HETATM    5  N   UNL     1      26.114  50.045  47.980  1.00  0.00    -0.277 N 
HETATM    6  H   UNL     1      26.529  50.788  47.429  1.00  0.00     0.189 HD
HETATM    7  N   UNL     1      26.921  49.091  48.470  1.00  0.00    -0.168 NA
HETATM    8  C   UNL     1      26.082  48.268  49.139  1.00  0.00     0.156 A 
HETATM    9  C   UNL     1      23.666  50.631  47.946  1.00  0.00     0.034 A 
HETATM   10  C   UNL     1      22.430  50.169  48.417  1.00  0.00     0.032 A 
ENDROOT
BRANCH   1  11
HETATM   11  N   UNL     1      21.019  48.636  49.598  1.00  0.00    -0.327 N 
HETATM   12  C   UNL     1      20.087  47.946  48.853  1.00  0.00     0.227 C 
HETATM   13  O   UNL     1      20.242  47.471  47.737  1.00  0.00    -0.273 OA
HETATM   14  H   UNL     1      20.743  48.904  50.529  1.00  0.00     0.169 HD
BRANCH  12  15
HETATM   15  C   UNL     1      18.738  47.827  49.475  1.00  0.00     0.087 A 
HETATM   16  C   UNL     1      17.635  48.851  49.260  1.00  0.00     0.034 A 
HETATM   17  C   UNL     1      17.482  47.430  48.756  1.00  0.00     0.025 A 
BRANCH  16  18
HETATM   18  C   UNL     1      17.685  49.982  48.246  1.00  0.00    -0.031 A 
HETATM   19  C   UNL     1      17.160  49.815  46.951  1.00  0.00     0.009 A 
HETATM   20  C   UNL     1      17.212  50.832  45.992  1.00  0.00     0.001 A 
HETATM   21  C   UNL     1      17.813  52.047  46.294  1.00  0.00     0.002 A 
HETATM   22  C   UNL     1      18.374  52.239  47.552  1.00  0.00     0.024 A 
HETATM   23  C   UNL     1      18.318  51.219  48.510  1.00  0.00     0.040 A 
HETATM   24 CL   UNL     1      19.092  51.526  50.029  1.00  0.00    -0.084 Cl
ENDBRANCH  16  18
ENDBRANCH  12  15
ENDBRANCH   1  11
BRANCH   8  25
HETATM   25  C   UNL     1      26.581  47.065  49.821  1.00  0.00     0.270 C 
HETATM   26  N   UNL     1      26.252  46.999  51.148  1.00  0.00    -0.365 N 
HETATM   27  H   UNL     1      25.721  47.762  51.555  1.00  0.00     0.159 HD
HETATM   28  H   UNL     1      26.571  46.222  51.704  1.00  0.00     0.159 HD
HETATM   29  O   UNL     1      27.244  46.182  49.289  1.00  0.00    -0.266 OA
ENDBRANCH   8  25
TORSDOF 4
ENDMDL
MODEL 5
REMARK VINA RESULT:      -8.2     11.242     14.214
REMARK  4 active torsions:
REMARK  status: ('A' for Active; 'I' for Inactive)
REMARK    1  A    between atoms: C_3  and  C_4 
REMARK    2  A    between atoms: C_5  and  C_6 
REMARK       I    between atoms: C_6  and  N_7 
REMARK    3  A    between atoms: N_7  and  C_8 
REMARK    4  A    between atoms: C_15  and  C_16 
REMARK       I    between atoms: C_16  and  N_17 
ROOT
HETATM    1  C   UNL     1      32.205  50.729  42.859  1.00  0.00     0.035 A 
HETATM    2  C   UNL     1      33.139  50.712  41.814  1.00  0.00     0.046 A 
HETATM    3  C   UNL     1      34.393  51.338  41.990  1.00  0.00     0.030 A 
HETATM    4  C   UNL     1      34.677  51.940  43.209  1.00  0.00     0.063 A 
HETATM    5  N   UNL     1      35.940  52.445  43.079  1.00  0.00    -0.277 N 
HETATM    6  H   UNL     1      36.474  52.950  43.778  1.00  0.00     0.189 HD
HETATM    7  N   UNL     1      36.499  52.245  41.876  1.00  0.00    -0.168 NA
HETATM    8  C   UNL     1      35.555  51.562  41.189  1.00  0.00     0.156 A 
HETATM    9  C   UNL     1      33.777  51.966  44.275  1.00  0.00     0.034 A 
HETATM   10  C   UNL     1      32.533  51.356  44.070  1.00  0.00     0.032 A 
ENDROOT
BRANCH   1  11
HETATM   11  N   UNL     1      30.910  50.175  42.764  1.00  0.00    -0.327 N 
HETATM   12  C   UNL     1      30.546  48.988  42.166  1.00  0.00     0.227 C 
HETATM   13  O   UNL     1      31.290  48.156  41.667  1.00  0.00    -0.273 OA
HETATM   14  H   UNL     1      30.168  50.715  43.181  1.00  0.00     0.169 HD
BRANCH  12  15
HETATM   15  C   UNL     1      29.078  48.741  42.083  1.00  0.00     0.087 A 
HETATM   16  C   UNL     1      28.159  49.524  41.159  1.00  0.00     0.034 A 
HETATM   17  C   UNL     1      28.377  48.039  40.957  1.00  0.00     0.025 A 
BRANCH  16  18
HETATM   18  C   UNL     1      28.626  50.484  40.077  1.00  0.00    -0.031 A 
HETATM   19  C   UNL     1      29.398  50.027  38.992  1.00  0.00     0.009 A 
HETATM   20  C   UNL     1      29.859  50.891  37.993  1.00  0.00     0.001 A 
HETATM   21  C   UNL     1      29.579  52.250  38.062  1.00  0.00     0.002 A 
HETATM   22  C   UNL     1      28.849  52.746  39.137  1.00  0.00     0.024 A 
HETATM   23  C   UNL     1      28.387  51.877  40.133  1.00  0.00     0.040 A 
HETATM   24 CL   UNL     1      27.535  52.588  41.463  1.00  0.00    -0.084 Cl
ENDBRANCH  16  18
ENDBRANCH  12  15
ENDBRANCH   1  11
BRANCH   8  25
HETATM   25  C   UNL     1      35.775  51.156  39.794  1.00  0.00     0.270 C 
HETATM   26  N   UNL     1      36.395  49.943  39.657  1.00  0.00    -0.365 N 
HETATM   27  H   UNL     1      36.661  49.438  40.495  1.00  0.00     0.159 HD
HETATM   28  H   UNL     1      36.609  49.592  38.738  1.00  0.00     0.159 HD
HETATM   29  O   UNL     1      35.457  51.818  38.812  1.00  0.00    -0.266 OA
ENDBRANCH   8  25
TORSDOF 4
ENDMDL
MODEL 6
REMARK VINA RESULT:      -8.2      4.592      7.294
REMARK  4 active torsions:
REMARK  status: ('A' for Active; 'I' for Inactive)
REMARK    1  A    between atoms: C_3  and  C_4 
REMARK    2  A    between atoms: C_5  and  C_6 
REMARK       I    between atoms: C_6  and  N_7 
REMARK    3  A    between atoms: N_7  and  C_8 
REMARK    4  A    between atoms: C_15  and  C_16 
REMARK       I    between atoms: C_16  and  N_17 
ROOT
HETATM    1  C   UNL     1      26.916  41.941  51.620  1.00  0.00     0.035 A 
HETATM    2  C   UNL     1      26.867  41.036  50.551  1.00  0.00     0.046 A 
HETATM    3  C   UNL     1      27.838  40.013  50.459  1.00  0.00     0.030 A 
HETATM    4  C   UNL     1      28.809  39.919  51.448  1.00  0.00     0.063 A 
HETATM    5  N   UNL     1      29.586  38.853  51.094  1.00  0.00    -0.277 N 
HETATM    6  H   UNL     1      30.392  38.488  51.591  1.00  0.00     0.189 HD
HETATM    7  N   UNL     1      29.222  38.253  49.950  1.00  0.00    -0.168 NA
HETATM    8  C   UNL     1      28.142  38.960  49.543  1.00  0.00     0.156 A 
HETATM    9  C   UNL     1      28.881  40.795  52.533  1.00  0.00     0.034 A 
HETATM   10  C   UNL     1      27.919  41.812  52.591  1.00  0.00     0.032 A 
ENDROOT
BRANCH   1  11
HETATM   11  N   UNL     1      26.022  43.023  51.772  1.00  0.00    -0.327 N 
HETATM   12  C   UNL     1      26.221  44.336  51.403  1.00  0.00     0.227 C 
HETATM   13  O   UNL     1      27.185  44.795  50.807  1.00  0.00    -0.273 OA
HETATM   14  H   UNL     1      25.138  42.806  52.204  1.00  0.00     0.169 HD
BRANCH  12  15
HETATM   15  C   UNL     1      25.158  45.287  51.836  1.00  0.00     0.087 A 
HETATM   16  C   UNL     1      25.239  46.087  53.126  1.00  0.00     0.034 A 
HETATM   17  C   UNL     1      25.256  46.783  51.781  1.00  0.00     0.025 A 
BRANCH  16  18
HETATM   18  C   UNL     1      26.470  46.183  54.013  1.00  0.00    -0.031 A 
HETATM   19  C   UNL     1      27.311  47.311  53.960  1.00  0.00     0.009 A 
HETATM   20  C   UNL     1      28.460  47.417  54.750  1.00  0.00     0.001 A 
HETATM   21  C   UNL     1      28.819  46.382  55.604  1.00  0.00     0.002 A 
HETATM   22  C   UNL     1      28.032  45.236  55.659  1.00  0.00     0.024 A 
HETATM   23  C   UNL     1      26.881  45.135  54.869  1.00  0.00     0.040 A 
HETATM   24 CL   UNL     1      25.994  43.650  54.960  1.00  0.00    -0.084 Cl
ENDBRANCH  16  18
ENDBRANCH  12  15
ENDBRANCH   1  11
BRANCH   8  25
HETATM   25  C   UNL     1      27.442  38.625  48.295  1.00  0.00     0.270 C 
HETATM   26  N   UNL     1      26.193  38.098  48.481  1.00  0.00    -0.365 N 
HETATM   27  H   UNL     1      25.857  37.967  49.429  1.00  0.00     0.159 HD
HETATM   28  H   UNL     1      25.646  37.816  47.684  1.00  0.00     0.159 HD
HETATM   29  O   UNL     1      27.903  38.779  47.170  1.00  0.00    -0.266 OA
ENDBRANCH   8  25
TORSDOF 4
ENDMDL
MODEL 7
REMARK VINA RESULT:      -8.1      5.146      7.415
REMARK  4 active torsions:
REMARK  status: ('A' for Active; 'I' for Inactive)
REMARK    1  A    between atoms: C_3  and  C_4 
REMARK    2  A    between atoms: C_5  and  C_6 
REMARK       I    between atoms: C_6  and  N_7 
REMARK    3  A    between atoms: N_7  and  C_8 
REMARK    4  A    between atoms: C_15  and  C_16 
REMARK       I    between atoms: C_16  and  N_17 
ROOT
HETATM    1  C   UNL     1      27.173  41.083  51.288  1.00  0.00     0.035 A 
HETATM    2  C   UNL     1      26.655  40.464  50.141  1.00  0.00     0.046 A 
HETATM    3  C   UNL     1      27.393  39.438  49.510  1.00  0.00     0.030 A 
HETATM    4  C   UNL     1      28.612  39.055  50.056  1.00  0.00     0.063 A 
HETATM    5  N   UNL     1      29.078  38.060  49.243  1.00  0.00    -0.277 N 
HETATM    6  H   UNL     1      29.944  37.542  49.342  1.00  0.00     0.189 HD
HETATM    7  N   UNL     1      28.282  37.773  48.202  1.00  0.00    -0.168 NA
HETATM    8  C   UNL     1      27.236  38.618  48.350  1.00  0.00     0.156 A 
HETATM    9  C   UNL     1      29.152  39.640  51.202  1.00  0.00     0.034 A 
HETATM   10  C   UNL     1      28.410  40.667  51.799  1.00  0.00     0.032 A 
ENDROOT
BRANCH   1  11
HETATM   11  N   UNL     1      26.534  42.147  51.960  1.00  0.00    -0.327 N 
HETATM   12  C   UNL     1      26.824  43.492  51.871  1.00  0.00     0.227 C 
HETATM   13  O   UNL     1      27.644  44.021  51.136  1.00  0.00    -0.273 OA
HETATM   14  H   UNL     1      25.781  41.889  52.578  1.00  0.00     0.169 HD
BRANCH  12  15
HETATM   15  C   UNL     1      26.082  44.366  52.823  1.00  0.00     0.087 A 
HETATM   16  C   UNL     1      26.631  44.761  54.185  1.00  0.00     0.034 A 
HETATM   17  C   UNL     1      26.400  45.804  53.111  1.00  0.00     0.025 A 
BRANCH  16  18
HETATM   18  C   UNL     1      28.053  44.502  54.656  1.00  0.00    -0.031 A 
HETATM   19  C   UNL     1      28.669  43.255  54.438  1.00  0.00     0.009 A 
HETATM   20  C   UNL     1      29.969  42.983  54.878  1.00  0.00     0.001 A 
HETATM   21  C   UNL     1      30.687  43.948  55.574  1.00  0.00     0.002 A 
HETATM   22  C   UNL     1      30.100  45.180  55.838  1.00  0.00     0.024 A 
HETATM   23  C   UNL     1      28.800  45.450  55.393  1.00  0.00     0.040 A 
HETATM   24 CL   UNL     1      28.128  46.989  55.817  1.00  0.00    -0.084 Cl
ENDBRANCH  16  18
ENDBRANCH  12  15
ENDBRANCH   1  11
BRANCH   8  25
HETATM   25  C   UNL     1      26.128  38.633  47.385  1.00  0.00     0.270 C 
HETATM   26  N   UNL     1      25.222  37.622  47.561  1.00  0.00    -0.365 N 
HETATM   27  H   UNL     1      25.380  36.953  48.307  1.00  0.00     0.159 HD
HETATM   28  H   UNL     1      24.440  37.537  46.932  1.00  0.00     0.159 HD
HETATM   29  O   UNL     1      25.995  39.451  46.482  1.00  0.00    -0.266 OA
ENDBRANCH   8  25
TORSDOF 4
ENDMDL
MODEL 8
REMARK VINA RESULT:      -8.0      5.099     10.182
REMARK  4 active torsions:
REMARK  status: ('A' for Active; 'I' for Inactive)
REMARK    1  A    between atoms: C_3  and  C_4 
REMARK    2  A    between atoms: C_5  and  C_6 
REMARK       I    between atoms: C_6  and  N_7 
REMARK    3  A    between atoms: N_7  and  C_8 
REMARK    4  A    between atoms: C_15  and  C_16 
REMARK       I    between atoms: C_16  and  N_17 
ROOT
HETATM    1  C   UNL     1      21.492  48.986  48.568  1.00  0.00     0.035 A 
HETATM    2  C   UNL     1      22.742  48.790  49.170  1.00  0.00     0.046 A 
HETATM    3  C   UNL     1      23.308  47.495  49.197  1.00  0.00     0.030 A 
HETATM    4  C   UNL     1      22.613  46.448  48.605  1.00  0.00     0.063 A 
HETATM    5  N   UNL     1      23.398  45.344  48.784  1.00  0.00    -0.277 N 
HETATM    6  H   UNL     1      23.206  44.397  48.476  1.00  0.00     0.189 HD
HETATM    7  N   UNL     1      24.535  45.573  49.461  1.00  0.00    -0.168 NA
HETATM    8  C   UNL     1      24.494  46.899  49.725  1.00  0.00     0.156 A 
HETATM    9  C   UNL     1      21.373  46.608  47.986  1.00  0.00     0.034 A 
HETATM   10  C   UNL     1      20.825  47.897  47.989  1.00  0.00     0.032 A 
ENDROOT
BRANCH   1  11
HETATM   11  N   UNL     1      20.824  50.229  48.533  1.00  0.00    -0.327 N 
HETATM   12  C   UNL     1      19.931  50.729  49.456  1.00  0.00     0.227 C 
HETATM   13  O   UNL     1      19.604  50.218  50.517  1.00  0.00    -0.273 OA
HETATM   14  H   UNL     1      21.026  50.815  47.738  1.00  0.00     0.169 HD
BRANCH  12  15
HETATM   15  C   UNL     1      19.266  52.006  49.070  1.00  0.00     0.087 A 
HETATM   16  C   UNL     1      18.061  52.065  48.145  1.00  0.00     0.034 A 
HETATM   17  C   UNL     1      17.946  52.492  49.594  1.00  0.00     0.025 A 
BRANCH  16  18
HETATM   18  C   UNL     1      17.267  50.856  47.676  1.00  0.00    -0.031 A 
HETATM   19  C   UNL     1      16.189  50.362  48.435  1.00  0.00     0.009 A 
HETATM   20  C   UNL     1      15.454  49.240  48.038  1.00  0.00     0.001 A 
HETATM   21  C   UNL     1      15.791  48.561  46.873  1.00  0.00     0.002 A 
HETATM   22  C   UNL     1      16.870  48.999  46.113  1.00  0.00     0.024 A 
HETATM   23  C   UNL     1      17.602  50.124  46.513  1.00  0.00     0.040 A 
HETATM   24 CL   UNL     1      18.964  50.563  45.538  1.00  0.00    -0.084 Cl
ENDBRANCH  16  18
ENDBRANCH  12  15
ENDBRANCH   1  11
BRANCH   8  25
HETATM   25  C   UNL     1      25.570  47.556  50.480  1.00  0.00     0.270 C 
HETATM   26  N   UNL     1      26.524  48.143  49.693  1.00  0.00    -0.365 N 
HETATM   27  H   UNL     1      26.433  48.072  48.685  1.00  0.00     0.159 HD
HETATM   28  H   UNL     1      27.314  48.598  50.121  1.00  0.00     0.159 HD
HETATM   29  O   UNL     1      25.648  47.592  51.702  1.00  0.00    -0.266 OA
ENDBRANCH   8  25
TORSDOF 4
ENDMDL
MODEL 9
REMARK VINA RESULT:      -7.9      4.894      8.669
REMARK  4 active torsions:
REMARK  status: ('A' for Active; 'I' for Inactive)
REMARK    1  A    between atoms: C_3  and  C_4 
REMARK    2  A    between atoms: C_5  and  C_6 
REMARK       I    between atoms: C_6  and  N_7 
REMARK    3  A    between atoms: N_7  and  C_8 
REMARK    4  A    between atoms: C_15  and  C_16 
REMARK       I    between atoms: C_16  and  N_17 
ROOT
HETATM    1  C   UNL     1      24.250  48.037  49.621  1.00  0.00     0.035 A 
HETATM    2  C   UNL     1      23.941  46.673  49.727  1.00  0.00     0.046 A 
HETATM    3  C   UNL     1      24.985  45.722  49.747  1.00  0.00     0.030 A 
HETATM    4  C   UNL     1      26.299  46.166  49.680  1.00  0.00     0.063 A 
HETATM    5  N   UNL     1      27.068  45.037  49.722  1.00  0.00    -0.277 N 
HETATM    6  H   UNL     1      28.080  44.982  49.697  1.00  0.00     0.189 HD
HETATM    7  N   UNL     1      26.371  43.892  49.791  1.00  0.00    -0.168 NA
HETATM    8  C   UNL     1      25.081  44.297  49.805  1.00  0.00     0.156 A 
HETATM    9  C   UNL     1      26.645  47.516  49.585  1.00  0.00     0.034 A 
HETATM   10  C   UNL     1      25.592  48.438  49.548  1.00  0.00     0.032 A 
ENDROOT
BRANCH   1  11
HETATM   11  N   UNL     1      23.279  49.058  49.545  1.00  0.00    -0.327 N 
HETATM   12  C   UNL     1      22.978  49.853  48.460  1.00  0.00     0.227 C 
HETATM   13  O   UNL     1      23.450  49.773  47.335  1.00  0.00    -0.273 OA
HETATM   14  H   UNL     1      22.746  49.222  50.384  1.00  0.00     0.169 HD
BRANCH  12  15
HETATM   15  C   UNL     1      22.010  50.954  48.727  1.00  0.00     0.087 A 
HETATM   16  C   UNL     1      20.511  50.809  48.517  1.00  0.00     0.034 A 
HETATM   17  C   UNL     1      21.081  51.029  49.903  1.00  0.00     0.025 A 
BRANCH  16  18
HETATM   18  C   UNL     1      19.799  49.500  48.220  1.00  0.00    -0.031 A 
HETATM   19  C   UNL     1      19.852  48.427  49.131  1.00  0.00     0.009 A 
HETATM   20  C   UNL     1      19.224  47.204  48.874  1.00  0.00     0.001 A 
HETATM   21  C   UNL     1      18.537  47.008  47.683  1.00  0.00     0.002 A 
HETATM   22  C   UNL     1      18.490  48.033  46.743  1.00  0.00     0.024 A 
HETATM   23  C   UNL     1      19.119  49.256  47.005  1.00  0.00     0.040 A 
HETATM   24 CL   UNL     1      19.058  50.454  45.755  1.00  0.00    -0.084 Cl
ENDBRANCH  16  18
ENDBRANCH  12  15
ENDBRANCH   1  11
BRANCH   8  25
HETATM   25  C   UNL     1      23.980  43.325  49.860  1.00  0.00     0.270 C 
HETATM   26  N   UNL     1      23.875  42.538  48.746  1.00  0.00    -0.365 N 
HETATM   27  H   UNL     1      24.529  42.685  47.985  1.00  0.00     0.159 HD
HETATM   28  H   UNL     1      23.135  41.857  48.682  1.00  0.00     0.159 HD
HETATM   29  O   UNL     1      23.198  43.204  50.796  1.00  0.00    -0.266 OA
ENDBRANCH   8  25
TORSDOF 4
ENDMDL
MODEL 10
REMARK VINA RESULT:      -7.9      5.939      8.372
REMARK  4 active torsions:
REMARK  status: ('A' for Active; 'I' for Inactive)
REMARK    1  A    between atoms: C_3  and  C_4 
REMARK    2  A    between atoms: C_5  and  C_6 
REMARK       I    between atoms: C_6  and  N_7 
REMARK    3  A    between atoms: N_7  and  C_8 
REMARK    4  A    between atoms: C_15  and  C_16 
REMARK       I    between atoms: C_16  and  N_17 
ROOT
HETATM    1  C   UNL     1      27.226  41.430  48.233  1.00  0.00     0.035 A 
HETATM    2  C   UNL     1      28.034  40.455  48.833  1.00  0.00     0.046 A 
HETATM    3  C   UNL     1      28.287  39.242  48.153  1.00  0.00     0.030 A 
HETATM    4  C   UNL     1      27.740  39.056  46.890  1.00  0.00     0.063 A 
HETATM    5  N   UNL     1      28.154  37.816  46.493  1.00  0.00    -0.277 N 
HETATM    6  H   UNL     1      27.946  37.350  45.616  1.00  0.00     0.189 HD
HETATM    7  N   UNL     1      28.907  37.167  47.394  1.00  0.00    -0.168 NA
HETATM    8  C   UNL     1      28.997  38.034  48.428  1.00  0.00     0.156 A 
HETATM    9  C   UNL     1      26.940  40.010  46.256  1.00  0.00     0.034 A 
HETATM   10  C   UNL     1      26.689  41.194  46.959  1.00  0.00     0.032 A 
ENDROOT
BRANCH   1  11
HETATM   11  N   UNL     1      26.877  42.650  48.851  1.00  0.00    -0.327 N 
HETATM   12  C   UNL     1      25.859  42.874  49.753  1.00  0.00     0.227 C 
HETATM   13  O   UNL     1      25.111  42.039  50.241  1.00  0.00    -0.273 OA
HETATM   14  H   UNL     1      27.439  43.447  48.600  1.00  0.00     0.169 HD
BRANCH  12  15
HETATM   15  C   UNL     1      25.632  44.302  50.114  1.00  0.00     0.087 A 
HETATM   16  C   UNL     1      26.174  44.929  51.389  1.00  0.00     0.034 A 
HETATM   17  C   UNL     1      26.659  45.393  50.031  1.00  0.00     0.025 A 
BRANCH  16  18
HETATM   18  C   UNL     1      27.167  44.265  52.330  1.00  0.00    -0.031 A 
HETATM   19  C   UNL     1      28.452  43.902  51.884  1.00  0.00     0.009 A 
HETATM   20  C   UNL     1      29.377  43.272  52.722  1.00  0.00     0.001 A 
HETATM   21  C   UNL     1      29.036  42.964  54.033  1.00  0.00     0.002 A 
HETATM   22  C   UNL     1      27.764  43.276  54.501  1.00  0.00     0.024 A 
HETATM   23  C   UNL     1      26.841  43.909  53.659  1.00  0.00     0.040 A 
HETATM   24 CL   UNL     1      25.263  44.208  54.308  1.00  0.00    -0.084 Cl
ENDBRANCH  16  18
ENDBRANCH  12  15
ENDBRANCH   1  11
BRANCH   8  25
HETATM   25  C   UNL     1      29.741  37.688  49.647  1.00  0.00     0.270 C 
HETATM   26  N   UNL     1      29.002  37.008  50.577  1.00  0.00    -0.365 N 
HETATM   27  H   UNL     1      28.028  36.812  50.374  1.00  0.00     0.159 HD
HETATM   28  H   UNL     1      29.421  36.749  51.456  1.00  0.00     0.159 HD
HETATM   29  O   UNL     1      30.915  37.972  49.857  1.00  0.00    -0.266 OA
ENDBRANCH   8  25
TORSDOF 4
ENDMDL
