MODEL 1
REMARK VINA RESULT:      -9.8      0.000      0.000
REMARK  8 active torsions:
REMARK  status: ('A' for Active; 'I' for Inactive)
REMARK    1  A    between atoms: C_5  and  C_6 
REMARK       I    between atoms: C_6  and  N_7 
REMARK    2  A    between atoms: N_7  and  N_8 
REMARK       I    between atoms: N_8  and  C_9 
REMARK    3  A    between atoms: C_9  and  C_10 
REMARK    4  A    between atoms: C_10  and  S_11 
REMARK    5  A    between atoms: S_11  and  C_12 
REMARK    6  A    between atoms: N_13  and  C_14 
REMARK    7  A    between atoms: C_21  and  C_22 
REMARK    8  A    between atoms: C_22  and  N_23 
ROOT
HETATM    1  C   UNL     1      25.748  45.937  51.111  1.00  0.00     0.196 A 
HETATM    2  N   UNL     1      25.890  44.639  51.567  1.00  0.00    -0.274 N 
HETATM    3  C   UNL     1      26.100  44.797  52.933  1.00  0.00     0.166 A 
HETATM    4  N   UNL     1      25.936  46.063  53.270  1.00  0.00    -0.131 NA
HETATM    5  N   UNL     1      25.733  46.778  52.122  1.00  0.00    -0.122 NA
ENDROOT
BRANCH   1   6
HETATM    6  S   UNL     1      25.627  46.399  49.450  1.00  0.00    -0.080 SA
BRANCH   6   7
HETATM    7  C   UNL     1      25.637  48.208  49.577  1.00  0.00     0.187 C 
BRANCH   7   8
HETATM    8  C   UNL     1      24.399  48.901  49.012  1.00  0.00     0.245 C 
HETATM    9  N   UNL     1      23.314  48.806  49.875  1.00  0.00    -0.267 N 
HETATM   10  H   UNL     1      23.233  47.987  50.482  1.00  0.00     0.190 HD
HETATM   11  O   UNL     1      24.338  49.513  47.943  1.00  0.00    -0.271 OA
BRANCH   9  12
HETATM   12  N   UNL     1      22.087  49.326  49.442  1.00  0.00    -0.263 N 
HETATM   13  C   UNL     1      21.686  50.548  49.955  1.00  0.00     0.270 C 
HETATM   14  O   UNL     1      22.398  51.229  50.684  1.00  0.00    -0.266 OA
HETATM   15  H   UNL     1      21.402  48.653  49.120  1.00  0.00     0.190 HD
BRANCH  13  16
HETATM   16  C   UNL     1      20.307  50.970  49.590  1.00  0.00     0.033 A 
HETATM   17  C   UNL     1      20.076  51.939  48.604  1.00  0.00     0.017 A 
HETATM   18  C   UNL     1      18.769  52.320  48.289  1.00  0.00     0.007 A 
HETATM   19  C   UNL     1      17.682  51.735  48.950  1.00  0.00    -0.062 A 
HETATM   20  C   UNL     1      16.282  52.188  48.653  1.00  0.00     0.048 C 
HETATM   21  C   UNL     1      17.921  50.786  49.953  1.00  0.00     0.007 A 
HETATM   22  C   UNL     1      19.226  50.404  50.273  1.00  0.00     0.017 A 
ENDBRANCH  13  16
ENDBRANCH   9  12
ENDBRANCH   7   8
ENDBRANCH   6   7
ENDBRANCH   1   6
BRANCH   2  23
HETATM   23  C   UNL     1      25.921  43.417  50.846  1.00  0.00     0.043 A 
HETATM   24  C   UNL     1      27.131  42.894  50.368  1.00  0.00     0.033 A 
HETATM   25  C   UNL     1      27.140  41.693  49.655  1.00  0.00     0.044 A 
HETATM   26  C   UNL     1      25.947  41.021  49.426  1.00  0.00     0.116 A 
HETATM   27  F   UNL     1      25.958  39.870  48.742  1.00  0.00    -0.206 F 
HETATM   28  C   UNL     1      24.741  41.523  49.898  1.00  0.00     0.044 A 
HETATM   29  C   UNL     1      24.722  42.725  50.612  1.00  0.00     0.033 A 
ENDBRANCH   2  23
BRANCH   3  30
HETATM   30  C   UNL     1      26.696  43.766  53.845  1.00  0.00     0.255 C 
HETATM   31  C   UNL     1      25.849  43.684  55.121  1.00  0.00     0.049 C 
BRANCH  30  32
HETATM   32  N   UNL     1      28.162  44.119  54.228  1.00  0.00    -0.060 N 
HETATM   33  H   UNL     1      28.532  44.623  53.407  1.00  0.00     0.280 HD
HETATM   34  C   UNL     1      28.262  45.004  55.449  1.00  0.00     0.236 C 
HETATM   35  C   UNL     1      29.712  45.384  55.717  1.00  0.00     0.028 C 
HETATM   36  C   UNL     1      30.604  44.162  55.858  1.00  0.00     0.003 C 
HETATM   37  C   UNL     1      30.473  43.264  54.638  1.00  0.00     0.028 C 
HETATM   38  C   UNL     1      29.025  42.873  54.379  1.00  0.00     0.236 C 
ENDBRANCH  30  32
ENDBRANCH   3  30
TORSDOF 8
ENDMDL
MODEL 2
REMARK VINA RESULT:      -9.8      2.986     10.386
REMARK  8 active torsions:
REMARK  status: ('A' for Active; 'I' for Inactive)
REMARK    1  A    between atoms: C_5  and  C_6 
REMARK       I    between atoms: C_6  and  N_7 
REMARK    2  A    between atoms: N_7  and  N_8 
REMARK       I    between atoms: N_8  and  C_9 
REMARK    3  A    between atoms: C_9  and  C_10 
REMARK    4  A    between atoms: C_10  and  S_11 
REMARK    5  A    between atoms: S_11  and  C_12 
REMARK    6  A    between atoms: N_13  and  C_14 
REMARK    7  A    between atoms: C_21  and  C_22 
REMARK    8  A    between atoms: C_22  and  N_23 
ROOT
HETATM    1  C   UNL     1      22.097  46.727  48.678  1.00  0.00     0.196 A 
HETATM    2  N   UNL     1      22.565  48.015  48.860  1.00  0.00    -0.274 N 
HETATM    3  C   UNL     1      21.402  48.766  48.994  1.00  0.00     0.166 A 
HETATM    4  N   UNL     1      20.353  47.966  49.047  1.00  0.00    -0.131 NA
HETATM    5  N   UNL     1      20.791  46.689  48.831  1.00  0.00    -0.122 NA
ENDROOT
BRANCH   1   6
HETATM    6  S   UNL     1      23.077  45.358  48.288  1.00  0.00    -0.080 SA
BRANCH   6   7
HETATM    7  C   UNL     1      22.520  44.151  49.522  1.00  0.00     0.187 C 
BRANCH   7   8
HETATM    8  C   UNL     1      23.553  43.794  50.588  1.00  0.00     0.245 C 
HETATM    9  N   UNL     1      24.150  44.927  51.128  1.00  0.00    -0.267 N 
HETATM   10  H   UNL     1      24.257  45.759  50.544  1.00  0.00     0.190 HD
HETATM   11  O   UNL     1      23.828  42.657  50.977  1.00  0.00    -0.271 OA
BRANCH   9  12
HETATM   12  N   UNL     1      25.181  44.741  52.060  1.00  0.00    -0.263 N 
HETATM   13  C   UNL     1      26.484  44.756  51.593  1.00  0.00     0.270 C 
HETATM   14  O   UNL     1      26.771  45.020  50.432  1.00  0.00    -0.266 OA
HETATM   15  H   UNL     1      24.940  44.230  52.900  1.00  0.00     0.190 HD
BRANCH  13  16
HETATM   16  C   UNL     1      27.522  44.390  52.594  1.00  0.00     0.033 A 
HETATM   17  C   UNL     1      27.537  44.960  53.874  1.00  0.00     0.017 A 
HETATM   18  C   UNL     1      28.530  44.602  54.788  1.00  0.00     0.007 A 
HETATM   19  C   UNL     1      29.514  43.670  54.437  1.00  0.00    -0.062 A 
HETATM   20  C   UNL     1      30.616  43.331  55.399  1.00  0.00     0.048 C 
HETATM   21  C   UNL     1      29.510  43.123  53.147  1.00  0.00     0.007 A 
HETATM   22  C   UNL     1      28.519  43.481  52.228  1.00  0.00     0.017 A 
ENDBRANCH  13  16
ENDBRANCH   9  12
ENDBRANCH   7   8
ENDBRANCH   6   7
ENDBRANCH   1   6
BRANCH   2  23
HETATM   23  C   UNL     1      23.893  48.516  48.827  1.00  0.00     0.043 A 
HETATM   24  C   UNL     1      24.241  49.574  47.974  1.00  0.00     0.033 A 
HETATM   25  C   UNL     1      25.555  50.048  47.951  1.00  0.00     0.044 A 
HETATM   26  C   UNL     1      26.509  49.471  48.777  1.00  0.00     0.116 A 
HETATM   27  F   UNL     1      27.767  49.927  48.753  1.00  0.00    -0.206 F 
HETATM   28  C   UNL     1      26.177  48.426  49.631  1.00  0.00     0.044 A 
HETATM   29  C   UNL     1      24.867  47.943  49.660  1.00  0.00     0.033 A 
ENDBRANCH   2  23
BRANCH   3  30
HETATM   30  C   UNL     1      21.305  50.254  48.822  1.00  0.00     0.255 C 
HETATM   31  C   UNL     1      21.614  50.929  50.163  1.00  0.00     0.049 C 
BRANCH  30  32
HETATM   32  N   UNL     1      19.885  50.683  48.351  1.00  0.00    -0.060 N 
HETATM   33  H   UNL     1      19.244  50.025  48.821  1.00  0.00     0.280 HD
HETATM   34  C   UNL     1      19.529  52.098  48.745  1.00  0.00     0.236 C 
HETATM   35  C   UNL     1      18.100  52.425  48.334  1.00  0.00     0.028 C 
HETATM   36  C   UNL     1      17.870  52.201  46.848  1.00  0.00     0.003 C 
HETATM   37  C   UNL     1      18.259  50.784  46.458  1.00  0.00     0.028 C 
HETATM   38  C   UNL     1      19.692  50.463  46.856  1.00  0.00     0.236 C 
ENDBRANCH  30  32
ENDBRANCH   3  30
TORSDOF 8
ENDMDL
MODEL 3
REMARK VINA RESULT:      -9.7      3.382     10.177
REMARK  8 active torsions:
REMARK  status: ('A' for Active; 'I' for Inactive)
REMARK    1  A    between atoms: C_5  and  C_6 
REMARK       I    between atoms: C_6  and  N_7 
REMARK    2  A    between atoms: N_7  and  N_8 
REMARK       I    between atoms: N_8  and  C_9 
REMARK    3  A    between atoms: C_9  and  C_10 
REMARK    4  A    between atoms: C_10  and  S_11 
REMARK    5  A    between atoms: S_11  and  C_12 
REMARK    6  A    between atoms: N_13  and  C_14 
REMARK    7  A    between atoms: C_21  and  C_22 
REMARK    8  A    between atoms: C_22  and  N_23 
ROOT
HETATM    1  C   UNL     1      23.723  46.491  49.824  1.00  0.00     0.196 A 
HETATM    2  N   UNL     1      22.875  46.864  48.797  1.00  0.00    -0.274 N 
HETATM    3  C   UNL     1      22.977  48.251  48.781  1.00  0.00     0.166 A 
HETATM    4  N   UNL     1      23.921  48.643  49.616  1.00  0.00    -0.131 NA
HETATM    5  N   UNL     1      24.375  47.538  50.282  1.00  0.00    -0.122 NA
ENDROOT
BRANCH   1   6
HETATM    6  S   UNL     1      23.895  44.885  50.438  1.00  0.00    -0.080 SA
BRANCH   6   7
HETATM    7  C   UNL     1      25.399  44.333  49.588  1.00  0.00     0.187 C 
BRANCH   7   8
HETATM    8  C   UNL     1      26.545  43.917  50.508  1.00  0.00     0.245 C 
HETATM    9  N   UNL     1      26.179  43.976  51.847  1.00  0.00    -0.267 N 
HETATM   10  H   UNL     1      25.485  44.666  52.143  1.00  0.00     0.190 HD
HETATM   11  O   UNL     1      27.660  43.535  50.147  1.00  0.00    -0.271 OA
BRANCH   9  12
HETATM   12  N   UNL     1      27.163  43.702  52.807  1.00  0.00    -0.263 N 
HETATM   13  C   UNL     1      27.592  44.745  53.609  1.00  0.00     0.270 C 
HETATM   14  O   UNL     1      27.080  45.858  53.582  1.00  0.00    -0.266 OA
HETATM   15  H   UNL     1      27.773  42.917  52.612  1.00  0.00     0.190 HD
BRANCH  13  16
HETATM   16  C   UNL     1      28.749  44.436  54.491  1.00  0.00     0.033 A 
HETATM   17  C   UNL     1      29.506  43.267  54.323  1.00  0.00     0.017 A 
HETATM   18  C   UNL     1      30.582  43.002  55.172  1.00  0.00     0.007 A 
HETATM   19  C   UNL     1      30.917  43.900  56.193  1.00  0.00    -0.062 A 
HETATM   20  C   UNL     1      32.037  43.584  57.143  1.00  0.00     0.048 C 
HETATM   21  C   UNL     1      30.142  45.052  56.373  1.00  0.00     0.007 A 
HETATM   22  C   UNL     1      29.062  45.321  55.527  1.00  0.00     0.017 A 
ENDBRANCH  13  16
ENDBRANCH   9  12
ENDBRANCH   7   8
ENDBRANCH   6   7
ENDBRANCH   1   6
BRANCH   2  23
HETATM   23  C   UNL     1      22.014  46.073  47.993  1.00  0.00     0.043 A 
HETATM   24  C   UNL     1      20.732  45.721  48.441  1.00  0.00     0.033 A 
HETATM   25  C   UNL     1      19.902  44.937  47.638  1.00  0.00     0.044 A 
HETATM   26  C   UNL     1      20.351  44.511  46.395  1.00  0.00     0.116 A 
HETATM   27  F   UNL     1      19.554  43.759  45.626  1.00  0.00    -0.206 F 
HETATM   28  C   UNL     1      21.616  44.856  45.935  1.00  0.00     0.044 A 
HETATM   29  C   UNL     1      22.454  45.640  46.732  1.00  0.00     0.033 A 
ENDBRANCH   2  23
BRANCH   3  30
HETATM   30  C   UNL     1      21.993  49.187  48.142  1.00  0.00     0.255 C 
HETATM   31  C   UNL     1      22.757  50.372  47.539  1.00  0.00     0.049 C 
BRANCH  30  32
HETATM   32  N   UNL     1      20.957  49.719  49.173  1.00  0.00    -0.060 N 
HETATM   33  H   UNL     1      21.467  49.739  50.069  1.00  0.00     0.280 HD
HETATM   34  C   UNL     1      20.454  51.107  48.850  1.00  0.00     0.236 C 
HETATM   35  C   UNL     1      19.514  51.603  49.940  1.00  0.00     0.028 C 
HETATM   36  C   UNL     1      18.356  50.646  50.172  1.00  0.00     0.003 C 
HETATM   37  C   UNL     1      18.873  49.248  50.467  1.00  0.00     0.028 C 
HETATM   38  C   UNL     1      19.801  48.746  49.370  1.00  0.00     0.236 C 
ENDBRANCH  30  32
ENDBRANCH   3  30
TORSDOF 8
ENDMDL
MODEL 4
REMARK VINA RESULT:      -9.6      1.717      2.180
REMARK  8 active torsions:
REMARK  status: ('A' for Active; 'I' for Inactive)
REMARK    1  A    between atoms: C_5  and  C_6 
REMARK       I    between atoms: C_6  and  N_7 
REMARK    2  A    between atoms: N_7  and  N_8 
REMARK       I    between atoms: N_8  and  C_9 
REMARK    3  A    between atoms: C_9  and  C_10 
REMARK    4  A    between atoms: C_10  and  S_11 
REMARK    5  A    between atoms: S_11  and  C_12 
REMARK    6  A    between atoms: N_13  and  C_14 
REMARK    7  A    between atoms: C_21  and  C_22 
REMARK    8  A    between atoms: C_22  and  N_23 
ROOT
HETATM    1  C   UNL     1      25.439  44.801  50.983  1.00  0.00     0.196 A 
HETATM    2  N   UNL     1      25.880  43.667  51.640  1.00  0.00    -0.274 N 
HETATM    3  C   UNL     1      25.827  44.029  52.982  1.00  0.00     0.166 A 
HETATM    4  N   UNL     1      25.256  45.212  53.107  1.00  0.00    -0.131 NA
HETATM    5  N   UNL     1      25.030  45.701  51.850  1.00  0.00    -0.122 NA
ENDROOT
BRANCH   1   6
HETATM    6  S   UNL     1      25.441  45.022  49.269  1.00  0.00    -0.080 SA
BRANCH   6   7
HETATM    7  C   UNL     1      23.882  44.222  48.801  1.00  0.00     0.187 C 
BRANCH   7   8
HETATM    8  C   UNL     1      22.653  45.127  48.847  1.00  0.00     0.245 C 
HETATM    9  N   UNL     1      22.992  46.443  49.137  1.00  0.00    -0.267 N 
HETATM   10  H   UNL     1      23.809  46.629  49.723  1.00  0.00     0.190 HD
HETATM   11  O   UNL     1      21.491  44.781  48.623  1.00  0.00    -0.271 OA
BRANCH   9  12
HETATM   12  N   UNL     1      21.949  47.367  49.294  1.00  0.00    -0.263 N 
HETATM   13  C   UNL     1      22.023  48.551  48.581  1.00  0.00     0.270 C 
HETATM   14  O   UNL     1      22.900  48.777  47.755  1.00  0.00    -0.266 OA
HETATM   15  H   UNL     1      21.436  47.321  50.166  1.00  0.00     0.190 HD
BRANCH  13  16
HETATM   16  C   UNL     1      20.980  49.559  48.912  1.00  0.00     0.033 A 
HETATM   17  C   UNL     1      19.919  49.257  49.777  1.00  0.00     0.017 A 
HETATM   18  C   UNL     1      18.951  50.223  50.061  1.00  0.00     0.007 A 
HETATM   19  C   UNL     1      19.034  51.499  49.490  1.00  0.00    -0.062 A 
HETATM   20  C   UNL     1      17.960  52.516  49.749  1.00  0.00     0.048 C 
HETATM   21  C   UNL     1      20.081  51.786  48.606  1.00  0.00     0.007 A 
HETATM   22  C   UNL     1      21.051  50.822  48.316  1.00  0.00     0.017 A 
ENDBRANCH  13  16
ENDBRANCH   9  12
ENDBRANCH   7   8
ENDBRANCH   6   7
ENDBRANCH   1   6
BRANCH   2  23
HETATM   23  C   UNL     1      26.371  42.442  51.116  1.00  0.00     0.043 A 
HETATM   24  C   UNL     1      27.742  42.148  51.141  1.00  0.00     0.033 A 
HETATM   25  C   UNL     1      28.207  40.940  50.615  1.00  0.00     0.044 A 
HETATM   26  C   UNL     1      27.305  40.035  50.071  1.00  0.00     0.116 A 
HETATM   27  F   UNL     1      27.752  38.879  49.568  1.00  0.00    -0.206 F 
HETATM   28  C   UNL     1      25.943  40.311  50.045  1.00  0.00     0.044 A 
HETATM   29  C   UNL     1      25.469  41.517  50.568  1.00  0.00     0.033 A 
ENDBRANCH   2  23
BRANCH   3  30
HETATM   30  C   UNL     1      26.552  43.335  54.098  1.00  0.00     0.255 C 
HETATM   31  C   UNL     1      25.742  43.495  55.390  1.00  0.00     0.049 C 
BRANCH  30  32
HETATM   32  N   UNL     1      27.975  43.926  54.311  1.00  0.00    -0.060 N 
HETATM   33  H   UNL     1      28.216  44.359  53.406  1.00  0.00     0.280 HD
HETATM   34  C   UNL     1      28.027  44.975  55.399  1.00  0.00     0.236 C 
HETATM   35  C   UNL     1      29.423  45.575  55.497  1.00  0.00     0.028 C 
HETATM   36  C   UNL     1      30.486  44.511  55.716  1.00  0.00     0.003 C 
HETATM   37  C   UNL     1      30.405  43.447  54.634  1.00  0.00     0.028 C 
HETATM   38  C   UNL     1      29.013  42.837  54.546  1.00  0.00     0.236 C 
ENDBRANCH  30  32
ENDBRANCH   3  30
TORSDOF 8
ENDMDL
MODEL 5
REMARK VINA RESULT:      -9.2      4.123     11.307
REMARK  8 active torsions:
REMARK  status: ('A' for Active; 'I' for Inactive)
REMARK    1  A    between atoms: C_5  and  C_6 
REMARK       I    between atoms: C_6  and  N_7 
REMARK    2  A    between atoms: N_7  and  N_8 
REMARK       I    between atoms: N_8  and  C_9 
REMARK    3  A    between atoms: C_9  and  C_10 
REMARK    4  A    between atoms: C_10  and  S_11 
REMARK    5  A    between atoms: S_11  and  C_12 
REMARK    6  A    between atoms: N_13  and  C_14 
REMARK    7  A    between atoms: C_21  and  C_22 
REMARK    8  A    between atoms: C_22  and  N_23 
ROOT
HETATM    1  C   UNL     1      22.483  46.056  48.874  1.00  0.00     0.196 A 
HETATM    2  N   UNL     1      21.368  46.759  48.457  1.00  0.00    -0.274 N 
HETATM    3  C   UNL     1      20.589  45.790  47.834  1.00  0.00     0.166 A 
HETATM    4  N   UNL     1      21.127  44.597  48.013  1.00  0.00    -0.131 NA
HETATM    5  N   UNL     1      22.324  44.770  48.650  1.00  0.00    -0.122 NA
ENDROOT
BRANCH   1   6
HETATM    6  S   UNL     1      23.898  46.760  49.574  1.00  0.00    -0.080 SA
BRANCH   6   7
HETATM    7  C   UNL     1      24.560  45.367  50.529  1.00  0.00     0.187 C 
BRANCH   7   8
HETATM    8  C   UNL     1      25.548  45.751  51.629  1.00  0.00     0.245 C 
HETATM    9  N   UNL     1      26.382  44.692  51.966  1.00  0.00    -0.267 N 
HETATM   10  H   UNL     1      26.031  43.736  51.878  1.00  0.00     0.190 HD
HETATM   11  O   UNL     1      25.650  46.862  52.153  1.00  0.00    -0.271 OA
BRANCH   9  12
HETATM   12  N   UNL     1      27.282  44.880  53.023  1.00  0.00    -0.263 N 
HETATM   13  C   UNL     1      28.358  44.014  53.118  1.00  0.00     0.270 C 
HETATM   14  O   UNL     1      28.604  43.165  52.269  1.00  0.00    -0.266 OA
HETATM   15  H   UNL     1      26.916  45.340  53.848  1.00  0.00     0.190 HD
BRANCH  13  16
HETATM   16  C   UNL     1      29.183  44.156  54.347  1.00  0.00     0.033 A 
HETATM   17  C   UNL     1      30.163  43.211  54.684  1.00  0.00     0.017 A 
HETATM   18  C   UNL     1      30.916  43.370  55.849  1.00  0.00     0.007 A 
HETATM   19  C   UNL     1      30.704  44.472  56.686  1.00  0.00    -0.062 A 
HETATM   20  C   UNL     1      31.474  44.609  57.969  1.00  0.00     0.048 C 
HETATM   21  C   UNL     1      29.707  45.399  56.358  1.00  0.00     0.007 A 
HETATM   22  C   UNL     1      28.948  45.244  55.194  1.00  0.00     0.017 A 
ENDBRANCH  13  16
ENDBRANCH   9  12
ENDBRANCH   7   8
ENDBRANCH   6   7
ENDBRANCH   1   6
BRANCH   2  23
HETATM   23  C   UNL     1      21.084  48.148  48.532  1.00  0.00     0.043 A 
HETATM   24  C   UNL     1      21.684  49.054  47.646  1.00  0.00     0.033 A 
HETATM   25  C   UNL     1      21.396  50.418  47.740  1.00  0.00     0.044 A 
HETATM   26  C   UNL     1      20.514  50.868  48.713  1.00  0.00     0.116 A 
HETATM   27  F   UNL     1      20.240  52.175  48.802  1.00  0.00    -0.206 F 
HETATM   28  C   UNL     1      19.908  49.982  49.595  1.00  0.00     0.044 A 
HETATM   29  C   UNL     1      20.190  48.616  49.509  1.00  0.00     0.033 A 
ENDBRANCH   2  23
BRANCH   3  30
HETATM   30  C   UNL     1      19.471  46.062  46.870  1.00  0.00     0.255 C 
HETATM   31  C   UNL     1      20.066  46.572  45.553  1.00  0.00     0.049 C 
BRANCH  30  32
HETATM   32  N   UNL     1      18.481  47.124  47.428  1.00  0.00    -0.060 N 
HETATM   33  H   UNL     1      19.009  47.610  48.170  1.00  0.00     0.280 HD
HETATM   34  C   UNL     1      18.036  48.128  46.389  1.00  0.00     0.236 C 
HETATM   35  C   UNL     1      17.142  49.188  47.017  1.00  0.00     0.028 C 
HETATM   36  C   UNL     1      15.945  48.575  47.727  1.00  0.00     0.003 C 
HETATM   37  C   UNL     1      16.403  47.547  48.748  1.00  0.00     0.028 C 
HETATM   38  C   UNL     1      17.286  46.479  48.118  1.00  0.00     0.236 C 
ENDBRANCH  30  32
ENDBRANCH   3  30
TORSDOF 8
ENDMDL
MODEL 6
REMARK VINA RESULT:      -9.0      2.751      3.832
REMARK  8 active torsions:
REMARK  status: ('A' for Active; 'I' for Inactive)
REMARK    1  A    between atoms: C_5  and  C_6 
REMARK       I    between atoms: C_6  and  N_7 
REMARK    2  A    between atoms: N_7  and  N_8 
REMARK       I    between atoms: N_8  and  C_9 
REMARK    3  A    between atoms: C_9  and  C_10 
REMARK    4  A    between atoms: C_10  and  S_11 
REMARK    5  A    between atoms: S_11  and  C_12 
REMARK    6  A    between atoms: N_13  and  C_14 
REMARK    7  A    between atoms: C_21  and  C_22 
REMARK    8  A    between atoms: C_22  and  N_23 
ROOT
HETATM    1  C   UNL     1      24.120  44.306  49.783  1.00  0.00     0.196 A 
HETATM    2  N   UNL     1      25.060  45.069  50.452  1.00  0.00    -0.274 N 
HETATM    3  C   UNL     1      25.039  44.549  51.742  1.00  0.00     0.166 A 
HETATM    4  N   UNL     1      24.273  43.474  51.782  1.00  0.00    -0.131 NA
HETATM    5  N   UNL     1      23.685  43.335  50.556  1.00  0.00    -0.122 NA
ENDROOT
BRANCH   1   6
HETATM    6  S   UNL     1      23.575  44.592  48.168  1.00  0.00    -0.080 SA
BRANCH   6   7
HETATM    7  C   UNL     1      21.800  44.257  48.322  1.00  0.00     0.187 C 
BRANCH   7   8
HETATM    8  C   UNL     1      20.893  45.465  48.093  1.00  0.00     0.245 C 
HETATM    9  N   UNL     1      21.010  46.399  49.115  1.00  0.00    -0.267 N 
HETATM   10  H   UNL     1      21.237  46.077  50.059  1.00  0.00     0.190 HD
HETATM   11  O   UNL     1      20.160  45.644  47.118  1.00  0.00    -0.271 OA
BRANCH   9  12
HETATM   12  N   UNL     1      20.169  47.520  49.076  1.00  0.00    -0.263 N 
HETATM   13  C   UNL     1      20.761  48.769  49.015  1.00  0.00     0.270 C 
HETATM   14  O   UNL     1      21.970  48.927  48.895  1.00  0.00    -0.266 OA
HETATM   15  H   UNL     1      19.248  47.404  49.481  1.00  0.00     0.190 HD
BRANCH  13  16
HETATM   16  C   UNL     1      19.829  49.922  49.142  1.00  0.00     0.033 A 
HETATM   17  C   UNL     1      20.124  51.168  48.571  1.00  0.00     0.017 A 
HETATM   18  C   UNL     1      19.232  52.232  48.715  1.00  0.00     0.007 A 
HETATM   19  C   UNL     1      18.037  52.064  49.425  1.00  0.00    -0.062 A 
HETATM   20  C   UNL     1      17.107  53.226  49.630  1.00  0.00     0.048 C 
HETATM   21  C   UNL     1      17.760  50.825  50.015  1.00  0.00     0.007 A 
HETATM   22  C   UNL     1      18.650  49.757  49.876  1.00  0.00     0.017 A 
ENDBRANCH  13  16
ENDBRANCH   9  12
ENDBRANCH   7   8
ENDBRANCH   6   7
ENDBRANCH   1   6
BRANCH   2  23
HETATM   23  C   UNL     1      25.815  46.185  50.005  1.00  0.00     0.043 A 
HETATM   24  C   UNL     1      25.221  47.447  49.868  1.00  0.00     0.033 A 
HETATM   25  C   UNL     1      25.979  48.531  49.420  1.00  0.00     0.044 A 
HETATM   26  C   UNL     1      27.322  48.352  49.116  1.00  0.00     0.116 A 
HETATM   27  F   UNL     1      28.047  49.392  48.688  1.00  0.00    -0.206 F 
HETATM   28  C   UNL     1      27.926  47.108  49.253  1.00  0.00     0.044 A 
HETATM   29  C   UNL     1      27.175  46.017  49.699  1.00  0.00     0.033 A 
ENDBRANCH   2  23
BRANCH   3  30
HETATM   30  C   UNL     1      25.564  45.241  52.966  1.00  0.00     0.255 C 
HETATM   31  C   UNL     1      25.364  46.753  52.804  1.00  0.00     0.049 C 
BRANCH  30  32
HETATM   32  N   UNL     1      27.076  44.947  53.185  1.00  0.00    -0.060 N 
HETATM   33  H   UNL     1      27.565  45.703  52.680  1.00  0.00     0.280 HD
HETATM   34  C   UNL     1      27.482  44.970  54.641  1.00  0.00     0.236 C 
HETATM   35  C   UNL     1      28.984  44.764  54.780  1.00  0.00     0.028 C 
HETATM   36  C   UNL     1      29.448  43.482  54.107  1.00  0.00     0.003 C 
HETATM   37  C   UNL     1      29.009  43.457  52.653  1.00  0.00     0.028 C 
HETATM   38  C   UNL     1      27.505  43.649  52.514  1.00  0.00     0.236 C 
ENDBRANCH  30  32
ENDBRANCH   3  30
TORSDOF 8
ENDMDL
MODEL 7
REMARK VINA RESULT:      -8.8      3.382     10.302
REMARK  8 active torsions:
REMARK  status: ('A' for Active; 'I' for Inactive)
REMARK    1  A    between atoms: C_5  and  C_6 
REMARK       I    between atoms: C_6  and  N_7 
REMARK    2  A    between atoms: N_7  and  N_8 
REMARK       I    between atoms: N_8  and  C_9 
REMARK    3  A    between atoms: C_9  and  C_10 
REMARK    4  A    between atoms: C_10  and  S_11 
REMARK    5  A    between atoms: S_11  and  C_12 
REMARK    6  A    between atoms: N_13  and  C_14 
REMARK    7  A    between atoms: C_21  and  C_22 
REMARK    8  A    between atoms: C_22  and  N_23 
ROOT
HETATM    1  C   UNL     1      20.967  46.455  47.970  1.00  0.00     0.196 A 
HETATM    2  N   UNL     1      21.382  47.578  48.663  1.00  0.00    -0.274 N 
HETATM    3  C   UNL     1      20.221  48.016  49.293  1.00  0.00     0.166 A 
HETATM    4  N   UNL     1      19.252  47.138  49.113  1.00  0.00    -0.131 NA
HETATM    5  N   UNL     1      19.718  46.169  48.268  1.00  0.00    -0.122 NA
ENDROOT
BRANCH   1   6
HETATM    6  S   UNL     1      21.937  45.561  46.854  1.00  0.00    -0.080 SA
BRANCH   6   7
HETATM    7  C   UNL     1      21.635  43.857  47.398  1.00  0.00     0.187 C 
BRANCH   7   8
HETATM    8  C   UNL     1      22.755  43.238  48.231  1.00  0.00     0.245 C 
HETATM    9  N   UNL     1      23.749  44.162  48.529  1.00  0.00    -0.267 N 
HETATM   10  H   UNL     1      23.936  44.920  47.869  1.00  0.00     0.190 HD
HETATM   11  O   UNL     1      22.793  42.076  48.641  1.00  0.00    -0.271 OA
BRANCH   9  12
HETATM   12  N   UNL     1      24.881  43.705  49.217  1.00  0.00    -0.263 N 
HETATM   13  C   UNL     1      24.948  43.941  50.579  1.00  0.00     0.270 C 
HETATM   14  O   UNL     1      24.024  44.436  51.214  1.00  0.00    -0.266 OA
HETATM   15  H   UNL     1      25.728  43.600  48.670  1.00  0.00     0.190 HD
BRANCH  13  16
HETATM   16  C   UNL     1      26.240  43.584  51.225  1.00  0.00     0.033 A 
HETATM   17  C   UNL     1      26.885  42.370  50.948  1.00  0.00     0.017 A 
HETATM   18  C   UNL     1      28.093  42.061  51.576  1.00  0.00     0.007 A 
HETATM   19  C   UNL     1      28.671  42.959  52.482  1.00  0.00    -0.062 A 
HETATM   20  C   UNL     1      29.939  42.598  53.202  1.00  0.00     0.048 C 
HETATM   21  C   UNL     1      28.009  44.157  52.775  1.00  0.00     0.007 A 
HETATM   22  C   UNL     1      26.798  44.471  52.150  1.00  0.00     0.017 A 
ENDBRANCH  13  16
ENDBRANCH   9  12
ENDBRANCH   7   8
ENDBRANCH   6   7
ENDBRANCH   1   6
BRANCH   2  23
HETATM   23  C   UNL     1      22.646  48.223  48.681  1.00  0.00     0.043 A 
HETATM   24  C   UNL     1      23.699  47.721  49.459  1.00  0.00     0.033 A 
HETATM   25  C   UNL     1      24.933  48.375  49.469  1.00  0.00     0.044 A 
HETATM   26  C   UNL     1      25.111  49.520  48.704  1.00  0.00     0.116 A 
HETATM   27  F   UNL     1      26.294  50.145  48.714  1.00  0.00    -0.206 F 
HETATM   28  C   UNL     1      24.078  50.026  47.923  1.00  0.00     0.044 A 
HETATM   29  C   UNL     1      22.839  49.379  47.908  1.00  0.00     0.033 A 
ENDBRANCH   2  23
BRANCH   3  30
HETATM   30  C   UNL     1      20.002  49.393  49.849  1.00  0.00     0.255 C 
HETATM   31  C   UNL     1      18.848  49.342  50.857  1.00  0.00     0.049 C 
BRANCH  30  32
HETATM   32  N   UNL     1      19.655  50.414  48.728  1.00  0.00    -0.060 N 
HETATM   33  H   UNL     1      20.570  50.733  48.373  1.00  0.00     0.280 HD
HETATM   34  C   UNL     1      18.860  49.807  47.594  1.00  0.00     0.236 C 
HETATM   35  C   UNL     1      18.630  50.833  46.493  1.00  0.00     0.028 C 
HETATM   36  C   UNL     1      17.955  52.090  47.017  1.00  0.00     0.003 C 
HETATM   37  C   UNL     1      18.747  52.674  48.175  1.00  0.00     0.028 C 
HETATM   38  C   UNL     1      18.965  51.653  49.283  1.00  0.00     0.236 C 
ENDBRANCH  30  32
ENDBRANCH   3  30
TORSDOF 8
ENDMDL
MODEL 8
REMARK VINA RESULT:      -8.7      4.525     11.858
REMARK  8 active torsions:
REMARK  status: ('A' for Active; 'I' for Inactive)
REMARK    1  A    between atoms: C_5  and  C_6 
REMARK       I    between atoms: C_6  and  N_7 
REMARK    2  A    between atoms: N_7  and  N_8 
REMARK       I    between atoms: N_8  and  C_9 
REMARK    3  A    between atoms: C_9  and  C_10 
REMARK    4  A    between atoms: C_10  and  S_11 
REMARK    5  A    between atoms: S_11  and  C_12 
REMARK    6  A    between atoms: N_13  and  C_14 
REMARK    7  A    between atoms: C_21  and  C_22 
REMARK    8  A    between atoms: C_22  and  N_23 
ROOT
HETATM    1  C   UNL     1      21.670  47.466  47.638  1.00  0.00     0.196 A 
HETATM    2  N   UNL     1      20.448  48.109  47.577  1.00  0.00    -0.274 N 
HETATM    3  C   UNL     1      19.787  47.450  46.545  1.00  0.00     0.166 A 
HETATM    4  N   UNL     1      20.497  46.410  46.148  1.00  0.00    -0.131 NA
HETATM    5  N   UNL     1      21.686  46.434  46.824  1.00  0.00    -0.122 NA
ENDROOT
BRANCH   1   6
HETATM    6  S   UNL     1      23.001  47.953  48.628  1.00  0.00    -0.080 SA
BRANCH   6   7
HETATM    7  C   UNL     1      23.602  46.353  49.236  1.00  0.00     0.187 C 
BRANCH   7   8
HETATM    8  C   UNL     1      24.771  46.434  50.216  1.00  0.00     0.245 C 
HETATM    9  N   UNL     1      25.406  45.207  50.365  1.00  0.00    -0.267 N 
HETATM   10  H   UNL     1      24.860  44.349  50.261  1.00  0.00     0.190 HD
HETATM   11  O   UNL     1      25.159  47.450  50.796  1.00  0.00    -0.271 OA
BRANCH   9  12
HETATM   12  N   UNL     1      26.445  45.118  51.302  1.00  0.00    -0.263 N 
HETATM   13  C   UNL     1      27.138  43.923  51.386  1.00  0.00     0.270 C 
HETATM   14  O   UNL     1      26.949  42.989  50.615  1.00  0.00    -0.266 OA
HETATM   15  H   UNL     1      26.380  45.734  52.103  1.00  0.00     0.190 HD
BRANCH  13  16
HETATM   16  C   UNL     1      28.114  43.831  52.505  1.00  0.00     0.033 A 
HETATM   17  C   UNL     1      29.297  43.089  52.384  1.00  0.00     0.017 A 
HETATM   18  C   UNL     1      30.190  43.015  53.456  1.00  0.00     0.007 A 
HETATM   19  C   UNL     1      29.914  43.684  54.655  1.00  0.00    -0.062 A 
HETATM   20  C   UNL     1      30.845  43.555  55.826  1.00  0.00     0.048 C 
HETATM   21  C   UNL     1      28.718  44.402  54.779  1.00  0.00     0.007 A 
HETATM   22  C   UNL     1      27.820  44.477  53.709  1.00  0.00     0.017 A 
ENDBRANCH  13  16
ENDBRANCH   9  12
ENDBRANCH   7   8
ENDBRANCH   6   7
ENDBRANCH   1   6
BRANCH   2  23
HETATM   23  C   UNL     1      19.972  49.236  48.297  1.00  0.00     0.043 A 
HETATM   24  C   UNL     1      20.274  50.539  47.876  1.00  0.00     0.033 A 
HETATM   25  C   UNL     1      19.802  51.635  48.603  1.00  0.00     0.044 A 
HETATM   26  C   UNL     1      19.032  51.426  49.739  1.00  0.00     0.116 A 
HETATM   27  F   UNL     1      18.581  52.477  50.434  1.00  0.00    -0.206 F 
HETATM   28  C   UNL     1      18.720  50.140  50.165  1.00  0.00     0.044 A 
HETATM   29  C   UNL     1      19.189  49.038  49.445  1.00  0.00     0.033 A 
ENDBRANCH   2  23
BRANCH   3  30
HETATM   30  C   UNL     1      18.599  47.979  45.797  1.00  0.00     0.255 C 
HETATM   31  C   UNL     1      17.612  46.830  45.558  1.00  0.00     0.049 C 
BRANCH  30  32
HETATM   32  N   UNL     1      19.011  48.589  44.427  1.00  0.00    -0.060 N 
HETATM   33  H   UNL     1      20.023  48.771  44.516  1.00  0.00     0.280 HD
HETATM   34  C   UNL     1      18.768  47.658  43.262  1.00  0.00     0.236 C 
HETATM   35  C   UNL     1      19.273  48.278  41.966  1.00  0.00     0.028 C 
HETATM   36  C   UNL     1      18.653  49.642  41.709  1.00  0.00     0.003 C 
HETATM   37  C   UNL     1      18.878  50.561  42.898  1.00  0.00     0.028 C 
HETATM   38  C   UNL     1      18.361  49.947  44.191  1.00  0.00     0.236 C 
ENDBRANCH  30  32
ENDBRANCH   3  30
TORSDOF 8
ENDMDL
MODEL 9
REMARK VINA RESULT:      -8.6      3.648     10.859
REMARK  8 active torsions:
REMARK  status: ('A' for Active; 'I' for Inactive)
REMARK    1  A    between atoms: C_5  and  C_6 
REMARK       I    between atoms: C_6  and  N_7 
REMARK    2  A    between atoms: N_7  and  N_8 
REMARK       I    between atoms: N_8  and  C_9 
REMARK    3  A    between atoms: C_9  and  C_10 
REMARK    4  A    between atoms: C_10  and  S_11 
REMARK    5  A    between atoms: S_11  and  C_12 
REMARK    6  A    between atoms: N_13  and  C_14 
REMARK    7  A    between atoms: C_21  and  C_22 
REMARK    8  A    between atoms: C_22  and  N_23 
ROOT
HETATM    1  C   UNL     1      21.578  45.586  48.755  1.00  0.00     0.196 A 
HETATM    2  N   UNL     1      21.010  46.820  48.497  1.00  0.00    -0.274 N 
HETATM    3  C   UNL     1      19.735  46.500  48.041  1.00  0.00     0.166 A 
HETATM    4  N   UNL     1      19.522  45.204  48.173  1.00  0.00    -0.131 NA
HETATM    5  N   UNL     1      20.686  44.631  48.605  1.00  0.00    -0.122 NA
ENDROOT
BRANCH   1   6
HETATM    6  S   UNL     1      23.228  45.323  49.195  1.00  0.00    -0.080 SA
BRANCH   6   7
HETATM    7  C   UNL     1      23.189  43.590  49.726  1.00  0.00     0.187 C 
BRANCH   7   8
HETATM    8  C   UNL     1      24.357  43.159  50.611  1.00  0.00     0.245 C 
HETATM    9  N   UNL     1      24.471  43.959  51.742  1.00  0.00    -0.267 N 
HETATM   10  H   UNL     1      24.177  44.937  51.690  1.00  0.00     0.190 HD
HETATM   11  O   UNL     1      25.108  42.204  50.403  1.00  0.00    -0.271 OA
BRANCH   9  12
HETATM   12  N   UNL     1      25.555  43.729  52.600  1.00  0.00    -0.263 N 
HETATM   13  C   UNL     1      26.446  44.766  52.808  1.00  0.00     0.270 C 
HETATM   14  O   UNL     1      26.272  45.893  52.359  1.00  0.00    -0.266 OA
HETATM   15  H   UNL     1      25.853  42.765  52.697  1.00  0.00     0.190 HD
BRANCH  13  16
HETATM   16  C   UNL     1      27.661  44.415  53.592  1.00  0.00     0.033 A 
HETATM   17  C   UNL     1      28.345  43.209  53.380  1.00  0.00     0.017 A 
HETATM   18  C   UNL     1      29.478  42.905  54.137  1.00  0.00     0.007 A 
HETATM   19  C   UNL     1      29.942  43.800  55.109  1.00  0.00    -0.062 A 
HETATM   20  C   UNL     1      31.125  43.444  55.963  1.00  0.00     0.048 C 
HETATM   21  C   UNL     1      29.240  44.991  55.334  1.00  0.00     0.007 A 
HETATM   22  C   UNL     1      28.104  45.299  54.580  1.00  0.00     0.017 A 
ENDBRANCH  13  16
ENDBRANCH   9  12
ENDBRANCH   7   8
ENDBRANCH   6   7
ENDBRANCH   1   6
BRANCH   2  23
HETATM   23  C   UNL     1      21.579  48.118  48.567  1.00  0.00     0.043 A 
HETATM   24  C   UNL     1      21.233  49.001  49.600  1.00  0.00     0.033 A 
HETATM   25  C   UNL     1      21.798  50.277  49.648  1.00  0.00     0.044 A 
HETATM   26  C   UNL     1      22.705  50.664  48.670  1.00  0.00     0.116 A 
HETATM   27  F   UNL     1      23.246  51.887  48.718  1.00  0.00    -0.206 F 
HETATM   28  C   UNL     1      23.062  49.799  47.643  1.00  0.00     0.044 A 
HETATM   29  C   UNL     1      22.500  48.520  47.586  1.00  0.00     0.033 A 
ENDBRANCH   2  23
BRANCH   3  30
HETATM   30  C   UNL     1      18.839  47.414  47.258  1.00  0.00     0.255 C 
HETATM   31  C   UNL     1      19.332  47.470  45.807  1.00  0.00     0.049 C 
BRANCH  30  32
HETATM   32  N   UNL     1      18.832  48.853  47.850  1.00  0.00    -0.060 N 
HETATM   33  H   UNL     1      19.661  48.887  48.464  1.00  0.00     0.280 HD
HETATM   34  C   UNL     1      18.942  49.932  46.796  1.00  0.00     0.236 C 
HETATM   35  C   UNL     1      19.020  51.307  47.445  1.00  0.00     0.028 C 
HETATM   36  C   UNL     1      17.840  51.568  48.367  1.00  0.00     0.003 C 
HETATM   37  C   UNL     1      17.721  50.463  49.404  1.00  0.00     0.028 C 
HETATM   38  C   UNL     1      17.630  49.089  48.755  1.00  0.00     0.236 C 
ENDBRANCH  30  32
ENDBRANCH   3  30
TORSDOF 8
ENDMDL
MODEL 10
REMARK VINA RESULT:      -8.6      4.996     11.090
REMARK  8 active torsions:
REMARK  status: ('A' for Active; 'I' for Inactive)
REMARK    1  A    between atoms: C_5  and  C_6 
REMARK       I    between atoms: C_6  and  N_7 
REMARK    2  A    between atoms: N_7  and  N_8 
REMARK       I    between atoms: N_8  and  C_9 
REMARK    3  A    between atoms: C_9  and  C_10 
REMARK    4  A    between atoms: C_10  and  S_11 
REMARK    5  A    between atoms: S_11  and  C_12 
REMARK    6  A    between atoms: N_13  and  C_14 
REMARK    7  A    between atoms: C_21  and  C_22 
REMARK    8  A    between atoms: C_22  and  N_23 
ROOT
HETATM    1  C   UNL     1      22.111  45.258  48.689  1.00  0.00     0.196 A 
HETATM    2  N   UNL     1      21.145  46.173  48.310  1.00  0.00    -0.274 N 
HETATM    3  C   UNL     1      20.204  45.393  47.646  1.00  0.00     0.166 A 
HETATM    4  N   UNL     1      20.513  44.115  47.766  1.00  0.00    -0.131 NA
HETATM    5  N   UNL     1      21.718  44.035  48.406  1.00  0.00    -0.122 NA
ENDROOT
BRANCH   1   6
HETATM    6  S   UNL     1      23.628  45.656  49.414  1.00  0.00    -0.080 SA
BRANCH   6   7
HETATM    7  C   UNL     1      24.663  44.270  48.871  1.00  0.00     0.187 C 
BRANCH   7   8
HETATM    8  C   UNL     1      25.849  43.955  49.781  1.00  0.00     0.245 C 
HETATM    9  N   UNL     1      25.454  43.769  51.100  1.00  0.00    -0.267 N 
HETATM   10  H   UNL     1      24.637  44.275  51.450  1.00  0.00     0.190 HD
HETATM   11  O   UNL     1      27.023  43.836  49.422  1.00  0.00    -0.271 OA
BRANCH   9  12
HETATM   12  N   UNL     1      26.455  43.558  52.058  1.00  0.00    -0.263 N 
HETATM   13  C   UNL     1      26.841  44.635  52.837  1.00  0.00     0.270 C 
HETATM   14  O   UNL     1      26.282  45.724  52.790  1.00  0.00    -0.266 OA
HETATM   15  H   UNL     1      27.097  42.796  51.876  1.00  0.00     0.190 HD
BRANCH  13  16
HETATM   16  C   UNL     1      28.016  44.394  53.717  1.00  0.00     0.033 A 
HETATM   17  C   UNL     1      28.804  43.242  53.587  1.00  0.00     0.017 A 
HETATM   18  C   UNL     1      29.896  43.042  54.434  1.00  0.00     0.007 A 
HETATM   19  C   UNL     1      30.215  43.989  55.415  1.00  0.00    -0.062 A 
HETATM   20  C   UNL     1      31.353  43.744  56.364  1.00  0.00     0.048 C 
HETATM   21  C   UNL     1      29.408  45.125  55.558  1.00  0.00     0.007 A 
HETATM   22  C   UNL     1      28.313  45.329  54.714  1.00  0.00     0.017 A 
ENDBRANCH  13  16
ENDBRANCH   9  12
ENDBRANCH   7   8
ENDBRANCH   6   7
ENDBRANCH   1   6
BRANCH   2  23
HETATM   23  C   UNL     1      21.121  47.585  48.452  1.00  0.00     0.043 A 
HETATM   24  C   UNL     1      20.210  48.206  49.319  1.00  0.00     0.033 A 
HETATM   25  C   UNL     1      20.198  49.597  49.439  1.00  0.00     0.044 A 
HETATM   26  C   UNL     1      21.092  50.359  48.699  1.00  0.00     0.116 A 
HETATM   27  F   UNL     1      21.079  51.692  48.816  1.00  0.00    -0.206 F 
HETATM   28  C   UNL     1      22.004  49.758  47.840  1.00  0.00     0.044 A 
HETATM   29  C   UNL     1      22.024  48.366  47.713  1.00  0.00     0.033 A 
ENDBRANCH   2  23
BRANCH   3  30
HETATM   30  C   UNL     1      19.159  45.910  46.701  1.00  0.00     0.255 C 
HETATM   31  C   UNL     1      17.814  45.258  47.044  1.00  0.00     0.049 C 
BRANCH  30  32
HETATM   32  N   UNL     1      19.518  45.591  45.222  1.00  0.00    -0.060 N 
HETATM   33  H   UNL     1      20.531  45.393  45.236  1.00  0.00     0.280 HD
HETATM   34  C   UNL     1      18.779  44.392  44.674  1.00  0.00     0.236 C 
HETATM   35  C   UNL     1      19.240  44.081  43.257  1.00  0.00     0.028 C 
HETATM   36  C   UNL     1      19.089  45.279  42.333  1.00  0.00     0.003 C 
HETATM   37  C   UNL     1      19.811  46.487  42.908  1.00  0.00     0.028 C 
HETATM   38  C   UNL     1      19.341  46.806  44.320  1.00  0.00     0.236 C 
ENDBRANCH  30  32
ENDBRANCH   3  30
TORSDOF 8
ENDMDL
