MODEL 1
REMARK VINA RESULT:      -8.1      0.000      0.000
REMARK  2 active torsions:
REMARK  status: ('A' for Active; 'I' for Inactive)
REMARK    1  A    between atoms: C_8  and  S_9 
REMARK    2  A    between atoms: S_9  and  C_10 
ROOT
HETATM    1  C   UNL     1      30.671  43.267  55.326  1.00  0.00     0.002 A 
HETATM    2  C   UNL     1      29.609  43.526  54.459  1.00  0.00     0.034 A 
HETATM    3  C   UNL     1      28.826  44.667  54.595  1.00  0.00     0.087 A 
HETATM    4  C   UNL     1      29.114  45.574  55.649  1.00  0.00     0.087 A 
HETATM    5  N   UNL     1      28.377  46.682  55.840  1.00  0.00    -0.232 NA
HETATM    6  C   UNL     1      27.349  46.887  54.987  1.00  0.00     0.164 A 
HETATM    7 CL   UNL     1      26.430  48.287  55.353  1.00  0.00    -0.059 Cl
HETATM    8  C   UNL     1      27.076  46.013  53.947  1.00  0.00     0.165 A 
HETATM    9  N   UNL     1      27.812  44.890  53.728  1.00  0.00    -0.234 NA
HETATM   10  C   UNL     1      30.177  45.307  56.501  1.00  0.00     0.034 A 
HETATM   11  C   UNL     1      30.958  44.162  56.348  1.00  0.00     0.002 A 
ENDROOT
BRANCH   8  12
HETATM   12  S   UNL     1      25.718  46.212  52.792  1.00  0.00     0.078 S 
HETATM   13  O   UNL     1      25.997  47.482  52.042  1.00  0.00    -0.251 OA
BRANCH  12  14
HETATM   14  C   UNL     1      26.037  44.854  51.605  1.00  0.00     0.112 C 
HETATM   15  C   UNL     1      26.075  45.404  50.175  1.00  0.00     0.250 C 
HETATM   16  N   UNL     1      26.194  44.277  49.187  1.00  0.00    -0.074 N 
HETATM   17  H   UNL     1      27.106  43.810  49.296  1.00  0.00     0.277 HD
HETATM   18  H   UNL     1      26.202  44.677  48.237  1.00  0.00     0.277 HD
HETATM   19  C   UNL     1      25.089  43.278  49.279  1.00  0.00     0.232 C 
HETATM   20  C   UNL     1      25.056  42.704  50.687  1.00  0.00     0.029 C 
HETATM   21  C   UNL     1      24.924  43.804  51.742  1.00  0.00     0.021 C 
ENDBRANCH  12  14
ENDBRANCH   8  12
TORSDOF 2
ENDMDL
MODEL 2
REMARK VINA RESULT:      -7.5      2.968      3.819
REMARK  2 active torsions:
REMARK  status: ('A' for Active; 'I' for Inactive)
REMARK    1  A    between atoms: C_8  and  S_9 
REMARK    2  A    between atoms: S_9  and  C_10 
ROOT
HETATM    1  C   UNL     1      29.719  45.435  55.907  1.00  0.00     0.002 A 
HETATM    2  C   UNL     1      28.756  45.484  54.898  1.00  0.00     0.034 A 
HETATM    3  C   UNL     1      28.605  44.440  53.993  1.00  0.00     0.087 A 
HETATM    4  C   UNL     1      29.460  43.311  54.098  1.00  0.00     0.087 A 
HETATM    5  N   UNL     1      29.371  42.283  53.237  1.00  0.00    -0.232 NA
HETATM    6  C   UNL     1      28.436  42.377  52.266  1.00  0.00     0.164 A 
HETATM    7 CL   UNL     1      28.447  41.051  51.179  1.00  0.00    -0.059 Cl
HETATM    8  C   UNL     1      27.588  43.469  52.171  1.00  0.00     0.165 A 
HETATM    9  N   UNL     1      27.653  44.518  53.035  1.00  0.00    -0.234 NA
HETATM   10  C   UNL     1      30.410  43.272  55.110  1.00  0.00     0.034 A 
HETATM   11  C   UNL     1      30.545  44.324  56.016  1.00  0.00     0.002 A 
ENDROOT
BRANCH   8  12
HETATM   12  S   UNL     1      26.341  43.670  50.898  1.00  0.00     0.078 S 
HETATM   13  O   UNL     1      25.095  43.029  51.436  1.00  0.00    -0.251 OA
BRANCH  12  14
HETATM   14  C   UNL     1      26.035  45.475  50.958  1.00  0.00     0.112 C 
HETATM   15  C   UNL     1      24.532  45.757  50.863  1.00  0.00     0.250 C 
HETATM   16  N   UNL     1      24.285  47.238  50.768  1.00  0.00    -0.074 N 
HETATM   17  H   UNL     1      24.568  47.698  51.646  1.00  0.00     0.277 HD
HETATM   18  H   UNL     1      23.270  47.395  50.691  1.00  0.00     0.277 HD
HETATM   19  C   UNL     1      24.961  47.886  49.606  1.00  0.00     0.232 C 
HETATM   20  C   UNL     1      26.458  47.636  49.700  1.00  0.00     0.029 C 
HETATM   21  C   UNL     1      26.777  46.142  49.788  1.00  0.00     0.021 C 
ENDBRANCH  12  14
ENDBRANCH   8  12
TORSDOF 2
ENDMDL
MODEL 3
REMARK VINA RESULT:      -7.4      2.081      2.729
REMARK  2 active torsions:
REMARK  status: ('A' for Active; 'I' for Inactive)
REMARK    1  A    between atoms: C_8  and  S_9 
REMARK    2  A    between atoms: S_9  and  C_10 
ROOT
HETATM    1  C   UNL     1      30.621  43.282  55.059  1.00  0.00     0.002 A 
HETATM    2  C   UNL     1      29.673  43.276  54.035  1.00  0.00     0.034 A 
HETATM    3  C   UNL     1      28.708  44.272  53.938  1.00  0.00     0.087 A 
HETATM    4  C   UNL     1      28.689  45.305  54.912  1.00  0.00     0.087 A 
HETATM    5  N   UNL     1      27.766  46.282  54.878  1.00  0.00    -0.232 NA
HETATM    6  C   UNL     1      26.857  46.230  53.880  1.00  0.00     0.164 A 
HETATM    7 CL   UNL     1      25.684  47.478  53.961  1.00  0.00    -0.059 Cl
HETATM    8  C   UNL     1      26.884  45.233  52.917  1.00  0.00     0.165 A 
HETATM    9  N   UNL     1      27.812  44.239  52.926  1.00  0.00    -0.234 NA
HETATM   10  C   UNL     1      29.642  45.303  55.921  1.00  0.00     0.034 A 
HETATM   11  C   UNL     1      30.608  44.301  56.003  1.00  0.00     0.002 A 
ENDROOT
BRANCH   8  12
HETATM   12  S   UNL     1      25.698  45.091  51.579  1.00  0.00     0.078 S 
HETATM   13  O   UNL     1      24.382  44.773  52.226  1.00  0.00    -0.251 OA
BRANCH  12  14
HETATM   14  C   UNL     1      25.566  46.827  51.012  1.00  0.00     0.112 C 
HETATM   15  C   UNL     1      24.263  47.027  50.230  1.00  0.00     0.250 C 
HETATM   16  N   UNL     1      24.216  48.410  49.642  1.00  0.00    -0.074 N 
HETATM   17  H   UNL     1      24.162  49.111  50.396  1.00  0.00     0.277 HD
HETATM   18  H   UNL     1      23.338  48.509  49.112  1.00  0.00     0.277 HD
HETATM   19  C   UNL     1      25.362  48.717  48.736  1.00  0.00     0.232 C 
HETATM   20  C   UNL     1      26.663  48.547  49.506  1.00  0.00     0.029 C 
HETATM   21  C   UNL     1      26.776  47.152  50.122  1.00  0.00     0.021 C 
ENDBRANCH  12  14
ENDBRANCH   8  12
TORSDOF 2
ENDMDL
MODEL 4
REMARK VINA RESULT:      -7.1      4.274      7.737
REMARK  2 active torsions:
REMARK  status: ('A' for Active; 'I' for Inactive)
REMARK    1  A    between atoms: C_8  and  S_9 
REMARK    2  A    between atoms: S_9  and  C_10 
ROOT
HETATM    1  C   UNL     1      21.125  49.819  48.676  1.00  0.00     0.002 A 
HETATM    2  C   UNL     1      21.758  48.637  49.062  1.00  0.00     0.034 A 
HETATM    3  C   UNL     1      23.143  48.559  49.164  1.00  0.00     0.087 A 
HETATM    4  C   UNL     1      23.919  49.708  48.856  1.00  0.00     0.087 A 
HETATM    5  N   UNL     1      25.261  49.683  48.918  1.00  0.00    -0.232 NA
HETATM    6  C   UNL     1      25.835  48.514  49.281  1.00  0.00     0.164 A 
HETATM    7 CL   UNL     1      27.549  48.563  49.265  1.00  0.00    -0.059 Cl
HETATM    8  C   UNL     1      25.080  47.396  49.599  1.00  0.00     0.165 A 
HETATM    9  N   UNL     1      23.720  47.399  49.552  1.00  0.00    -0.234 NA
HETATM   10  C   UNL     1      23.276  50.879  48.480  1.00  0.00     0.034 A 
HETATM   11  C   UNL     1      21.886  50.945  48.389  1.00  0.00     0.002 A 
ENDROOT
BRANCH   8  12
HETATM   12  S   UNL     1      25.774  45.810  50.067  1.00  0.00     0.078 S 
HETATM   13  O   UNL     1      26.945  45.587  49.155  1.00  0.00    -0.251 OA
BRANCH  12  14
HETATM   14  C   UNL     1      26.489  46.186  51.710  1.00  0.00     0.112 C 
HETATM   15  C   UNL     1      26.841  44.886  52.440  1.00  0.00     0.250 C 
HETATM   16  N   UNL     1      27.296  45.184  53.843  1.00  0.00    -0.074 N 
HETATM   17  H   UNL     1      28.186  45.704  53.821  1.00  0.00     0.277 HD
HETATM   18  H   UNL     1      27.511  44.291  54.312  1.00  0.00     0.277 HD
HETATM   19  C   UNL     1      26.287  45.923  54.657  1.00  0.00     0.232 C 
HETATM   20  C   UNL     1      25.945  47.229  53.956  1.00  0.00     0.029 C 
HETATM   21  C   UNL     1      25.465  46.993  52.524  1.00  0.00     0.021 C 
ENDBRANCH  12  14
ENDBRANCH   8  12
TORSDOF 2
ENDMDL
MODEL 5
REMARK VINA RESULT:      -7.1      3.107      4.411
REMARK  2 active torsions:
REMARK  status: ('A' for Active; 'I' for Inactive)
REMARK    1  A    between atoms: C_8  and  S_9 
REMARK    2  A    between atoms: S_9  and  C_10 
ROOT
HETATM    1  C   UNL     1      27.692  47.100  55.807  1.00  0.00     0.002 A 
HETATM    2  C   UNL     1      26.991  47.284  54.614  1.00  0.00     0.034 A 
HETATM    3  C   UNL     1      26.982  46.308  53.624  1.00  0.00     0.087 A 
HETATM    4  C   UNL     1      27.713  45.109  53.835  1.00  0.00     0.087 A 
HETATM    5  N   UNL     1      27.755  44.141  52.903  1.00  0.00    -0.232 NA
HETATM    6  C   UNL     1      27.075  44.366  51.757  1.00  0.00     0.164 A 
HETATM    7 CL   UNL     1      27.245  43.106  50.607  1.00  0.00    -0.059 Cl
HETATM    8  C   UNL     1      26.346  45.527  51.555  1.00  0.00     0.165 A 
HETATM    9  N   UNL     1      26.282  46.517  52.486  1.00  0.00    -0.234 NA
HETATM   10  C   UNL     1      28.401  44.936  55.028  1.00  0.00     0.034 A 
HETATM   11  C   UNL     1      28.396  45.921  56.016  1.00  0.00     0.002 A 
ENDROOT
BRANCH   8  12
HETATM   12  S   UNL     1      25.439  45.900  50.053  1.00  0.00     0.078 S 
HETATM   13  O   UNL     1      23.987  45.747  50.400  1.00  0.00    -0.251 OA
BRANCH  12  14
HETATM   14  C   UNL     1      25.721  47.702  49.886  1.00  0.00     0.112 C 
HETATM   15  C   UNL     1      24.631  48.325  49.008  1.00  0.00     0.250 C 
HETATM   16  N   UNL     1      24.936  49.775  48.750  1.00  0.00    -0.074 N 
HETATM   17  H   UNL     1      24.878  50.308  49.631  1.00  0.00     0.277 HD
HETATM   18  H   UNL     1      24.195  50.162  48.147  1.00  0.00     0.277 HD
HETATM   19  C   UNL     1      26.258  50.004  48.095  1.00  0.00     0.232 C 
HETATM   20  C   UNL     1      27.353  49.412  48.969  1.00  0.00     0.029 C 
HETATM   21  C   UNL     1      27.106  47.931  49.259  1.00  0.00     0.021 C 
ENDBRANCH  12  14
ENDBRANCH   8  12
TORSDOF 2
ENDMDL
MODEL 6
REMARK VINA RESULT:      -7.0      4.271      7.448
REMARK  2 active torsions:
REMARK  status: ('A' for Active; 'I' for Inactive)
REMARK    1  A    between atoms: C_8  and  S_9 
REMARK    2  A    between atoms: S_9  and  C_10 
ROOT
HETATM    1  C   UNL     1      21.256  49.536  48.399  1.00  0.00     0.002 A 
HETATM    2  C   UNL     1      21.995  48.692  49.229  1.00  0.00     0.034 A 
HETATM    3  C   UNL     1      23.384  48.736  49.253  1.00  0.00     0.087 A 
HETATM    4  C   UNL     1      24.056  49.654  48.403  1.00  0.00     0.087 A 
HETATM    5  N   UNL     1      25.398  49.725  48.370  1.00  0.00    -0.232 NA
HETATM    6  C   UNL     1      26.075  48.879  49.178  1.00  0.00     0.164 A 
HETATM    7 CL   UNL     1      27.777  48.998  49.015  1.00  0.00    -0.059 Cl
HETATM    8  C   UNL     1      25.422  47.994  50.021  1.00  0.00     0.165 A 
HETATM    9  N   UNL     1      24.066  47.909  50.078  1.00  0.00    -0.234 NA
HETATM   10  C   UNL     1      23.309  50.493  47.587  1.00  0.00     0.034 A 
HETATM   11  C   UNL     1      21.916  50.443  47.578  1.00  0.00     0.002 A 
ENDROOT
BRANCH   8  12
HETATM   12  S   UNL     1      26.255  46.830  51.103  1.00  0.00     0.078 S 
HETATM   13  O   UNL     1      25.941  47.271  52.503  1.00  0.00    -0.251 OA
BRANCH  12  14
HETATM   14  C   UNL     1      25.279  45.305  50.831  1.00  0.00     0.112 C 
HETATM   15  C   UNL     1      25.533  44.309  51.968  1.00  0.00     0.250 C 
HETATM   16  N   UNL     1      24.846  43.003  51.679  1.00  0.00    -0.074 N 
HETATM   17  H   UNL     1      23.824  43.134  51.689  1.00  0.00     0.277 HD
HETATM   18  H   UNL     1      25.047  42.351  52.451  1.00  0.00     0.277 HD
HETATM   19  C   UNL     1      25.272  42.372  50.395  1.00  0.00     0.232 C 
HETATM   20  C   UNL     1      25.003  43.340  49.253  1.00  0.00     0.029 C 
HETATM   21  C   UNL     1      25.685  44.689  49.483  1.00  0.00     0.021 C 
ENDBRANCH  12  14
ENDBRANCH   8  12
TORSDOF 2
ENDMDL
MODEL 7
REMARK VINA RESULT:      -6.9      4.777      8.275
REMARK  2 active torsions:
REMARK  status: ('A' for Active; 'I' for Inactive)
REMARK    1  A    between atoms: C_8  and  S_9 
REMARK    2  A    between atoms: S_9  and  C_10 
ROOT
HETATM    1  C   UNL     1      21.294  51.276  48.768  1.00  0.00     0.002 A 
HETATM    2  C   UNL     1      22.512  50.757  49.210  1.00  0.00     0.034 A 
HETATM    3  C   UNL     1      22.780  49.394  49.151  1.00  0.00     0.087 A 
HETATM    4  C   UNL     1      21.783  48.520  48.641  1.00  0.00     0.087 A 
HETATM    5  N   UNL     1      21.982  47.192  48.580  1.00  0.00    -0.232 NA
HETATM    6  C   UNL     1      23.168  46.729  49.032  1.00  0.00     0.164 A 
HETATM    7 CL   UNL     1      23.298  45.021  48.976  1.00  0.00    -0.059 Cl
HETATM    8  C   UNL     1      24.150  47.581  49.514  1.00  0.00     0.165 A 
HETATM    9  N   UNL     1      23.976  48.928  49.578  1.00  0.00    -0.234 NA
HETATM   10  C   UNL     1      20.579  49.050  48.200  1.00  0.00     0.034 A 
HETATM   11  C   UNL     1      20.326  50.420  48.258  1.00  0.00     0.002 A 
ENDROOT
BRANCH   8  12
HETATM   12  S   UNL     1      25.736  47.035  50.147  1.00  0.00     0.078 S 
HETATM   13  O   UNL     1      26.533  48.283  50.394  1.00  0.00    -0.251 OA
BRANCH  12  14
HETATM   14  C   UNL     1      25.279  46.404  51.804  1.00  0.00     0.112 C 
HETATM   15  C   UNL     1      26.076  47.140  52.886  1.00  0.00     0.250 C 
HETATM   16  N   UNL     1      25.810  46.530  54.235  1.00  0.00    -0.074 N 
HETATM   17  H   UNL     1      24.828  46.686  54.503  1.00  0.00     0.277 HD
HETATM   18  H   UNL     1      26.370  47.035  54.937  1.00  0.00     0.277 HD
HETATM   19  C   UNL     1      26.142  45.076  54.312  1.00  0.00     0.232 C 
HETATM   20  C   UNL     1      25.338  44.328  53.260  1.00  0.00     0.029 C 
HETATM   21  C   UNL     1      25.573  44.896  51.859  1.00  0.00     0.021 C 
ENDBRANCH  12  14
ENDBRANCH   8  12
TORSDOF 2
ENDMDL
MODEL 8
REMARK VINA RESULT:      -6.8      6.284      8.160
REMARK  2 active torsions:
REMARK  status: ('A' for Active; 'I' for Inactive)
REMARK    1  A    between atoms: C_8  and  S_9 
REMARK    2  A    between atoms: S_9  and  C_10 
ROOT
HETATM    1  C   UNL     1      25.306  45.029  50.715  1.00  0.00     0.002 A 
HETATM    2  C   UNL     1      24.138  45.416  50.057  1.00  0.00     0.034 A 
HETATM    3  C   UNL     1      23.984  46.704  49.555  1.00  0.00     0.087 A 
HETATM    4  C   UNL     1      25.039  47.639  49.731  1.00  0.00     0.087 A 
HETATM    5  N   UNL     1      24.936  48.902  49.284  1.00  0.00    -0.232 NA
HETATM    6  C   UNL     1      23.782  49.240  48.667  1.00  0.00     0.164 A 
HETATM    7 CL   UNL     1      23.720  50.887  48.195  1.00  0.00    -0.059 Cl
HETATM    8  C   UNL     1      22.758  48.326  48.478  1.00  0.00     0.165 A 
HETATM    9  N   UNL     1      22.842  47.040  48.914  1.00  0.00    -0.234 NA
HETATM   10  C   UNL     1      26.198  47.238  50.382  1.00  0.00     0.034 A 
HETATM   11  C   UNL     1      26.341  45.941  50.874  1.00  0.00     0.002 A 
ENDROOT
BRANCH   8  12
HETATM   12  S   UNL     1      21.195  48.710  47.688  1.00  0.00     0.078 S 
HETATM   13  O   UNL     1      20.404  47.434  47.695  1.00  0.00    -0.251 OA
BRANCH  12  14
HETATM   14  C   UNL     1      20.403  49.792  48.936  1.00  0.00     0.112 C 
HETATM   15  C   UNL     1      19.207  49.074  49.570  1.00  0.00     0.250 C 
HETATM   16  N   UNL     1      18.468  50.006  50.490  1.00  0.00    -0.074 N 
HETATM   17  H   UNL     1      19.064  50.251  51.294  1.00  0.00     0.277 HD
HETATM   18  H   UNL     1      17.663  49.501  50.889  1.00  0.00     0.277 HD
HETATM   19  C   UNL     1      17.973  51.244  49.819  1.00  0.00     0.232 C 
HETATM   20  C   UNL     1      19.154  51.982  49.206  1.00  0.00     0.029 C 
HETATM   21  C   UNL     1      19.942  51.087  48.248  1.00  0.00     0.021 C 
ENDBRANCH  12  14
ENDBRANCH   8  12
TORSDOF 2
ENDMDL
MODEL 9
REMARK VINA RESULT:      -6.8      3.300      6.457
REMARK  2 active torsions:
REMARK  status: ('A' for Active; 'I' for Inactive)
REMARK    1  A    between atoms: C_8  and  S_9 
REMARK    2  A    between atoms: S_9  and  C_10 
ROOT
HETATM    1  C   UNL     1      27.265  49.443  48.831  1.00  0.00     0.002 A 
HETATM    2  C   UNL     1      27.620  48.138  49.179  1.00  0.00     0.034 A 
HETATM    3  C   UNL     1      26.656  47.183  49.480  1.00  0.00     0.087 A 
HETATM    4  C   UNL     1      25.286  47.556  49.443  1.00  0.00     0.087 A 
HETATM    5  N   UNL     1      24.314  46.678  49.745  1.00  0.00    -0.232 NA
HETATM    6  C   UNL     1      24.701  45.431  50.091  1.00  0.00     0.164 A 
HETATM    7 CL   UNL     1      23.395  44.408  50.523  1.00  0.00    -0.059 Cl
HETATM    8  C   UNL     1      26.036  45.059  50.111  1.00  0.00     0.165 A 
HETATM    9  N   UNL     1      27.038  45.926  49.802  1.00  0.00    -0.234 NA
HETATM   10  C   UNL     1      24.947  48.855  49.090  1.00  0.00     0.034 A 
HETATM   11  C   UNL     1      25.924  49.801  48.783  1.00  0.00     0.002 A 
ENDROOT
BRANCH   8  12
HETATM   12  S   UNL     1      26.623  43.430  50.580  1.00  0.00     0.078 S 
HETATM   13  O   UNL     1      27.314  42.877  49.368  1.00  0.00    -0.251 OA
BRANCH  12  14
HETATM   14  C   UNL     1      27.955  43.841  51.767  1.00  0.00     0.112 C 
HETATM   15  C   UNL     1      28.801  42.597  52.059  1.00  0.00     0.250 C 
HETATM   16  N   UNL     1      29.806  42.893  53.137  1.00  0.00    -0.074 N 
HETATM   17  H   UNL     1      30.492  43.584  52.800  1.00  0.00     0.277 HD
HETATM   18  H   UNL     1      30.348  42.036  53.322  1.00  0.00     0.277 HD
HETATM   19  C   UNL     1      29.194  43.358  54.417  1.00  0.00     0.232 C 
HETATM   20  C   UNL     1      28.370  44.608  54.148  1.00  0.00     0.029 C 
HETATM   21  C   UNL     1      27.319  44.369  53.063  1.00  0.00     0.021 C 
ENDBRANCH  12  14
ENDBRANCH   8  12
TORSDOF 2
ENDMDL
MODEL 10
REMARK VINA RESULT:      -6.7      3.129      3.710
REMARK  2 active torsions:
REMARK  status: ('A' for Active; 'I' for Inactive)
REMARK    1  A    between atoms: C_8  and  S_9 
REMARK    2  A    between atoms: S_9  and  C_10 
ROOT
HETATM    1  C   UNL     1      30.497  43.130  54.606  1.00  0.00     0.002 A 
HETATM    2  C   UNL     1      29.784  42.629  53.515  1.00  0.00     0.034 A 
HETATM    3  C   UNL     1      28.585  43.205  53.110  1.00  0.00     0.087 A 
HETATM    4  C   UNL     1      28.079  44.316  53.835  1.00  0.00     0.087 A 
HETATM    5  N   UNL     1      26.915  44.899  53.499  1.00  0.00    -0.232 NA
HETATM    6  C   UNL     1      26.249  44.374  52.448  1.00  0.00     0.164 A 
HETATM    7 CL   UNL     1      24.746  45.140  52.142  1.00  0.00    -0.059 Cl
HETATM    8  C   UNL     1      26.748  43.300  51.727  1.00  0.00     0.165 A 
HETATM    9  N   UNL     1      27.928  42.699  52.042  1.00  0.00    -0.234 NA
HETATM   10  C   UNL     1      28.801  44.808  54.913  1.00  0.00     0.034 A 
HETATM   11  C   UNL     1      30.006  44.225  55.304  1.00  0.00     0.002 A 
ENDROOT
BRANCH   8  12
HETATM   12  S   UNL     1      25.910  42.541  50.336  1.00  0.00     0.078 S 
HETATM   13  O   UNL     1      25.952  43.551  49.227  1.00  0.00    -0.251 OA
BRANCH  12  14
HETATM   14  C   UNL     1      27.095  41.229  49.858  1.00  0.00     0.112 C 
HETATM   15  C   UNL     1      27.480  41.381  48.382  1.00  0.00     0.250 C 
HETATM   16  N   UNL     1      28.340  40.226  47.947  1.00  0.00    -0.074 N 
HETATM   17  H   UNL     1      29.243  40.255  48.442  1.00  0.00     0.277 HD
HETATM   18  H   UNL     1      28.569  40.349  46.950  1.00  0.00     0.277 HD
HETATM   19  C   UNL     1      27.693  38.893  48.131  1.00  0.00     0.232 C 
HETATM   20  C   UNL     1      27.328  38.718  49.597  1.00  0.00     0.029 C 
HETATM   21  C   UNL     1      26.442  39.859  50.099  1.00  0.00     0.021 C 
ENDBRANCH  12  14
ENDBRANCH   8  12
TORSDOF 2
ENDMDL
