MODEL 1
REMARK VINA RESULT:     -10.1      0.000      0.000
REMARK  3 active torsions:
REMARK  status: ('A' for Active; 'I' for Inactive)
REMARK    1  A    between atoms: C_5  and  C_6 
REMARK       I    between atoms: C_6  and  N_7 
REMARK    2  A    between atoms: N_7  and  C_8 
REMARK    3  A    between atoms: C_15  and  C_16 
REMARK       I    between atoms: C_16  and  N_17 
ROOT
HETATM    1  C   UNL     1      26.007  47.179  50.407  1.00  0.00     0.035 A 
HETATM    2  C   UNL     1      24.735  47.419  49.862  1.00  0.00     0.046 A 
HETATM    3  C   UNL     1      24.542  48.500  48.978  1.00  0.00     0.030 A 
HETATM    4  C   UNL     1      25.626  49.308  48.667  1.00  0.00     0.063 A 
HETATM    5  N   UNL     1      25.138  50.255  47.809  1.00  0.00    -0.277 N 
HETATM    6  H   UNL     1      25.652  51.016  47.379  1.00  0.00     0.189 HD
HETATM    7  N   UNL     1      23.830  50.129  47.528  1.00  0.00    -0.168 NA
HETATM    8  C   UNL     1      23.449  49.047  48.244  1.00  0.00     0.156 A 
HETATM    9  C   UNL     1      26.904  49.098  49.185  1.00  0.00     0.034 A 
HETATM   10  C   UNL     1      27.072  48.014  50.059  1.00  0.00     0.032 A 
ENDROOT
BRANCH   1  11
HETATM   11  N   UNL     1      26.122  46.084  51.288  1.00  0.00    -0.326 N 
HETATM   12  C   UNL     1      26.869  44.921  51.120  1.00  0.00     0.240 C 
HETATM   13  O   UNL     1      27.549  44.657  50.132  1.00  0.00    -0.272 OA
HETATM   14  H   UNL     1      25.680  46.194  52.196  1.00  0.00     0.169 HD
BRANCH  12  15
HETATM   15  C   UNL     1      26.726  43.949  52.319  1.00  0.00     0.172 C 
HETATM   16  C   UNL     1      28.023  43.746  53.088  1.00  0.00    -0.029 A 
HETATM   17  C   UNL     1      28.343  44.429  54.281  1.00  0.00    -0.050 A 
HETATM   18  C   UNL     1      28.973  42.856  52.543  1.00  0.00     0.009 A 
HETATM   19  C   UNL     1      29.584  44.189  54.899  1.00  0.00     0.007 A 
HETATM   20  C   UNL     1      27.385  45.363  54.987  1.00  0.00     0.049 C 
HETATM   21  C   UNL     1      30.507  43.304  54.345  1.00  0.00     0.001 A 
HETATM   22  C   UNL     1      30.202  42.637  53.166  1.00  0.00     0.001 A 
HETATM   23  C   UNL     1      26.215  45.881  54.162  1.00  0.00     0.080 C 
HETATM   24  S   UNL     1      25.336  44.502  53.383  1.00  0.00    -0.149 SA
ENDBRANCH  12  15
ENDBRANCH   1  11
BRANCH   8  25
HETATM   25  C   UNL     1      22.064  48.556  48.215  1.00  0.00     0.270 C 
HETATM   26  N   UNL     1      21.402  48.681  49.406  1.00  0.00    -0.365 N 
HETATM   27  H   UNL     1      21.892  49.090  50.193  1.00  0.00     0.159 HD
HETATM   28  H   UNL     1      20.445  48.376  49.483  1.00  0.00     0.159 HD
HETATM   29  O   UNL     1      21.520  48.074  47.227  1.00  0.00    -0.266 OA
ENDBRANCH   8  25
TORSDOF 3
ENDMDL
MODEL 2
REMARK VINA RESULT:      -9.6      4.913      7.602
REMARK  3 active torsions:
REMARK  status: ('A' for Active; 'I' for Inactive)
REMARK    1  A    between atoms: C_5  and  C_6 
REMARK       I    between atoms: C_6  and  N_7 
REMARK    2  A    between atoms: N_7  and  C_8 
REMARK    3  A    between atoms: C_15  and  C_16 
REMARK       I    between atoms: C_16  and  N_17 
ROOT
HETATM    1  C   UNL     1      27.001  41.502  50.845  1.00  0.00     0.035 A 
HETATM    2  C   UNL     1      27.869  40.399  50.774  1.00  0.00     0.046 A 
HETATM    3  C   UNL     1      28.039  39.717  49.552  1.00  0.00     0.030 A 
HETATM    4  C   UNL     1      27.337  40.157  48.439  1.00  0.00     0.063 A 
HETATM    5  N   UNL     1      27.697  39.313  47.426  1.00  0.00    -0.277 N 
HETATM    6  H   UNL     1      27.372  39.335  46.465  1.00  0.00     0.189 HD
HETATM    7  N   UNL     1      28.579  38.363  47.780  1.00  0.00    -0.168 NA
HETATM    8  C   UNL     1      28.800  38.602  49.093  1.00  0.00     0.156 A 
HETATM    9  C   UNL     1      26.470  41.250  48.471  1.00  0.00     0.034 A 
HETATM   10  C   UNL     1      26.320  41.915  49.697  1.00  0.00     0.032 A 
ENDROOT
BRANCH   1  11
HETATM   11  N   UNL     1      26.876  42.128  52.102  1.00  0.00    -0.326 N 
HETATM   12  C   UNL     1      27.401  43.353  52.506  1.00  0.00     0.240 C 
HETATM   13  O   UNL     1      28.094  44.088  51.807  1.00  0.00    -0.272 OA
HETATM   14  H   UNL     1      26.254  41.677  52.766  1.00  0.00     0.169 HD
BRANCH  12  15
HETATM   15  C   UNL     1      27.045  43.691  53.977  1.00  0.00     0.172 C 
HETATM   16  C   UNL     1      28.131  44.479  54.694  1.00  0.00    -0.029 A 
HETATM   17  C   UNL     1      28.104  45.881  54.856  1.00  0.00    -0.050 A 
HETATM   18  C   UNL     1      29.246  43.764  55.179  1.00  0.00     0.009 A 
HETATM   19  C   UNL     1      29.174  46.518  55.511  1.00  0.00     0.007 A 
HETATM   20  C   UNL     1      26.939  46.746  54.428  1.00  0.00     0.049 C 
HETATM   21  C   UNL     1      30.265  45.791  55.984  1.00  0.00     0.001 A 
HETATM   22  C   UNL     1      30.302  44.413  55.818  1.00  0.00     0.001 A 
HETATM   23  C   UNL     1      25.967  46.126  53.434  1.00  0.00     0.080 C 
HETATM   24  S   UNL     1      25.404  44.510  54.030  1.00  0.00    -0.149 SA
ENDBRANCH  12  15
ENDBRANCH   1  11
BRANCH   8  25
HETATM   25  C   UNL     1      29.726  37.775  49.878  1.00  0.00     0.270 C 
HETATM   26  N   UNL     1      29.113  36.809  50.628  1.00  0.00    -0.365 N 
HETATM   27  H   UNL     1      28.103  36.733  50.589  1.00  0.00     0.159 HD
HETATM   28  H   UNL     1      29.665  36.188  51.197  1.00  0.00     0.159 HD
HETATM   29  O   UNL     1      30.945  37.910  49.881  1.00  0.00    -0.266 OA
ENDBRANCH   8  25
TORSDOF 3
ENDMDL
MODEL 3
REMARK VINA RESULT:      -8.9      4.113      9.706
REMARK  3 active torsions:
REMARK  status: ('A' for Active; 'I' for Inactive)
REMARK    1  A    between atoms: C_5  and  C_6 
REMARK       I    between atoms: C_6  and  N_7 
REMARK    2  A    between atoms: N_7  and  C_8 
REMARK    3  A    between atoms: C_15  and  C_16 
REMARK       I    between atoms: C_16  and  N_17 
ROOT
HETATM    1  C   UNL     1      22.690  49.735  49.158  1.00  0.00     0.035 A 
HETATM    2  C   UNL     1      23.583  48.777  49.668  1.00  0.00     0.046 A 
HETATM    3  C   UNL     1      24.925  48.769  49.239  1.00  0.00     0.030 A 
HETATM    4  C   UNL     1      25.335  49.717  48.312  1.00  0.00     0.063 A 
HETATM    5  N   UNL     1      26.659  49.459  48.091  1.00  0.00    -0.277 N 
HETATM    6  H   UNL     1      27.284  49.956  47.465  1.00  0.00     0.189 HD
HETATM    7  N   UNL     1      27.151  48.429  48.799  1.00  0.00    -0.168 NA
HETATM    8  C   UNL     1      26.089  47.993  49.514  1.00  0.00     0.156 A 
HETATM    9  C   UNL     1      24.479  50.686  47.787  1.00  0.00     0.034 A 
HETATM   10  C   UNL     1      23.149  50.676  48.232  1.00  0.00     0.032 A 
ENDROOT
BRANCH   1  11
HETATM   11  N   UNL     1      21.362  49.677  49.628  1.00  0.00    -0.326 N 
HETATM   12  C   UNL     1      20.335  50.592  49.412  1.00  0.00     0.240 C 
HETATM   13  O   UNL     1      20.442  51.635  48.773  1.00  0.00    -0.272 OA
HETATM   14  H   UNL     1      21.096  48.822  50.106  1.00  0.00     0.169 HD
BRANCH  12  15
HETATM   15  C   UNL     1      19.015  50.170  50.108  1.00  0.00     0.172 C 
HETATM   16  C   UNL     1      17.791  50.896  49.568  1.00  0.00    -0.029 A 
HETATM   17  C   UNL     1      16.914  50.347  48.609  1.00  0.00    -0.050 A 
HETATM   18  C   UNL     1      17.556  52.209  50.025  1.00  0.00     0.009 A 
HETATM   19  C   UNL     1      15.826  51.113  48.153  1.00  0.00     0.007 A 
HETATM   20  C   UNL     1      17.033  48.931  48.086  1.00  0.00     0.049 C 
HETATM   21  C   UNL     1      15.610  52.409  48.620  1.00  0.00     0.001 A 
HETATM   22  C   UNL     1      16.476  52.958  49.557  1.00  0.00     0.001 A 
HETATM   23  C   UNL     1      18.372  48.241  48.304  1.00  0.00     0.080 C 
HETATM   24  S   UNL     1      18.855  48.343  50.047  1.00  0.00    -0.149 SA
ENDBRANCH  12  15
ENDBRANCH   1  11
BRANCH   8  25
HETATM   25  C   UNL     1      26.201  46.858  50.440  1.00  0.00     0.270 C 
HETATM   26  N   UNL     1      26.108  47.203  51.761  1.00  0.00    -0.365 N 
HETATM   27  H   UNL     1      25.970  48.178  51.998  1.00  0.00     0.159 HD
HETATM   28  H   UNL     1      26.168  46.492  52.472  1.00  0.00     0.159 HD
HETATM   29  O   UNL     1      26.362  45.692  50.093  1.00  0.00    -0.266 OA
ENDBRANCH   8  25
TORSDOF 3
ENDMDL
MODEL 4
REMARK VINA RESULT:      -8.9      4.625      5.663
REMARK  3 active torsions:
REMARK  status: ('A' for Active; 'I' for Inactive)
REMARK    1  A    between atoms: C_5  and  C_6 
REMARK       I    between atoms: C_6  and  N_7 
REMARK    2  A    between atoms: N_7  and  C_8 
REMARK    3  A    between atoms: C_15  and  C_16 
REMARK       I    between atoms: C_16  and  N_17 
ROOT
HETATM    1  C   UNL     1      26.828  41.418  50.813  1.00  0.00     0.035 A 
HETATM    2  C   UNL     1      25.583  41.526  50.170  1.00  0.00     0.046 A 
HETATM    3  C   UNL     1      25.442  41.091  48.837  1.00  0.00     0.030 A 
HETATM    4  C   UNL     1      26.548  40.564  48.186  1.00  0.00     0.063 A 
HETATM    5  N   UNL     1      26.111  40.242  46.931  1.00  0.00    -0.277 N 
HETATM    6  H   UNL     1      26.655  39.836  46.178  1.00  0.00     0.189 HD
HETATM    7  N   UNL     1      24.812  40.507  46.709  1.00  0.00    -0.168 NA
HETATM    8  C   UNL     1      24.386  41.032  47.880  1.00  0.00     0.156 A 
HETATM    9  C   UNL     1      27.798  40.439  48.792  1.00  0.00     0.034 A 
HETATM   10  C   UNL     1      27.914  40.874  50.121  1.00  0.00     0.032 A 
ENDROOT
BRANCH   1  11
HETATM   11  N   UNL     1      26.896  41.880  52.143  1.00  0.00    -0.326 N 
HETATM   12  C   UNL     1      27.590  42.983  52.635  1.00  0.00     0.240 C 
HETATM   13  O   UNL     1      28.289  43.734  51.960  1.00  0.00    -0.272 OA
HETATM   14  H   UNL     1      26.294  41.407  52.811  1.00  0.00     0.169 HD
BRANCH  12  15
HETATM   15  C   UNL     1      27.417  43.153  54.166  1.00  0.00     0.172 C 
HETATM   16  C   UNL     1      28.623  43.793  54.841  1.00  0.00    -0.029 A 
HETATM   17  C   UNL     1      28.702  45.163  55.168  1.00  0.00    -0.050 A 
HETATM   18  C   UNL     1      29.736  42.968  55.107  1.00  0.00     0.009 A 
HETATM   19  C   UNL     1      29.875  45.660  55.765  1.00  0.00     0.007 A 
HETATM   20  C   UNL     1      27.554  46.131  54.981  1.00  0.00     0.049 C 
HETATM   21  C   UNL     1      30.963  44.827  56.022  1.00  0.00     0.001 A 
HETATM   22  C   UNL     1      30.894  43.480  55.692  1.00  0.00     0.001 A 
HETATM   23  C   UNL     1      26.443  45.687  54.040  1.00  0.00     0.080 C 
HETATM   24  S   UNL     1      25.847  44.040  54.503  1.00  0.00    -0.149 SA
ENDBRANCH  12  15
ENDBRANCH   1  11
BRANCH   8  25
HETATM   25  C   UNL     1      22.993  41.461  48.067  1.00  0.00     0.270 C 
HETATM   26  N   UNL     1      22.839  42.813  48.209  1.00  0.00    -0.365 N 
HETATM   27  H   UNL     1      23.664  43.402  48.174  1.00  0.00     0.159 HD
HETATM   28  H   UNL     1      21.920  43.204  48.338  1.00  0.00     0.159 HD
HETATM   29  O   UNL     1      22.031  40.701  48.095  1.00  0.00    -0.266 OA
ENDBRANCH   8  25
TORSDOF 3
ENDMDL
MODEL 5
REMARK VINA RESULT:      -8.8      5.299      7.351
REMARK  3 active torsions:
REMARK  status: ('A' for Active; 'I' for Inactive)
REMARK    1  A    between atoms: C_5  and  C_6 
REMARK       I    between atoms: C_6  and  N_7 
REMARK    2  A    between atoms: N_7  and  C_8 
REMARK    3  A    between atoms: C_15  and  C_16 
REMARK       I    between atoms: C_16  and  N_17 
ROOT
HETATM    1  C   UNL     1      29.274  43.447  53.269  1.00  0.00     0.035 A 
HETATM    2  C   UNL     1      28.403  44.488  53.635  1.00  0.00     0.046 A 
HETATM    3  C   UNL     1      28.582  45.151  54.867  1.00  0.00     0.030 A 
HETATM    4  C   UNL     1      29.623  44.754  55.693  1.00  0.00     0.063 A 
HETATM    5  N   UNL     1      29.540  45.561  56.794  1.00  0.00    -0.277 N 
HETATM    6  H   UNL     1      30.143  45.549  57.609  1.00  0.00     0.189 HD
HETATM    7  N   UNL     1      28.539  46.456  56.753  1.00  0.00    -0.168 NA
HETATM    8  C   UNL     1      27.938  46.214  55.566  1.00  0.00     0.156 A 
HETATM    9  C   UNL     1      30.509  43.728  55.361  1.00  0.00     0.034 A 
HETATM   10  C   UNL     1      30.313  43.086  54.129  1.00  0.00     0.032 A 
ENDROOT
BRANCH   1  11
HETATM   11  N   UNL     1      29.029  42.826  52.027  1.00  0.00    -0.326 N 
HETATM   12  C   UNL     1      28.239  41.708  51.767  1.00  0.00     0.240 C 
HETATM   13  O   UNL     1      27.632  41.062  52.617  1.00  0.00    -0.272 OA
HETATM   14  H   UNL     1      29.398  43.301  51.209  1.00  0.00     0.169 HD
BRANCH  12  15
HETATM   15  C   UNL     1      28.230  41.329  50.264  1.00  0.00     0.172 C 
HETATM   16  C   UNL     1      27.992  39.846  50.019  1.00  0.00    -0.029 A 
HETATM   17  C   UNL     1      26.735  39.300  49.684  1.00  0.00    -0.050 A 
HETATM   18  C   UNL     1      29.086  38.972  50.183  1.00  0.00     0.009 A 
HETATM   19  C   UNL     1      26.614  37.909  49.506  1.00  0.00     0.007 A 
HETATM   20  C   UNL     1      25.503  40.141  49.428  1.00  0.00     0.049 C 
HETATM   21  C   UNL     1      27.710  37.064  49.671  1.00  0.00     0.001 A 
HETATM   22  C   UNL     1      28.947  37.595  50.011  1.00  0.00     0.001 A 
HETATM   23  C   UNL     1      25.542  41.571  49.948  1.00  0.00     0.080 C 
HETATM   24  S   UNL     1      27.043  42.408  49.374  1.00  0.00    -0.149 SA
ENDBRANCH  12  15
ENDBRANCH   1  11
BRANCH   8  25
HETATM   25  C   UNL     1      26.775  46.993  55.121  1.00  0.00     0.270 C 
HETATM   26  N   UNL     1      26.900  48.342  55.313  1.00  0.00    -0.365 N 
HETATM   27  H   UNL     1      27.754  48.696  55.729  1.00  0.00     0.159 HD
HETATM   28  H   UNL     1      26.155  48.961  55.034  1.00  0.00     0.159 HD
HETATM   29  O   UNL     1      25.767  46.509  54.616  1.00  0.00    -0.266 OA
ENDBRANCH   8  25
TORSDOF 3
ENDMDL
MODEL 6
REMARK VINA RESULT:      -8.4      4.537      5.870
REMARK  3 active torsions:
REMARK  status: ('A' for Active; 'I' for Inactive)
REMARK    1  A    between atoms: C_5  and  C_6 
REMARK       I    between atoms: C_6  and  N_7 
REMARK    2  A    between atoms: N_7  and  C_8 
REMARK    3  A    between atoms: C_15  and  C_16 
REMARK       I    between atoms: C_16  and  N_17 
ROOT
HETATM    1  C   UNL     1      25.379  42.842  50.734  1.00  0.00     0.035 A 
HETATM    2  C   UNL     1      25.762  41.649  50.099  1.00  0.00     0.046 A 
HETATM    3  C   UNL     1      25.410  41.427  48.752  1.00  0.00     0.030 A 
HETATM    4  C   UNL     1      24.687  42.403  48.082  1.00  0.00     0.063 A 
HETATM    5  N   UNL     1      24.495  41.910  46.821  1.00  0.00    -0.277 N 
HETATM    6  H   UNL     1      23.999  42.358  46.057  1.00  0.00     0.189 HD
HETATM    7  N   UNL     1      25.038  40.700  46.608  1.00  0.00    -0.168 NA
HETATM    8  C   UNL     1      25.608  40.389  47.794  1.00  0.00     0.156 A 
HETATM    9  C   UNL     1      24.293  43.601  48.679  1.00  0.00     0.034 A 
HETATM   10  C   UNL     1      24.658  43.801  50.018  1.00  0.00     0.032 A 
ENDROOT
BRANCH   1  11
HETATM   11  N   UNL     1      25.760  42.990  52.084  1.00  0.00    -0.326 N 
HETATM   12  C   UNL     1      26.986  43.418  52.588  1.00  0.00     0.240 C 
HETATM   13  O   UNL     1      27.961  43.722  51.905  1.00  0.00    -0.272 OA
HETATM   14  H   UNL     1      25.025  42.856  52.772  1.00  0.00     0.169 HD
BRANCH  12  15
HETATM   15  C   UNL     1      27.011  43.439  54.138  1.00  0.00     0.172 C 
HETATM   16  C   UNL     1      28.355  43.864  54.713  1.00  0.00    -0.029 A 
HETATM   17  C   UNL     1      28.638  45.174  55.156  1.00  0.00    -0.050 A 
HETATM   18  C   UNL     1      29.382  42.898  54.757  1.00  0.00     0.009 A 
HETATM   19  C   UNL     1      29.923  45.471  55.645  1.00  0.00     0.007 A 
HETATM   20  C   UNL     1      27.604  46.277  55.207  1.00  0.00     0.049 C 
HETATM   21  C   UNL     1      30.923  44.500  55.682  1.00  0.00     0.001 A 
HETATM   22  C   UNL     1      30.653  43.213  55.237  1.00  0.00     0.001 A 
HETATM   23  C   UNL     1      26.347  46.064  54.375  1.00  0.00     0.080 C 
HETATM   24  S   UNL     1      25.610  44.452  54.752  1.00  0.00    -0.149 SA
ENDBRANCH  12  15
ENDBRANCH   1  11
BRANCH   8  25
HETATM   25  C   UNL     1      26.327  39.123  47.992  1.00  0.00     0.270 C 
HETATM   26  N   UNL     1      25.560  38.008  47.791  1.00  0.00    -0.365 N 
HETATM   27  H   UNL     1      24.588  38.128  47.527  1.00  0.00     0.159 HD
HETATM   28  H   UNL     1      25.966  37.093  47.899  1.00  0.00     0.159 HD
HETATM   29  O   UNL     1      27.509  39.038  48.306  1.00  0.00    -0.266 OA
ENDBRANCH   8  25
TORSDOF 3
ENDMDL
MODEL 7
REMARK VINA RESULT:      -8.4     11.198     14.366
REMARK  3 active torsions:
REMARK  status: ('A' for Active; 'I' for Inactive)
REMARK    1  A    between atoms: C_5  and  C_6 
REMARK       I    between atoms: C_6  and  N_7 
REMARK    2  A    between atoms: N_7  and  C_8 
REMARK    3  A    between atoms: C_15  and  C_16 
REMARK       I    between atoms: C_16  and  N_17 
ROOT
HETATM    1  C   UNL     1      32.803  51.269  42.372  1.00  0.00     0.035 A 
HETATM    2  C   UNL     1      33.746  51.192  41.333  1.00  0.00     0.046 A 
HETATM    3  C   UNL     1      35.100  51.491  41.590  1.00  0.00     0.030 A 
HETATM    4  C   UNL     1      35.469  51.859  42.876  1.00  0.00     0.063 A 
HETATM    5  N   UNL     1      36.816  52.087  42.814  1.00  0.00    -0.277 N 
HETATM    6  H   UNL     1      37.423  52.378  43.573  1.00  0.00     0.189 HD
HETATM    7  N   UNL     1      37.358  51.893  41.600  1.00  0.00    -0.168 NA
HETATM    8  C   UNL     1      36.308  51.523  40.833  1.00  0.00     0.156 A 
HETATM    9  C   UNL     1      34.562  51.942  43.932  1.00  0.00     0.034 A 
HETATM   10  C   UNL     1      33.222  51.636  43.654  1.00  0.00     0.032 A 
ENDROOT
BRANCH   1  11
HETATM   11  N   UNL     1      31.467  50.963  42.039  1.00  0.00    -0.326 N 
HETATM   12  C   UNL     1      30.757  49.801  42.325  1.00  0.00     0.240 C 
HETATM   13  O   UNL     1      31.211  48.824  42.914  1.00  0.00    -0.272 OA
HETATM   14  H   UNL     1      30.929  51.715  41.619  1.00  0.00     0.169 HD
BRANCH  12  15
HETATM   15  C   UNL     1      29.306  49.848  41.778  1.00  0.00     0.172 C 
HETATM   16  C   UNL     1      29.119  50.853  40.651  1.00  0.00    -0.029 A 
HETATM   17  C   UNL     1      29.126  50.506  39.283  1.00  0.00    -0.050 A 
HETATM   18  C   UNL     1      28.979  52.211  41.003  1.00  0.00     0.009 A 
HETATM   19  C   UNL     1      28.973  51.517  38.317  1.00  0.00     0.007 A 
HETATM   20  C   UNL     1      29.214  49.079  38.786  1.00  0.00     0.049 C 
HETATM   21  C   UNL     1      28.833  52.854  38.687  1.00  0.00     0.001 A 
HETATM   22  C   UNL     1      28.837  53.202  40.031  1.00  0.00     0.001 A 
HETATM   23  C   UNL     1      29.719  48.047  39.785  1.00  0.00     0.080 C 
HETATM   24  S   UNL     1      28.774  48.151  41.328  1.00  0.00    -0.149 SA
ENDBRANCH  12  15
ENDBRANCH   1  11
BRANCH   8  25
HETATM   25  C   UNL     1      36.472  51.207  39.408  1.00  0.00     0.270 C 
HETATM   26  N   UNL     1      36.705  49.883  39.152  1.00  0.00    -0.365 N 
HETATM   27  H   UNL     1      36.743  49.238  39.933  1.00  0.00     0.159 HD
HETATM   28  H   UNL     1      36.826  49.568  38.203  1.00  0.00     0.159 HD
HETATM   29  O   UNL     1      36.408  52.032  38.502  1.00  0.00    -0.266 OA
ENDBRANCH   8  25
TORSDOF 3
ENDMDL
MODEL 8
REMARK VINA RESULT:      -8.0      4.891      8.141
REMARK  3 active torsions:
REMARK  status: ('A' for Active; 'I' for Inactive)
REMARK    1  A    between atoms: C_5  and  C_6 
REMARK       I    between atoms: C_6  and  N_7 
REMARK    2  A    between atoms: N_7  and  C_8 
REMARK    3  A    between atoms: C_15  and  C_16 
REMARK       I    between atoms: C_16  and  N_17 
ROOT
HETATM    1  C   UNL     1      26.812  43.787  52.998  1.00  0.00     0.035 A 
HETATM    2  C   UNL     1      27.993  43.640  53.746  1.00  0.00     0.046 A 
HETATM    3  C   UNL     1      28.431  44.689  54.580  1.00  0.00     0.030 A 
HETATM    4  C   UNL     1      27.677  45.852  54.641  1.00  0.00     0.063 A 
HETATM    5  N   UNL     1      28.343  46.670  55.511  1.00  0.00    -0.277 N 
HETATM    6  H   UNL     1      28.080  47.608  55.793  1.00  0.00     0.189 HD
HETATM    7  N   UNL     1      29.463  46.138  56.028  1.00  0.00    -0.168 NA
HETATM    8  C   UNL     1      29.529  44.912  55.462  1.00  0.00     0.156 A 
HETATM    9  C   UNL     1      26.499  46.032  53.916  1.00  0.00     0.034 A 
HETATM   10  C   UNL     1      26.081  44.974  53.096  1.00  0.00     0.032 A 
ENDROOT
BRANCH   1  11
HETATM   11  N   UNL     1      26.441  42.700  52.181  1.00  0.00    -0.326 N 
HETATM   12  C   UNL     1      26.464  42.624  50.791  1.00  0.00     0.240 C 
HETATM   13  O   UNL     1      26.805  43.535  50.041  1.00  0.00    -0.272 OA
HETATM   14  H   UNL     1      26.215  41.836  52.664  1.00  0.00     0.169 HD
BRANCH  12  15
HETATM   15  C   UNL     1      25.969  41.252  50.267  1.00  0.00     0.172 C 
HETATM   16  C   UNL     1      25.189  41.350  48.963  1.00  0.00    -0.029 A 
HETATM   17  C   UNL     1      25.752  41.106  47.693  1.00  0.00    -0.050 A 
HETATM   18  C   UNL     1      23.840  41.753  49.039  1.00  0.00     0.009 A 
HETATM   19  C   UNL     1      24.950  41.252  46.546  1.00  0.00     0.007 A 
HETATM   20  C   UNL     1      27.170  40.616  47.490  1.00  0.00     0.049 C 
HETATM   21  C   UNL     1      23.618  41.650  46.643  1.00  0.00     0.001 A 
HETATM   22  C   UNL     1      23.062  41.901  47.890  1.00  0.00     0.001 A 
HETATM   23  C   UNL     1      28.119  40.790  48.668  1.00  0.00     0.080 C 
HETATM   24  S   UNL     1      27.388  40.092  50.172  1.00  0.00    -0.149 SA
ENDBRANCH  12  15
ENDBRANCH   1  11
BRANCH   8  25
HETATM   25  C   UNL     1      30.624  43.982  55.769  1.00  0.00     0.270 C 
HETATM   26  N   UNL     1      31.191  44.174  57.000  1.00  0.00    -0.365 N 
HETATM   27  H   UNL     1      30.827  44.912  57.591  1.00  0.00     0.159 HD
HETATM   28  H   UNL     1      31.947  43.581  57.303  1.00  0.00     0.159 HD
HETATM   29  O   UNL     1      31.019  43.100  55.013  1.00  0.00    -0.266 OA
ENDBRANCH   8  25
TORSDOF 3
ENDMDL
MODEL 9
REMARK VINA RESULT:      -7.9      3.367      8.687
REMARK  3 active torsions:
REMARK  status: ('A' for Active; 'I' for Inactive)
REMARK    1  A    between atoms: C_5  and  C_6 
REMARK       I    between atoms: C_6  and  N_7 
REMARK    2  A    between atoms: N_7  and  C_8 
REMARK    3  A    between atoms: C_15  and  C_16 
REMARK       I    between atoms: C_16  and  N_17 
ROOT
HETATM    1  C   UNL     1      24.506  46.831  49.782  1.00  0.00     0.035 A 
HETATM    2  C   UNL     1      24.985  47.218  51.045  1.00  0.00     0.046 A 
HETATM    3  C   UNL     1      25.687  46.291  51.843  1.00  0.00     0.030 A 
HETATM    4  C   UNL     1      25.888  45.008  51.356  1.00  0.00     0.063 A 
HETATM    5  N   UNL     1      26.580  44.352  52.336  1.00  0.00    -0.277 N 
HETATM    6  H   UNL     1      26.895  43.389  52.323  1.00  0.00     0.189 HD
HETATM    7  N   UNL     1      26.854  45.100  53.418  1.00  0.00    -0.168 NA
HETATM    8  C   UNL     1      26.308  46.302  53.127  1.00  0.00     0.156 A 
HETATM    9  C   UNL     1      25.431  44.590  50.106  1.00  0.00     0.034 A 
HETATM   10  C   UNL     1      24.739  45.530  49.328  1.00  0.00     0.032 A 
ENDROOT
BRANCH   1  11
HETATM   11  N   UNL     1      23.807  47.808  49.044  1.00  0.00    -0.326 N 
HETATM   12  C   UNL     1      22.459  47.819  48.697  1.00  0.00     0.240 C 
HETATM   13  O   UNL     1      21.652  46.936  48.976  1.00  0.00    -0.272 OA
HETATM   14  H   UNL     1      24.327  48.650  48.814  1.00  0.00     0.169 HD
BRANCH  12  15
HETATM   15  C   UNL     1      22.073  49.073  47.871  1.00  0.00     0.172 C 
HETATM   16  C   UNL     1      20.571  49.310  47.800  1.00  0.00    -0.029 A 
HETATM   17  C   UNL     1      19.882  50.220  48.630  1.00  0.00    -0.050 A 
HETATM   18  C   UNL     1      19.830  48.537  46.883  1.00  0.00     0.009 A 
HETATM   19  C   UNL     1      18.486  50.344  48.504  1.00  0.00     0.007 A 
HETATM   20  C   UNL     1      20.574  51.141  49.611  1.00  0.00     0.049 C 
HETATM   21  C   UNL     1      17.774  49.571  47.588  1.00  0.00     0.001 A 
HETATM   22  C   UNL     1      18.445  48.667  46.777  1.00  0.00     0.001 A 
HETATM   23  C   UNL     1      22.002  50.773  49.991  1.00  0.00     0.080 C 
HETATM   24  S   UNL     1      23.004  50.524  48.501  1.00  0.00    -0.149 SA
ENDBRANCH  12  15
ENDBRANCH   1  11
BRANCH   8  25
HETATM   25  C   UNL     1      26.390  47.430  54.065  1.00  0.00     0.270 C 
HETATM   26  N   UNL     1      27.626  47.603  54.625  1.00  0.00    -0.365 N 
HETATM   27  H   UNL     1      28.371  46.968  54.362  1.00  0.00     0.159 HD
HETATM   28  H   UNL     1      27.782  48.354  55.278  1.00  0.00     0.159 HD
HETATM   29  O   UNL     1      25.452  48.172  54.341  1.00  0.00    -0.266 OA
ENDBRANCH   8  25
TORSDOF 3
ENDMDL
MODEL 10
REMARK VINA RESULT:      -7.9     11.605     13.304
REMARK  3 active torsions:
REMARK  status: ('A' for Active; 'I' for Inactive)
REMARK    1  A    between atoms: C_5  and  C_6 
REMARK       I    between atoms: C_6  and  N_7 
REMARK    2  A    between atoms: N_7  and  C_8 
REMARK    3  A    between atoms: C_15  and  C_16 
REMARK       I    between atoms: C_16  and  N_17 
ROOT
HETATM    1  C   UNL     1      28.434  50.544  40.033  1.00  0.00     0.035 A 
HETATM    2  C   UNL     1      29.802  50.631  39.725  1.00  0.00     0.046 A 
HETATM    3  C   UNL     1      30.565  51.710  40.216  1.00  0.00     0.030 A 
HETATM    4  C   UNL     1      29.938  52.669  40.998  1.00  0.00     0.063 A 
HETATM    5  N   UNL     1      30.913  53.574  41.314  1.00  0.00    -0.277 N 
HETATM    6  H   UNL     1      30.812  54.414  41.874  1.00  0.00     0.189 HD
HETATM    7  N   UNL     1      32.125  53.284  40.811  1.00  0.00    -0.168 NA
HETATM    8  C   UNL     1      31.924  52.133  40.130  1.00  0.00     0.156 A 
HETATM    9  C   UNL     1      28.583  52.614  41.328  1.00  0.00     0.034 A 
HETATM   10  C   UNL     1      27.845  51.529  40.831  1.00  0.00     0.032 A 
ENDROOT
BRANCH   1  11
HETATM   11  N   UNL     1      27.734  49.441  39.501  1.00  0.00    -0.326 N 
HETATM   12  C   UNL     1      26.945  49.398  38.354  1.00  0.00     0.240 C 
HETATM   13  O   UNL     1      26.717  50.355  37.619  1.00  0.00    -0.272 OA
HETATM   14  H   UNL     1      27.896  48.549  39.957  1.00  0.00     0.169 HD
BRANCH  12  15
HETATM   15  C   UNL     1      26.338  47.993  38.110  1.00  0.00     0.172 C 
HETATM   16  C   UNL     1      27.270  46.856  38.503  1.00  0.00    -0.029 A 
HETATM   17  C   UNL     1      27.189  46.165  39.730  1.00  0.00    -0.050 A 
HETATM   18  C   UNL     1      28.300  46.515  37.602  1.00  0.00     0.009 A 
HETATM   19  C   UNL     1      28.120  45.147  40.009  1.00  0.00     0.007 A 
HETATM   20  C   UNL     1      26.098  46.405  40.751  1.00  0.00     0.049 C 
HETATM   21  C   UNL     1      29.128  44.824  39.103  1.00  0.00     0.001 A 
HETATM   22  C   UNL     1      29.219  45.508  37.898  1.00  0.00     0.001 A 
HETATM   23  C   UNL     1      25.321  47.708  40.615  1.00  0.00     0.080 C 
HETATM   24  S   UNL     1      24.696  47.893  38.924  1.00  0.00    -0.149 SA
ENDBRANCH  12  15
ENDBRANCH   1  11
BRANCH   8  25
HETATM   25  C   UNL     1      33.020  51.460  39.419  1.00  0.00     0.270 C 
HETATM   26  N   UNL     1      33.622  50.463  40.136  1.00  0.00    -0.365 N 
HETATM   27  H   UNL     1      33.282  50.264  41.069  1.00  0.00     0.159 HD
HETATM   28  H   UNL     1      34.382  49.940  39.730  1.00  0.00     0.159 HD
HETATM   29  O   UNL     1      33.385  51.742  38.282  1.00  0.00    -0.266 OA
ENDBRANCH   8  25
TORSDOF 3
ENDMDL
