MODEL 1
REMARK VINA RESULT:      -8.4      0.000      0.000
REMARK  6 active torsions:
REMARK  status: ('A' for Active; 'I' for Inactive)
REMARK    1  A    between atoms: N_2  and  C_4 
REMARK    2  A    between atoms: N_2  and  C_14 
REMARK    3  A    between atoms: C_5  and  O_6 
REMARK    4  A    between atoms: C_14  and  C_15 
REMARK    5  A    between atoms: C_15  and  O_16 
REMARK    6  A    between atoms: C_15  and  C_17 
ROOT
HETATM    1  C   UNL     1      27.499  42.088  54.148  1.00  0.00     0.270 C 
HETATM    2  N   UNL     1      27.416  43.570  54.398  1.00  0.00    -0.065 N 
HETATM    3  H   UNL     1      27.339  43.654  55.432  1.00  0.00     0.280 HD
ENDROOT
BRANCH   2   4
HETATM    4  C   UNL     1      28.680  44.403  54.070  1.00  0.00     0.225 C 
HETATM    5  C   UNL     1      28.818  45.634  55.020  1.00  0.00     0.183 C 
HETATM    6  C   UNL     1      29.762  45.105  56.060  1.00  0.00    -0.021 A 
HETATM    7  C   UNL     1      30.419  43.954  55.595  1.00  0.00    -0.047 A 
HETATM    8  C   UNL     1      30.047  45.623  57.314  1.00  0.00     0.010 A 
HETATM    9  C   UNL     1      29.980  43.590  54.208  1.00  0.00     0.075 C 
HETATM   10  C   UNL     1      31.365  43.304  56.369  1.00  0.00     0.008 A 
HETATM   11  C   UNL     1      31.642  43.812  57.637  1.00  0.00     0.001 A 
HETATM   12  C   UNL     1      30.988  44.962  58.106  1.00  0.00     0.001 A 
BRANCH   5  13
HETATM   13  O   UNL     1      27.544  46.009  55.528  1.00  0.00    -0.389 OA
HETATM   14  H   UNL     1      27.534  45.763  56.474  1.00  0.00     0.210 HD
ENDBRANCH   5  13
ENDBRANCH   2   4
BRANCH   2  15
HETATM   15  C   UNL     1      26.140  44.194  53.846  1.00  0.00     0.271 C 
BRANCH  15  16
HETATM   16  C   UNL     1      25.949  43.818  52.361  1.00  0.00     0.177 C 
BRANCH  16  17
HETATM   17  O   UNL     1      24.669  43.189  52.226  1.00  0.00    -0.389 OA
HETATM   18  H   UNL     1      24.828  42.226  52.157  1.00  0.00     0.210 HD
ENDBRANCH  16  17
BRANCH  16  19
HETATM   19  C   UNL     1      26.086  45.029  51.466  1.00  0.00    -0.028 A 
HETATM   20  C   UNL     1      26.955  44.979  50.361  1.00  0.00     0.013 A 
HETATM   21  C   UNL     1      27.134  46.100  49.549  1.00  0.00     0.043 A 
HETATM   22  C   UNL     1      26.447  47.272  49.836  1.00  0.00     0.116 A 
HETATM   23  F   UNL     1      26.623  48.347  49.059  1.00  0.00    -0.206 F 
HETATM   24  C   UNL     1      25.583  47.345  50.922  1.00  0.00     0.043 A 
HETATM   25  C   UNL     1      25.405  46.227  51.740  1.00  0.00     0.013 A 
ENDBRANCH  16  19
ENDBRANCH  15  16
ENDBRANCH   2  15
TORSDOF 6
ENDMDL
MODEL 2
REMARK VINA RESULT:      -8.3      3.214      7.605
REMARK  6 active torsions:
REMARK  status: ('A' for Active; 'I' for Inactive)
REMARK    1  A    between atoms: N_2  and  C_4 
REMARK    2  A    between atoms: N_2  and  C_14 
REMARK    3  A    between atoms: C_5  and  O_6 
REMARK    4  A    between atoms: C_14  and  C_15 
REMARK    5  A    between atoms: C_15  and  O_16 
REMARK    6  A    between atoms: C_15  and  C_17 
ROOT
HETATM    1  C   UNL     1      24.915  44.953  49.058  1.00  0.00     0.270 C 
HETATM    2  N   UNL     1      26.225  45.403  49.647  1.00  0.00    -0.065 N 
HETATM    3  H   UNL     1      26.789  45.703  48.826  1.00  0.00     0.280 HD
ENDROOT
BRANCH   2   4
HETATM    4  C   UNL     1      26.189  46.673  50.533  1.00  0.00     0.225 C 
HETATM    5  C   UNL     1      26.906  47.876  49.841  1.00  0.00     0.183 C 
HETATM    6  C   UNL     1      25.746  48.599  49.221  1.00  0.00    -0.021 A 
HETATM    7  C   UNL     1      24.534  48.182  49.798  1.00  0.00    -0.047 A 
HETATM    8  C   UNL     1      25.761  49.581  48.243  1.00  0.00     0.010 A 
HETATM    9  C   UNL     1      24.756  47.137  50.850  1.00  0.00     0.075 C 
HETATM   10  C   UNL     1      23.325  48.733  49.411  1.00  0.00     0.008 A 
HETATM   11  C   UNL     1      23.335  49.709  48.415  1.00  0.00     0.001 A 
HETATM   12  C   UNL     1      24.542  50.130  47.836  1.00  0.00     0.001 A 
BRANCH   5  13
HETATM   13  O   UNL     1      27.863  47.403  48.902  1.00  0.00    -0.389 OA
HETATM   14  H   UNL     1      28.727  47.775  49.168  1.00  0.00     0.210 HD
ENDBRANCH   5  13
ENDBRANCH   2   4
BRANCH   2  15
HETATM   15  C   UNL     1      27.012  44.264  50.283  1.00  0.00     0.271 C 
BRANCH  15  16
HETATM   16  C   UNL     1      26.580  44.058  51.751  1.00  0.00     0.177 C 
BRANCH  16  17
HETATM   17  O   UNL     1      25.629  42.987  51.785  1.00  0.00    -0.389 OA
HETATM   18  H   UNL     1      25.711  42.503  50.939  1.00  0.00     0.210 HD
ENDBRANCH  16  17
BRANCH  16  19
HETATM   19  C   UNL     1      27.772  43.790  52.642  1.00  0.00    -0.028 A 
HETATM   20  C   UNL     1      27.842  44.400  53.907  1.00  0.00     0.013 A 
HETATM   21  C   UNL     1      28.956  44.205  54.726  1.00  0.00     0.043 A 
HETATM   22  C   UNL     1      30.000  43.403  54.287  1.00  0.00     0.116 A 
HETATM   23  F   UNL     1      31.068  43.222  55.072  1.00  0.00    -0.206 F 
HETATM   24  C   UNL     1      29.953  42.791  53.041  1.00  0.00     0.043 A 
HETATM   25  C   UNL     1      28.843  42.987  52.215  1.00  0.00     0.013 A 
ENDBRANCH  16  19
ENDBRANCH  15  16
ENDBRANCH   2  15
TORSDOF 6
ENDMDL
MODEL 3
REMARK VINA RESULT:      -8.2      3.384      7.055
REMARK  6 active torsions:
REMARK  status: ('A' for Active; 'I' for Inactive)
REMARK    1  A    between atoms: N_2  and  C_4 
REMARK    2  A    between atoms: N_2  and  C_14 
REMARK    3  A    between atoms: C_5  and  O_6 
REMARK    4  A    between atoms: C_14  and  C_15 
REMARK    5  A    between atoms: C_15  and  O_16 
REMARK    6  A    between atoms: C_15  and  C_17 
ROOT
HETATM    1  C   UNL     1      25.253  44.071  52.579  1.00  0.00     0.270 C 
HETATM    2  N   UNL     1      26.428  43.365  53.200  1.00  0.00    -0.065 N 
HETATM    3  H   UNL     1      26.061  42.425  53.454  1.00  0.00     0.280 HD
ENDROOT
BRANCH   2   4
HETATM    4  C   UNL     1      27.618  43.038  52.264  1.00  0.00     0.225 C 
HETATM    5  C   UNL     1      27.814  41.497  52.102  1.00  0.00     0.183 C 
HETATM    6  C   UNL     1      27.078  41.235  50.820  1.00  0.00    -0.021 A 
HETATM    7  C   UNL     1      26.871  42.431  50.113  1.00  0.00    -0.047 A 
HETATM    8  C   UNL     1      26.654  40.023  50.299  1.00  0.00     0.010 A 
HETATM    9  C   UNL     1      27.434  43.611  50.847  1.00  0.00     0.075 C 
HETATM   10  C   UNL     1      26.240  42.438  48.881  1.00  0.00     0.008 A 
HETATM   11  C   UNL     1      25.797  41.223  48.360  1.00  0.00     0.001 A 
HETATM   12  C   UNL     1      26.002  40.025  49.064  1.00  0.00     0.001 A 
BRANCH   5  13
HETATM   13  O   UNL     1      27.280  40.813  53.228  1.00  0.00    -0.389 OA
HETATM   14  H   UNL     1      27.259  39.864  52.998  1.00  0.00     0.210 HD
ENDBRANCH   5  13
ENDBRANCH   2   4
BRANCH   2  15
HETATM   15  C   UNL     1      26.870  43.994  54.516  1.00  0.00     0.271 C 
BRANCH  15  16
HETATM   16  C   UNL     1      28.018  44.999  54.280  1.00  0.00     0.177 C 
BRANCH  16  17
HETATM   17  O   UNL     1      27.490  46.320  54.442  1.00  0.00    -0.389 OA
HETATM   18  H   UNL     1      27.823  46.856  53.695  1.00  0.00     0.210 HD
ENDBRANCH  16  17
BRANCH  16  19
HETATM   19  C   UNL     1      29.181  44.732  55.209  1.00  0.00    -0.028 A 
HETATM   20  C   UNL     1      29.969  43.583  55.020  1.00  0.00     0.013 A 
HETATM   21  C   UNL     1      31.017  43.291  55.895  1.00  0.00     0.043 A 
HETATM   22  C   UNL     1      31.282  44.144  56.958  1.00  0.00     0.116 A 
HETATM   23  F   UNL     1      32.284  43.861  57.798  1.00  0.00    -0.206 F 
HETATM   24  C   UNL     1      30.517  45.285  57.163  1.00  0.00     0.043 A 
HETATM   25  C   UNL     1      29.464  45.579  56.294  1.00  0.00     0.013 A 
ENDBRANCH  16  19
ENDBRANCH  15  16
ENDBRANCH   2  15
TORSDOF 6
ENDMDL
MODEL 4
REMARK VINA RESULT:      -8.1      2.721      4.287
REMARK  6 active torsions:
REMARK  status: ('A' for Active; 'I' for Inactive)
REMARK    1  A    between atoms: N_2  and  C_4 
REMARK    2  A    between atoms: N_2  and  C_14 
REMARK    3  A    between atoms: C_5  and  O_6 
REMARK    4  A    between atoms: C_14  and  C_15 
REMARK    5  A    between atoms: C_15  and  O_16 
REMARK    6  A    between atoms: C_15  and  C_17 
ROOT
HETATM    1  C   UNL     1      26.515  47.160  53.379  1.00  0.00     0.270 C 
HETATM    2  N   UNL     1      26.353  46.135  52.289  1.00  0.00    -0.065 N 
HETATM    3  H   UNL     1      27.279  46.113  51.815  1.00  0.00     0.280 HD
ENDROOT
BRANCH   2   4
HETATM    4  C   UNL     1      26.152  44.667  52.739  1.00  0.00     0.225 C 
HETATM    5  C   UNL     1      27.015  43.683  51.888  1.00  0.00     0.183 C 
HETATM    6  C   UNL     1      28.220  43.506  52.765  1.00  0.00    -0.021 A 
HETATM    7  C   UNL     1      27.946  43.930  54.077  1.00  0.00    -0.047 A 
HETATM    8  C   UNL     1      29.459  42.977  52.438  1.00  0.00     0.010 A 
HETATM    9  C   UNL     1      26.542  44.437  54.210  1.00  0.00     0.075 C 
HETATM   10  C   UNL     1      28.898  43.833  55.078  1.00  0.00     0.008 A 
HETATM   11  C   UNL     1      30.151  43.317  54.748  1.00  0.00     0.001 A 
HETATM   12  C   UNL     1      30.429  42.893  53.439  1.00  0.00     0.001 A 
BRANCH   5  13
HETATM   13  O   UNL     1      27.300  44.252  50.617  1.00  0.00    -0.389 OA
HETATM   14  H   UNL     1      27.248  43.527  49.964  1.00  0.00     0.210 HD
ENDBRANCH   5  13
ENDBRANCH   2   4
BRANCH   2  15
HETATM   15  C   UNL     1      25.361  46.563  51.214  1.00  0.00     0.271 C 
BRANCH  15  16
HETATM   16  C   UNL     1      26.028  47.533  50.215  1.00  0.00     0.177 C 
BRANCH  16  17
HETATM   17  O   UNL     1      26.899  46.769  49.373  1.00  0.00    -0.389 OA
HETATM   18  H   UNL     1      26.351  46.085  48.939  1.00  0.00     0.210 HD
ENDBRANCH  16  17
BRANCH  16  19
HETATM   19  C   UNL     1      24.994  48.299  49.420  1.00  0.00    -0.028 A 
HETATM   20  C   UNL     1      25.387  49.431  48.683  1.00  0.00     0.013 A 
HETATM   21  C   UNL     1      24.442  50.181  47.981  1.00  0.00     0.043 A 
HETATM   22  C   UNL     1      23.106  49.806  48.011  1.00  0.00     0.116 A 
HETATM   23  F   UNL     1      22.201  50.529  47.341  1.00  0.00    -0.206 F 
HETATM   24  C   UNL     1      22.695  48.692  48.733  1.00  0.00     0.043 A 
HETATM   25  C   UNL     1      23.636  47.940  49.442  1.00  0.00     0.013 A 
ENDBRANCH  16  19
ENDBRANCH  15  16
ENDBRANCH   2  15
TORSDOF 6
ENDMDL
MODEL 5
REMARK VINA RESULT:      -7.7      4.502      5.646
REMARK  6 active torsions:
REMARK  status: ('A' for Active; 'I' for Inactive)
REMARK    1  A    between atoms: N_2  and  C_4 
REMARK    2  A    between atoms: N_2  and  C_14 
REMARK    3  A    between atoms: C_5  and  O_6 
REMARK    4  A    between atoms: C_14  and  C_15 
REMARK    5  A    between atoms: C_15  and  O_16 
REMARK    6  A    between atoms: C_15  and  C_17 
ROOT
HETATM    1  C   UNL     1      27.385  44.476  51.445  1.00  0.00     0.270 C 
HETATM    2  N   UNL     1      27.849  43.055  51.621  1.00  0.00    -0.065 N 
HETATM    3  H   UNL     1      28.881  43.102  51.499  1.00  0.00     0.280 HD
ENDROOT
BRANCH   2   4
HETATM    4  C   UNL     1      27.690  42.442  53.035  1.00  0.00     0.225 C 
HETATM    5  C   UNL     1      29.075  42.135  53.686  1.00  0.00     0.183 C 
HETATM    6  C   UNL     1      29.287  43.358  54.531  1.00  0.00    -0.021 A 
HETATM    7  C   UNL     1      28.078  44.051  54.712  1.00  0.00    -0.047 A 
HETATM    8  C   UNL     1      30.455  43.807  55.126  1.00  0.00     0.010 A 
HETATM    9  C   UNL     1      26.942  43.374  54.006  1.00  0.00     0.075 C 
HETATM   10  C   UNL     1      28.016  45.197  55.486  1.00  0.00     0.008 A 
HETATM   11  C   UNL     1      29.192  45.662  56.073  1.00  0.00     0.001 A 
HETATM   12  C   UNL     1      30.402  44.973  55.894  1.00  0.00     0.001 A 
BRANCH   5  13
HETATM   13  O   UNL     1      30.061  41.948  52.679  1.00  0.00    -0.389 OA
HETATM   14  H   UNL     1      30.668  42.712  52.732  1.00  0.00     0.210 HD
ENDBRANCH   5  13
ENDBRANCH   2   4
BRANCH   2  15
HETATM   15  C   UNL     1      27.354  42.128  50.518  1.00  0.00     0.271 C 
BRANCH  15  16
HETATM   16  C   UNL     1      27.409  40.656  50.981  1.00  0.00     0.177 C 
BRANCH  16  17
HETATM   17  O   UNL     1      26.083  40.258  51.347  1.00  0.00    -0.389 OA
HETATM   18  H   UNL     1      25.509  41.044  51.245  1.00  0.00     0.210 HD
ENDBRANCH  16  17
BRANCH  16  19
HETATM   19  C   UNL     1      27.995  39.765  49.909  1.00  0.00    -0.028 A 
HETATM   20  C   UNL     1      27.494  39.839  48.597  1.00  0.00     0.013 A 
HETATM   21  C   UNL     1      27.986  38.992  47.602  1.00  0.00     0.043 A 
HETATM   22  C   UNL     1      28.978  38.071  47.912  1.00  0.00     0.116 A 
HETATM   23  F   UNL     1      29.445  37.257  46.959  1.00  0.00    -0.206 F 
HETATM   24  C   UNL     1      29.487  37.980  49.202  1.00  0.00     0.043 A 
HETATM   25  C   UNL     1      28.995  38.822  50.202  1.00  0.00     0.013 A 
ENDBRANCH  16  19
ENDBRANCH  15  16
ENDBRANCH   2  15
TORSDOF 6
ENDMDL
MODEL 6
REMARK VINA RESULT:      -7.7      6.988     11.585
REMARK  6 active torsions:
REMARK  status: ('A' for Active; 'I' for Inactive)
REMARK    1  A    between atoms: N_2  and  C_4 
REMARK    2  A    between atoms: N_2  and  C_14 
REMARK    3  A    between atoms: C_5  and  O_6 
REMARK    4  A    between atoms: C_14  and  C_15 
REMARK    5  A    between atoms: C_15  and  O_16 
REMARK    6  A    between atoms: C_15  and  C_17 
ROOT
HETATM    1  C   UNL     1      20.292  48.931  49.567  1.00  0.00     0.270 C 
HETATM    2  N   UNL     1      20.693  49.110  48.128  1.00  0.00    -0.065 N 
HETATM    3  H   UNL     1      20.024  48.517  47.597  1.00  0.00     0.280 HD
ENDROOT
BRANCH   2   4
HETATM    4  C   UNL     1      20.479  50.517  47.516  1.00  0.00     0.225 C 
HETATM    5  C   UNL     1      19.170  50.580  46.667  1.00  0.00     0.183 C 
HETATM    6  C   UNL     1      18.199  51.155  47.657  1.00  0.00    -0.021 A 
HETATM    7  C   UNL     1      18.880  51.745  48.735  1.00  0.00    -0.047 A 
HETATM    8  C   UNL     1      16.815  51.187  47.593  1.00  0.00     0.010 A 
HETATM    9  C   UNL     1      20.366  51.619  48.584  1.00  0.00     0.075 C 
HETATM   10  C   UNL     1      18.195  52.373  49.762  1.00  0.00     0.008 A 
HETATM   11  C   UNL     1      16.802  52.392  49.710  1.00  0.00     0.001 A 
HETATM   12  C   UNL     1      16.117  51.804  48.634  1.00  0.00     0.001 A 
BRANCH   5  13
HETATM   13  O   UNL     1      18.823  49.283  46.201  1.00  0.00    -0.389 OA
HETATM   14  H   UNL     1      17.852  49.273  46.088  1.00  0.00     0.210 HD
ENDBRANCH   5  13
ENDBRANCH   2   4
BRANCH   2  15
HETATM   15  C   UNL     1      22.071  48.538  47.820  1.00  0.00     0.271 C 
BRANCH  15  16
HETATM   16  C   UNL     1      22.787  48.115  49.122  1.00  0.00     0.177 C 
BRANCH  16  17
HETATM   17  O   UNL     1      22.620  46.701  49.278  1.00  0.00    -0.389 OA
HETATM   18  H   UNL     1      23.227  46.417  49.990  1.00  0.00     0.210 HD
ENDBRANCH  16  17
BRANCH  16  19
HETATM   19  C   UNL     1      24.244  48.518  49.104  1.00  0.00    -0.028 A 
HETATM   20  C   UNL     1      24.649  49.612  48.318  1.00  0.00     0.013 A 
HETATM   21  C   UNL     1      25.997  49.972  48.248  1.00  0.00     0.043 A 
HETATM   22  C   UNL     1      26.941  49.245  48.960  1.00  0.00     0.116 A 
HETATM   23  F   UNL     1      28.231  49.589  48.888  1.00  0.00    -0.206 F 
HETATM   24  C   UNL     1      26.562  48.161  49.742  1.00  0.00     0.043 A 
HETATM   25  C   UNL     1      25.216  47.793  49.812  1.00  0.00     0.013 A 
ENDBRANCH  16  19
ENDBRANCH  15  16
ENDBRANCH   2  15
TORSDOF 6
ENDMDL
MODEL 7
REMARK VINA RESULT:      -7.7      3.349      7.545
REMARK  6 active torsions:
REMARK  status: ('A' for Active; 'I' for Inactive)
REMARK    1  A    between atoms: N_2  and  C_4 
REMARK    2  A    between atoms: N_2  and  C_14 
REMARK    3  A    between atoms: C_5  and  O_6 
REMARK    4  A    between atoms: C_14  and  C_15 
REMARK    5  A    between atoms: C_15  and  O_16 
REMARK    6  A    between atoms: C_15  and  C_17 
ROOT
HETATM    1  C   UNL     1      25.445  44.317  53.512  1.00  0.00     0.270 C 
HETATM    2  N   UNL     1      26.715  44.252  52.707  1.00  0.00    -0.065 N 
HETATM    3  H   UNL     1      26.900  43.234  52.597  1.00  0.00     0.280 HD
ENDROOT
BRANCH   2   4
HETATM    4  C   UNL     1      26.638  44.756  51.245  1.00  0.00     0.225 C 
HETATM    5  C   UNL     1      26.885  43.600  50.225  1.00  0.00     0.183 C 
HETATM    6  C   UNL     1      25.481  43.200  49.880  1.00  0.00    -0.021 A 
HETATM    7  C   UNL     1      24.572  44.203  50.257  1.00  0.00    -0.047 A 
HETATM    8  C   UNL     1      25.039  42.049  49.246  1.00  0.00     0.010 A 
HETATM    9  C   UNL     1      25.268  45.366  50.897  1.00  0.00     0.075 C 
HETATM   10  C   UNL     1      23.215  44.075  50.010  1.00  0.00     0.008 A 
HETATM   11  C   UNL     1      22.766  42.910  49.387  1.00  0.00     0.001 A 
HETATM   12  C   UNL     1      23.670  41.906  49.009  1.00  0.00     0.001 A 
BRANCH   5  13
HETATM   13  O   UNL     1      27.651  42.566  50.831  1.00  0.00    -0.389 OA
HETATM   14  H   UNL     1      28.467  42.471  50.301  1.00  0.00     0.210 HD
ENDBRANCH   5  13
ENDBRANCH   2   4
BRANCH   2  15
HETATM   15  C   UNL     1      27.922  44.802  53.458  1.00  0.00     0.271 C 
BRANCH  15  16
HETATM   16  C   UNL     1      28.886  43.660  53.845  1.00  0.00     0.177 C 
BRANCH  16  17
HETATM   17  O   UNL     1      29.732  43.395  52.720  1.00  0.00    -0.389 OA
HETATM   18  H   UNL     1      30.648  43.601  52.994  1.00  0.00     0.210 HD
ENDBRANCH  16  17
BRANCH  16  19
HETATM   19  C   UNL     1      29.680  44.008  55.084  1.00  0.00    -0.028 A 
HETATM   20  C   UNL     1      30.648  43.107  55.563  1.00  0.00     0.013 A 
HETATM   21  C   UNL     1      31.358  43.386  56.732  1.00  0.00     0.043 A 
HETATM   22  C   UNL     1      31.106  44.562  57.425  1.00  0.00     0.116 A 
HETATM   23  F   UNL     1      31.785  44.825  58.548  1.00  0.00    -0.206 F 
HETATM   24  C   UNL     1      30.155  45.466  56.971  1.00  0.00     0.043 A 
HETATM   25  C   UNL     1      29.437  45.190  55.805  1.00  0.00     0.013 A 
ENDBRANCH  16  19
ENDBRANCH  15  16
ENDBRANCH   2  15
TORSDOF 6
ENDMDL
MODEL 8
REMARK VINA RESULT:      -7.6      2.938      7.020
REMARK  6 active torsions:
REMARK  status: ('A' for Active; 'I' for Inactive)
REMARK    1  A    between atoms: N_2  and  C_4 
REMARK    2  A    between atoms: N_2  and  C_14 
REMARK    3  A    between atoms: C_5  and  O_6 
REMARK    4  A    between atoms: C_14  and  C_15 
REMARK    5  A    between atoms: C_15  and  O_16 
REMARK    6  A    between atoms: C_15  and  C_17 
ROOT
HETATM    1  C   UNL     1      26.893  43.114  49.596  1.00  0.00     0.270 C 
HETATM    2  N   UNL     1      27.027  43.694  50.978  1.00  0.00    -0.065 N 
HETATM    3  H   UNL     1      27.444  44.635  50.824  1.00  0.00     0.280 HD
ENDROOT
BRANCH   2   4
HETATM    4  C   UNL     1      25.711  44.011  51.730  1.00  0.00     0.225 C 
HETATM    5  C   UNL     1      25.529  45.546  51.947  1.00  0.00     0.183 C 
HETATM    6  C   UNL     1      24.643  45.909  50.791  1.00  0.00    -0.021 A 
HETATM    7  C   UNL     1      24.039  44.762  50.249  1.00  0.00    -0.047 A 
HETATM    8  C   UNL     1      24.362  47.165  50.277  1.00  0.00     0.010 A 
HETATM    9  C   UNL     1      24.462  43.520  50.975  1.00  0.00     0.075 C 
HETATM   10  C   UNL     1      23.150  44.848  49.191  1.00  0.00     0.008 A 
HETATM   11  C   UNL     1      22.878  46.109  48.660  1.00  0.00     0.001 A 
HETATM   12  C   UNL     1      23.479  47.257  49.199  1.00  0.00     0.001 A 
BRANCH   5  13
HETATM   13  O   UNL     1      26.793  46.197  51.937  1.00  0.00    -0.389 OA
HETATM   14  H   UNL     1      26.860  46.670  51.084  1.00  0.00     0.210 HD
ENDBRANCH   5  13
ENDBRANCH   2   4
BRANCH   2  15
HETATM   15  C   UNL     1      28.034  42.944  51.841  1.00  0.00     0.271 C 
BRANCH  15  16
HETATM   16  C   UNL     1      27.544  42.867  53.303  1.00  0.00     0.177 C 
BRANCH  16  17
HETATM   17  O   UNL     1      27.415  41.483  53.653  1.00  0.00    -0.389 OA
HETATM   18  H   UNL     1      26.968  41.447  54.522  1.00  0.00     0.210 HD
ENDBRANCH  16  17
BRANCH  16  19
HETATM   19  C   UNL     1      28.478  43.605  54.235  1.00  0.00    -0.028 A 
HETATM   20  C   UNL     1      29.703  43.016  54.597  1.00  0.00     0.013 A 
HETATM   21  C   UNL     1      30.560  43.657  55.494  1.00  0.00     0.043 A 
HETATM   22  C   UNL     1      30.198  44.885  56.031  1.00  0.00     0.116 A 
HETATM   23  F   UNL     1      31.018  45.496  56.893  1.00  0.00    -0.206 F 
HETATM   24  C   UNL     1      28.993  45.485  55.688  1.00  0.00     0.043 A 
HETATM   25  C   UNL     1      28.130  44.845  54.795  1.00  0.00     0.013 A 
ENDBRANCH  16  19
ENDBRANCH  15  16
ENDBRANCH   2  15
TORSDOF 6
ENDMDL
MODEL 9
REMARK VINA RESULT:      -7.6      4.934      7.876
REMARK  6 active torsions:
REMARK  status: ('A' for Active; 'I' for Inactive)
REMARK    1  A    between atoms: N_2  and  C_4 
REMARK    2  A    between atoms: N_2  and  C_14 
REMARK    3  A    between atoms: C_5  and  O_6 
REMARK    4  A    between atoms: C_14  and  C_15 
REMARK    5  A    between atoms: C_15  and  O_16 
REMARK    6  A    between atoms: C_15  and  C_17 
ROOT
HETATM    1  C   UNL     1      25.874  41.663  50.449  1.00  0.00     0.270 C 
HETATM    2  N   UNL     1      27.295  41.330  50.816  1.00  0.00    -0.065 N 
HETATM    3  H   UNL     1      27.213  40.514  51.456  1.00  0.00     0.280 HD
ENDROOT
BRANCH   2   4
HETATM    4  C   UNL     1      28.200  40.796  49.679  1.00  0.00     0.225 C 
HETATM    5  C   UNL     1      28.773  39.383  50.016  1.00  0.00     0.183 C 
HETATM    6  C   UNL     1      27.802  38.488  49.302  1.00  0.00    -0.021 A 
HETATM    7  C   UNL     1      27.064  39.214  48.353  1.00  0.00    -0.047 A 
HETATM    8  C   UNL     1      27.609  37.124  49.455  1.00  0.00     0.010 A 
HETATM    9  C   UNL     1      27.455  40.662  48.338  1.00  0.00     0.075 C 
HETATM   10  C   UNL     1      26.126  38.595  47.544  1.00  0.00     0.008 A 
HETATM   11  C   UNL     1      25.917  37.226  47.706  1.00  0.00     0.001 A 
HETATM   12  C   UNL     1      26.652  36.497  48.654  1.00  0.00     0.001 A 
BRANCH   5  13
HETATM   13  O   UNL     1      28.811  39.192  51.425  1.00  0.00    -0.389 OA
HETATM   14  H   UNL     1      29.112  40.035  51.816  1.00  0.00     0.210 HD
ENDBRANCH   5  13
ENDBRANCH   2   4
BRANCH   2  15
HETATM   15  C   UNL     1      27.966  42.422  51.640  1.00  0.00     0.271 C 
BRANCH  15  16
HETATM   16  C   UNL     1      27.566  42.304  53.127  1.00  0.00     0.177 C 
BRANCH  16  17
HETATM   17  O   UNL     1      27.619  40.919  53.490  1.00  0.00    -0.389 OA
HETATM   18  H   UNL     1      27.610  40.878  54.467  1.00  0.00     0.210 HD
ENDBRANCH  16  17
BRANCH  16  19
HETATM   19  C   UNL     1      28.453  43.157  54.004  1.00  0.00    -0.028 A 
HETATM   20  C   UNL     1      29.713  42.671  54.396  1.00  0.00     0.013 A 
HETATM   21  C   UNL     1      30.529  43.420  55.245  1.00  0.00     0.043 A 
HETATM   22  C   UNL     1      30.092  44.656  55.704  1.00  0.00     0.116 A 
HETATM   23  F   UNL     1      30.874  45.370  56.521  1.00  0.00    -0.206 F 
HETATM   24  C   UNL     1      28.851  45.156  55.330  1.00  0.00     0.043 A 
HETATM   25  C   UNL     1      28.029  44.407  54.485  1.00  0.00     0.013 A 
ENDBRANCH  16  19
ENDBRANCH  15  16
ENDBRANCH   2  15
TORSDOF 6
ENDMDL
MODEL 10
REMARK VINA RESULT:      -7.6      3.008      3.891
REMARK  6 active torsions:
REMARK  status: ('A' for Active; 'I' for Inactive)
REMARK    1  A    between atoms: N_2  and  C_4 
REMARK    2  A    between atoms: N_2  and  C_14 
REMARK    3  A    between atoms: C_5  and  O_6 
REMARK    4  A    between atoms: C_14  and  C_15 
REMARK    5  A    between atoms: C_15  and  O_16 
REMARK    6  A    between atoms: C_15  and  C_17 
ROOT
HETATM    1  C   UNL     1      27.668  44.424  51.419  1.00  0.00     0.270 C 
HETATM    2  N   UNL     1      27.771  42.938  51.629  1.00  0.00    -0.065 N 
HETATM    3  H   UNL     1      28.773  42.720  51.450  1.00  0.00     0.280 HD
ENDROOT
BRANCH   2   4
HETATM    4  C   UNL     1      27.551  42.421  53.072  1.00  0.00     0.225 C 
HETATM    5  C   UNL     1      28.876  41.882  53.698  1.00  0.00     0.183 C 
HETATM    6  C   UNL     1      29.344  43.074  54.480  1.00  0.00    -0.021 A 
HETATM    7  C   UNL     1      28.295  43.991  54.664  1.00  0.00    -0.047 A 
HETATM    8  C   UNL     1      30.596  43.316  55.022  1.00  0.00     0.010 A 
HETATM    9  C   UNL     1      27.027  43.515  54.021  1.00  0.00     0.075 C 
HETATM   10  C   UNL     1      28.477  45.157  55.388  1.00  0.00     0.008 A 
HETATM   11  C   UNL     1      29.741  45.412  55.920  1.00  0.00     0.001 A 
HETATM   12  C   UNL     1      30.791  44.499  55.738  1.00  0.00     0.001 A 
BRANCH   5  13
HETATM   13  O   UNL     1      29.772  41.472  52.673  1.00  0.00    -0.389 OA
HETATM   14  H   UNL     1      30.517  42.104  52.680  1.00  0.00     0.210 HD
ENDBRANCH   5  13
ENDBRANCH   2   4
BRANCH   2  15
HETATM   15  C   UNL     1      26.994  42.137  50.591  1.00  0.00     0.271 C 
BRANCH  15  16
HETATM   16  C   UNL     1      26.626  43.026  49.384  1.00  0.00     0.177 C 
BRANCH  16  17
HETATM   17  O   UNL     1      27.010  42.332  48.191  1.00  0.00    -0.389 OA
HETATM   18  H   UNL     1      26.191  42.143  47.692  1.00  0.00     0.210 HD
ENDBRANCH  16  17
BRANCH  16  19
HETATM   19  C   UNL     1      25.155  43.378  49.389  1.00  0.00    -0.028 A 
HETATM   20  C   UNL     1      24.740  44.626  48.892  1.00  0.00     0.013 A 
HETATM   21  C   UNL     1      23.393  44.992  48.931  1.00  0.00     0.043 A 
HETATM   22  C   UNL     1      22.459  44.115  49.465  1.00  0.00     0.116 A 
HETATM   23  F   UNL     1      21.169  44.469  49.505  1.00  0.00    -0.206 F 
HETATM   24  C   UNL     1      22.846  42.877  49.961  1.00  0.00     0.043 A 
HETATM   25  C   UNL     1      24.193  42.508  49.929  1.00  0.00     0.013 A 
ENDBRANCH  16  19
ENDBRANCH  15  16
ENDBRANCH   2  15
TORSDOF 6
ENDMDL
