MODEL 1
REMARK VINA RESULT:      -9.9      0.000      0.000
REMARK  7 active torsions:
REMARK  status: ('A' for Active; 'I' for Inactive)
REMARK    1  A    between atoms: O_2  and  C_3 
REMARK    2  A    between atoms: C_6  and  C_7 
REMARK    3  A    between atoms: C_11  and  C_12 
REMARK       I    between atoms: C_12  and  N_13 
REMARK    4  A    between atoms: N_13  and  N_14 
REMARK       I    between atoms: N_14  and  C_15 
REMARK    5  A    between atoms: C_15  and  C_16 
REMARK    6  A    between atoms: C_16  and  C_17 
REMARK    7  A    between atoms: C_17  and  C_18 
ROOT
HETATM    1  C   UNL     1      24.465  45.872  50.620  1.00  0.00     0.288 C 
HETATM    2  N   UNL     1      24.290  47.232  50.748  1.00  0.00    -0.262 N 
HETATM    3  O   UNL     1      23.856  45.215  49.777  1.00  0.00    -0.264 OA
HETATM    4  H   UNL     1      24.759  47.805  51.446  1.00  0.00     0.190 HD
ENDROOT
BRANCH   1   5
HETATM    5  C   UNL     1      25.411  45.284  51.526  1.00  0.00     0.121 A 
HETATM    6  N   UNL     1      25.608  43.933  51.587  1.00  0.00    -0.272 N 
HETATM    7  N   UNL     1      26.566  43.554  52.444  1.00  0.00    -0.174 NA
HETATM    8  H   UNL     1      25.124  43.222  51.047  1.00  0.00     0.189 HD
HETATM    9  C   UNL     1      27.009  44.699  52.987  1.00  0.00     0.089 A 
HETATM   10  C   UNL     1      26.298  45.807  52.447  1.00  0.00     0.071 A 
BRANCH   9  11
HETATM   11  C   UNL     1      28.103  44.719  53.963  1.00  0.00    -0.005 A 
HETATM   12  C   UNL     1      28.239  45.795  54.852  1.00  0.00     0.016 A 
HETATM   13  C   UNL     1      29.246  45.806  55.824  1.00  0.00     0.037 A 
HETATM   14  C   UNL     1      30.138  44.740  55.919  1.00  0.00     0.068 A 
HETATM   15  C   UNL     1      30.028  43.678  55.019  1.00  0.00     0.037 A 
HETATM   16  C   UNL     1      29.018  43.663  54.051  1.00  0.00     0.016 A 
BRANCH  14  17
HETATM   17  O   UNL     1      31.155  44.620  56.827  1.00  0.00    -0.356 OA
HETATM   18  C   UNL     1      31.616  43.301  57.095  1.00  0.00     0.210 C 
ENDBRANCH  14  17
ENDBRANCH   9  11
ENDBRANCH   1   5
BRANCH   2  19
HETATM   19  N   UNL     1      23.418  47.895  49.880  1.00  0.00    -0.267 N 
HETATM   20  C   UNL     1      23.933  48.901  49.094  1.00  0.00     0.236 C 
HETATM   21  O   UNL     1      25.104  49.267  49.173  1.00  0.00    -0.272 OA
HETATM   22  H   UNL     1      22.482  47.506  49.780  1.00  0.00     0.190 HD
BRANCH  20  23
HETATM   23  C   UNL     1      22.953  49.504  48.114  1.00  0.00     0.109 C 
BRANCH  23  24
HETATM   24  C   UNL     1      22.458  50.870  48.584  1.00  0.00     0.048 C 
BRANCH  24  25
HETATM   25  C   UNL     1      20.999  50.938  48.988  1.00  0.00    -0.056 A 
HETATM   26  C   UNL     1      20.500  49.967  49.875  1.00  0.00     0.031 A 
HETATM   27  C   UNL     1      19.174  50.013  50.307  1.00  0.00     0.034 A 
HETATM   28 CL   UNL     1      18.587  48.812  51.392  1.00  0.00    -0.084 Cl
HETATM   29  C   UNL     1      18.325  51.027  49.874  1.00  0.00     0.024 A 
HETATM   30  C   UNL     1      18.809  52.002  49.006  1.00  0.00     0.002 A 
HETATM   31  C   UNL     1      20.138  51.963  48.572  1.00  0.00     0.007 A 
ENDBRANCH  24  25
ENDBRANCH  23  24
ENDBRANCH  20  23
ENDBRANCH   2  19
TORSDOF 7
ENDMDL
MODEL 2
REMARK VINA RESULT:      -9.6      3.594     11.390
REMARK  7 active torsions:
REMARK  status: ('A' for Active; 'I' for Inactive)
REMARK    1  A    between atoms: O_2  and  C_3 
REMARK    2  A    between atoms: C_6  and  C_7 
REMARK    3  A    between atoms: C_11  and  C_12 
REMARK       I    between atoms: C_12  and  N_13 
REMARK    4  A    between atoms: N_13  and  N_14 
REMARK       I    between atoms: N_14  and  C_15 
REMARK    5  A    between atoms: C_15  and  C_16 
REMARK    6  A    between atoms: C_16  and  C_17 
REMARK    7  A    between atoms: C_17  and  C_18 
ROOT
HETATM    1  C   UNL     1      25.069  48.171  49.602  1.00  0.00     0.288 C 
HETATM    2  N   UNL     1      24.582  47.254  50.506  1.00  0.00    -0.262 N 
HETATM    3  O   UNL     1      26.270  48.261  49.349  1.00  0.00    -0.264 OA
HETATM    4  H   UNL     1      23.601  47.164  50.757  1.00  0.00     0.190 HD
ENDROOT
BRANCH   1   5
HETATM    5  C   UNL     1      24.080  48.999  48.970  1.00  0.00     0.121 A 
HETATM    6  N   UNL     1      24.366  49.746  47.861  1.00  0.00    -0.272 N 
HETATM    7  N   UNL     1      23.318  50.417  47.364  1.00  0.00    -0.174 NA
HETATM    8  H   UNL     1      25.263  49.819  47.391  1.00  0.00     0.189 HD
HETATM    9  C   UNL     1      22.300  50.117  48.187  1.00  0.00     0.089 A 
HETATM   10  C   UNL     1      22.744  49.240  49.218  1.00  0.00     0.071 A 
BRANCH   9  11
HETATM   11  C   UNL     1      20.946  50.631  47.963  1.00  0.00    -0.005 A 
HETATM   12  C   UNL     1      20.462  51.707  48.721  1.00  0.00     0.016 A 
HETATM   13  C   UNL     1      19.190  52.242  48.484  1.00  0.00     0.037 A 
HETATM   14  C   UNL     1      18.380  51.707  47.484  1.00  0.00     0.068 A 
HETATM   15  C   UNL     1      18.844  50.617  46.744  1.00  0.00     0.037 A 
HETATM   16  C   UNL     1      20.117  50.084  46.976  1.00  0.00     0.016 A 
BRANCH  14  17
HETATM   17  O   UNL     1      17.130  52.142  47.142  1.00  0.00    -0.356 OA
HETATM   18  C   UNL     1      16.785  52.072  45.764  1.00  0.00     0.210 C 
ENDBRANCH  14  17
ENDBRANCH   9  11
ENDBRANCH   1   5
BRANCH   2  19
HETATM   19  N   UNL     1      25.470  46.379  51.139  1.00  0.00    -0.267 N 
HETATM   20  C   UNL     1      25.814  46.644  52.445  1.00  0.00     0.236 C 
HETATM   21  O   UNL     1      25.416  47.642  53.044  1.00  0.00    -0.272 OA
HETATM   22  H   UNL     1      25.706  45.522  50.643  1.00  0.00     0.190 HD
BRANCH  20  23
HETATM   23  C   UNL     1      26.700  45.604  53.091  1.00  0.00     0.109 C 
BRANCH  23  24
HETATM   24  C   UNL     1      27.027  45.966  54.539  1.00  0.00     0.048 C 
BRANCH  24  25
HETATM   25  C   UNL     1      28.324  45.401  55.081  1.00  0.00    -0.056 A 
HETATM   26  C   UNL     1      28.885  45.985  56.230  1.00  0.00     0.031 A 
HETATM   27  C   UNL     1      30.056  45.473  56.789  1.00  0.00     0.034 A 
HETATM   28 CL   UNL     1      30.724  46.207  58.196  1.00  0.00    -0.084 Cl
HETATM   29  C   UNL     1      30.685  44.368  56.223  1.00  0.00     0.024 A 
HETATM   30  C   UNL     1      30.133  43.771  55.092  1.00  0.00     0.002 A 
HETATM   31  C   UNL     1      28.957  44.279  54.530  1.00  0.00     0.007 A 
ENDBRANCH  24  25
ENDBRANCH  23  24
ENDBRANCH  20  23
ENDBRANCH   2  19
TORSDOF 7
ENDMDL
MODEL 3
REMARK VINA RESULT:      -9.2      3.652     10.862
REMARK  7 active torsions:
REMARK  status: ('A' for Active; 'I' for Inactive)
REMARK    1  A    between atoms: O_2  and  C_3 
REMARK    2  A    between atoms: C_6  and  C_7 
REMARK    3  A    between atoms: C_11  and  C_12 
REMARK       I    between atoms: C_12  and  N_13 
REMARK    4  A    between atoms: N_13  and  N_14 
REMARK       I    between atoms: N_14  and  C_15 
REMARK    5  A    between atoms: C_15  and  C_16 
REMARK    6  A    between atoms: C_16  and  C_17 
REMARK    7  A    between atoms: C_17  and  C_18 
ROOT
HETATM    1  C   UNL     1      26.188  46.800  50.001  1.00  0.00     0.288 C 
HETATM    2  N   UNL     1      25.854  46.148  51.167  1.00  0.00    -0.262 N 
HETATM    3  O   UNL     1      27.167  46.474  49.331  1.00  0.00    -0.264 OA
HETATM    4  H   UNL     1      25.066  46.401  51.758  1.00  0.00     0.190 HD
ENDROOT
BRANCH   1   5
HETATM    5  C   UNL     1      25.310  47.871  49.620  1.00  0.00     0.121 A 
HETATM    6  N   UNL     1      25.771  48.993  48.990  1.00  0.00    -0.272 N 
HETATM    7  N   UNL     1      24.814  49.869  48.653  1.00  0.00    -0.174 NA
HETATM    8  H   UNL     1      26.735  49.203  48.749  1.00  0.00     0.189 HD
HETATM    9  C   UNL     1      23.674  49.313  49.095  1.00  0.00     0.089 A 
HETATM   10  C   UNL     1      23.947  48.063  49.721  1.00  0.00     0.071 A 
BRANCH   9  11
HETATM   11  C   UNL     1      22.371  49.950  48.885  1.00  0.00    -0.005 A 
HETATM   12  C   UNL     1      21.748  50.648  49.930  1.00  0.00     0.016 A 
HETATM   13  C   UNL     1      20.528  51.306  49.732  1.00  0.00     0.037 A 
HETATM   14  C   UNL     1      19.909  51.272  48.484  1.00  0.00     0.068 A 
HETATM   15  C   UNL     1      20.509  50.555  47.446  1.00  0.00     0.037 A 
HETATM   16  C   UNL     1      21.731  49.902  47.641  1.00  0.00     0.016 A 
BRANCH  14  17
HETATM   17  O   UNL     1      18.729  51.880  48.154  1.00  0.00    -0.356 OA
HETATM   18  C   UNL     1      17.989  52.458  49.222  1.00  0.00     0.210 C 
ENDBRANCH  14  17
ENDBRANCH   9  11
ENDBRANCH   1   5
BRANCH   2  19
HETATM   19  N   UNL     1      26.631  45.067  51.592  1.00  0.00    -0.267 N 
HETATM   20  C   UNL     1      26.420  44.583  52.864  1.00  0.00     0.236 C 
HETATM   21  O   UNL     1      25.623  45.101  53.644  1.00  0.00    -0.272 OA
HETATM   22  H   UNL     1      27.213  44.612  50.892  1.00  0.00     0.190 HD
BRANCH  20  23
HETATM   23  C   UNL     1      27.227  43.356  53.217  1.00  0.00     0.109 C 
BRANCH  23  24
HETATM   24  C   UNL     1      28.725  43.651  53.226  1.00  0.00     0.048 C 
BRANCH  24  25
HETATM   25  C   UNL     1      29.277  44.214  54.520  1.00  0.00    -0.056 A 
HETATM   26  C   UNL     1      30.305  43.513  55.175  1.00  0.00     0.031 A 
HETATM   27  C   UNL     1      30.873  44.014  56.348  1.00  0.00     0.034 A 
HETATM   28 CL   UNL     1      32.129  43.136  57.131  1.00  0.00    -0.084 Cl
HETATM   29  C   UNL     1      30.436  45.221  56.884  1.00  0.00     0.024 A 
HETATM   30  C   UNL     1      29.428  45.933  56.238  1.00  0.00     0.002 A 
HETATM   31  C   UNL     1      28.858  45.437  55.061  1.00  0.00     0.007 A 
ENDBRANCH  24  25
ENDBRANCH  23  24
ENDBRANCH  20  23
ENDBRANCH   2  19
TORSDOF 7
ENDMDL
MODEL 4
REMARK VINA RESULT:      -8.9      1.193      1.742
REMARK  7 active torsions:
REMARK  status: ('A' for Active; 'I' for Inactive)
REMARK    1  A    between atoms: O_2  and  C_3 
REMARK    2  A    between atoms: C_6  and  C_7 
REMARK    3  A    between atoms: C_11  and  C_12 
REMARK       I    between atoms: C_12  and  N_13 
REMARK    4  A    between atoms: N_13  and  N_14 
REMARK       I    between atoms: N_14  and  C_15 
REMARK    5  A    between atoms: C_15  and  C_16 
REMARK    6  A    between atoms: C_16  and  C_17 
REMARK    7  A    between atoms: C_17  and  C_18 
ROOT
HETATM    1  C   UNL     1      24.525  45.154  50.825  1.00  0.00     0.288 C 
HETATM    2  N   UNL     1      24.649  46.475  50.457  1.00  0.00    -0.262 N 
HETATM    3  O   UNL     1      23.548  44.478  50.503  1.00  0.00    -0.264 OA
HETATM    4  H   UNL     1      25.429  47.071  50.722  1.00  0.00     0.190 HD
ENDROOT
BRANCH   1   5
HETATM    5  C   UNL     1      25.615  44.622  51.593  1.00  0.00     0.121 A 
HETATM    6  N   UNL     1      26.211  43.434  51.275  1.00  0.00    -0.272 N 
HETATM    7  N   UNL     1      27.249  43.110  52.059  1.00  0.00    -0.174 NA
HETATM    8  H   UNL     1      25.956  42.809  50.515  1.00  0.00     0.189 HD
HETATM    9  C   UNL     1      27.333  44.116  52.944  1.00  0.00     0.089 A 
HETATM   10  C   UNL     1      26.313  45.078  52.694  1.00  0.00     0.071 A 
BRANCH   9  11
HETATM   11  C   UNL     1      28.380  44.159  53.968  1.00  0.00    -0.005 A 
HETATM   12  C   UNL     1      29.374  43.170  54.007  1.00  0.00     0.016 A 
HETATM   13  C   UNL     1      30.411  43.225  54.947  1.00  0.00     0.037 A 
HETATM   14  C   UNL     1      30.468  44.270  55.866  1.00  0.00     0.068 A 
HETATM   15  C   UNL     1      29.467  45.244  55.852  1.00  0.00     0.037 A 
HETATM   16  C   UNL     1      28.433  45.194  54.910  1.00  0.00     0.016 A 
BRANCH  14  17
HETATM   17  O   UNL     1      31.429  44.450  56.822  1.00  0.00    -0.356 OA
HETATM   18  C   UNL     1      30.983  44.889  58.099  1.00  0.00     0.210 C 
ENDBRANCH  14  17
ENDBRANCH   9  11
ENDBRANCH   1   5
BRANCH   2  19
HETATM   19  N   UNL     1      23.652  47.063  49.674  1.00  0.00    -0.267 N 
HETATM   20  C   UNL     1      23.862  48.348  49.223  1.00  0.00     0.236 C 
HETATM   21  O   UNL     1      24.856  49.002  49.532  1.00  0.00    -0.272 OA
HETATM   22  H   UNL     1      22.890  46.462  49.367  1.00  0.00     0.190 HD
BRANCH  20  23
HETATM   23  C   UNL     1      22.787  48.880  48.304  1.00  0.00     0.109 C 
BRANCH  23  24
HETATM   24  C   UNL     1      22.242  50.220  48.794  1.00  0.00     0.048 C 
BRANCH  24  25
HETATM   25  C   UNL     1      20.798  50.215  49.251  1.00  0.00    -0.056 A 
HETATM   26  C   UNL     1      20.047  51.397  49.122  1.00  0.00     0.031 A 
HETATM   27  C   UNL     1      18.701  51.429  49.492  1.00  0.00     0.034 A 
HETATM   28 CL   UNL     1      17.804  52.888  49.326  1.00  0.00    -0.084 Cl
HETATM   29  C   UNL     1      18.078  50.287  49.986  1.00  0.00     0.024 A 
HETATM   30  C   UNL     1      18.806  49.106  50.106  1.00  0.00     0.002 A 
HETATM   31  C   UNL     1      20.154  49.068  49.734  1.00  0.00     0.007 A 
ENDBRANCH  24  25
ENDBRANCH  23  24
ENDBRANCH  20  23
ENDBRANCH   2  19
TORSDOF 7
ENDMDL
MODEL 5
REMARK VINA RESULT:      -8.9      1.656      1.933
REMARK  7 active torsions:
REMARK  status: ('A' for Active; 'I' for Inactive)
REMARK    1  A    between atoms: O_2  and  C_3 
REMARK    2  A    between atoms: C_6  and  C_7 
REMARK    3  A    between atoms: C_11  and  C_12 
REMARK       I    between atoms: C_12  and  N_13 
REMARK    4  A    between atoms: N_13  and  N_14 
REMARK       I    between atoms: N_14  and  C_15 
REMARK    5  A    between atoms: C_15  and  C_16 
REMARK    6  A    between atoms: C_16  and  C_17 
REMARK    7  A    between atoms: C_17  and  C_18 
ROOT
HETATM    1  C   UNL     1      24.233  45.688  49.710  1.00  0.00     0.288 C 
HETATM    2  N   UNL     1      23.999  46.962  50.178  1.00  0.00    -0.262 N 
HETATM    3  O   UNL     1      23.563  45.195  48.804  1.00  0.00    -0.264 OA
HETATM    4  H   UNL     1      24.517  47.395  50.938  1.00  0.00     0.190 HD
ENDROOT
BRANCH   1   5
HETATM    5  C   UNL     1      25.316  44.988  50.341  1.00  0.00     0.121 A 
HETATM    6  N   UNL     1      25.926  43.917  49.750  1.00  0.00    -0.272 N 
HETATM    7  N   UNL     1      26.955  43.415  50.446  1.00  0.00    -0.174 NA
HETATM    8  H   UNL     1      25.688  43.498  48.856  1.00  0.00     0.189 HD
HETATM    9  C   UNL     1      27.019  44.173  51.553  1.00  0.00     0.089 A 
HETATM   10  C   UNL     1      25.995  45.163  51.531  1.00  0.00     0.071 A 
BRANCH   9  11
HETATM   11  C   UNL     1      28.051  43.967  52.573  1.00  0.00    -0.005 A 
HETATM   12  C   UNL     1      27.984  44.649  53.796  1.00  0.00     0.016 A 
HETATM   13  C   UNL     1      28.934  44.426  54.800  1.00  0.00     0.037 A 
HETATM   14  C   UNL     1      29.970  43.517  54.594  1.00  0.00     0.068 A 
HETATM   15  C   UNL     1      30.060  42.855  53.367  1.00  0.00     0.037 A 
HETATM   16  C   UNL     1      29.109  43.073  52.365  1.00  0.00     0.016 A 
BRANCH  14  17
HETATM   17  O   UNL     1      30.951  43.197  55.492  1.00  0.00    -0.356 OA
HETATM   18  C   UNL     1      31.078  44.046  56.626  1.00  0.00     0.210 C 
ENDBRANCH  14  17
ENDBRANCH   9  11
ENDBRANCH   1   5
BRANCH   2  19
HETATM   19  N   UNL     1      22.989  47.731  49.592  1.00  0.00    -0.267 N 
HETATM   20  C   UNL     1      23.365  48.796  48.805  1.00  0.00     0.236 C 
HETATM   21  O   UNL     1      24.541  49.121  48.651  1.00  0.00    -0.272 OA
HETATM   22  H   UNL     1      22.037  47.380  49.670  1.00  0.00     0.190 HD
BRANCH  20  23
HETATM   23  C   UNL     1      22.224  49.520  48.130  1.00  0.00     0.109 C 
BRANCH  23  24
HETATM   24  C   UNL     1      21.932  50.860  48.803  1.00  0.00     0.048 C 
BRANCH  24  25
HETATM   25  C   UNL     1      20.482  51.299  48.793  1.00  0.00    -0.056 A 
HETATM   26  C   UNL     1      19.806  51.362  47.561  1.00  0.00     0.031 A 
HETATM   27  C   UNL     1      18.458  51.722  47.507  1.00  0.00     0.034 A 
HETATM   28 CL   UNL     1      17.654  51.793  45.987  1.00  0.00    -0.084 Cl
HETATM   29  C   UNL     1      17.759  52.016  48.673  1.00  0.00     0.024 A 
HETATM   30  C   UNL     1      18.412  51.945  49.901  1.00  0.00     0.002 A 
HETATM   31  C   UNL     1      19.762  51.581  49.961  1.00  0.00     0.007 A 
ENDBRANCH  24  25
ENDBRANCH  23  24
ENDBRANCH  20  23
ENDBRANCH   2  19
TORSDOF 7
ENDMDL
MODEL 6
REMARK VINA RESULT:      -8.6      3.747     11.315
REMARK  7 active torsions:
REMARK  status: ('A' for Active; 'I' for Inactive)
REMARK    1  A    between atoms: O_2  and  C_3 
REMARK    2  A    between atoms: C_6  and  C_7 
REMARK    3  A    between atoms: C_11  and  C_12 
REMARK       I    between atoms: C_12  and  N_13 
REMARK    4  A    between atoms: N_13  and  N_14 
REMARK       I    between atoms: N_14  and  C_15 
REMARK    5  A    between atoms: C_15  and  C_16 
REMARK    6  A    between atoms: C_16  and  C_17 
REMARK    7  A    between atoms: C_17  and  C_18 
ROOT
HETATM    1  C   UNL     1      22.639  47.448  48.869  1.00  0.00     0.288 C 
HETATM    2  N   UNL     1      23.483  47.539  49.953  1.00  0.00    -0.262 N 
HETATM    3  O   UNL     1      22.680  46.496  48.091  1.00  0.00    -0.264 OA
HETATM    4  H   UNL     1      23.493  48.319  50.606  1.00  0.00     0.190 HD
ENDROOT
BRANCH   1   5
HETATM    5  C   UNL     1      21.705  48.528  48.722  1.00  0.00     0.121 A 
HETATM    6  N   UNL     1      21.921  49.554  47.844  1.00  0.00    -0.272 N 
HETATM    7  N   UNL     1      20.926  50.451  47.789  1.00  0.00    -0.174 NA
HETATM    8  H   UNL     1      22.729  49.681  47.242  1.00  0.00     0.189 HD
HETATM    9  C   UNL     1      20.022  50.011  48.680  1.00  0.00     0.089 A 
HETATM   10  C   UNL     1      20.483  48.814  49.297  1.00  0.00     0.071 A 
BRANCH   9  11
HETATM   11  C   UNL     1      18.750  50.705  48.896  1.00  0.00    -0.005 A 
HETATM   12  C   UNL     1      17.551  50.151  48.424  1.00  0.00     0.016 A 
HETATM   13  C   UNL     1      16.322  50.775  48.666  1.00  0.00     0.037 A 
HETATM   14  C   UNL     1      16.272  51.968  49.384  1.00  0.00     0.068 A 
HETATM   15  C   UNL     1      17.463  52.541  49.835  1.00  0.00     0.037 A 
HETATM   16  C   UNL     1      18.693  51.916  49.597  1.00  0.00     0.016 A 
BRANCH  14  17
HETATM   17  O   UNL     1      15.142  52.670  49.702  1.00  0.00    -0.356 OA
HETATM   18  C   UNL     1      15.314  53.815  50.527  1.00  0.00     0.210 C 
ENDBRANCH  14  17
ENDBRANCH   9  11
ENDBRANCH   1   5
BRANCH   2  19
HETATM   19  N   UNL     1      24.397  46.510  50.197  1.00  0.00    -0.267 N 
HETATM   20  C   UNL     1      25.275  46.664  51.246  1.00  0.00     0.236 C 
HETATM   21  O   UNL     1      25.317  47.687  51.928  1.00  0.00    -0.272 OA
HETATM   22  H   UNL     1      24.273  45.647  49.671  1.00  0.00     0.190 HD
BRANCH  20  23
HETATM   23  C   UNL     1      26.167  45.472  51.507  1.00  0.00     0.109 C 
BRANCH  23  24
HETATM   24  C   UNL     1      25.982  44.932  52.924  1.00  0.00     0.048 C 
BRANCH  24  25
HETATM   25  C   UNL     1      27.107  45.229  53.893  1.00  0.00    -0.056 A 
HETATM   26  C   UNL     1      28.110  44.261  54.078  1.00  0.00     0.031 A 
HETATM   27  C   UNL     1      29.188  44.507  54.930  1.00  0.00     0.034 A 
HETATM   28 CL   UNL     1      30.402  43.305  55.141  1.00  0.00    -0.084 Cl
HETATM   29  C   UNL     1      29.292  45.720  55.605  1.00  0.00     0.024 A 
HETATM   30  C   UNL     1      28.313  46.693  55.420  1.00  0.00     0.002 A 
HETATM   31  C   UNL     1      27.233  46.453  54.565  1.00  0.00     0.007 A 
ENDBRANCH  24  25
ENDBRANCH  23  24
ENDBRANCH  20  23
ENDBRANCH   2  19
TORSDOF 7
ENDMDL
MODEL 7
REMARK VINA RESULT:      -8.6      1.980      2.302
REMARK  7 active torsions:
REMARK  status: ('A' for Active; 'I' for Inactive)
REMARK    1  A    between atoms: O_2  and  C_3 
REMARK    2  A    between atoms: C_6  and  C_7 
REMARK    3  A    between atoms: C_11  and  C_12 
REMARK       I    between atoms: C_12  and  N_13 
REMARK    4  A    between atoms: N_13  and  N_14 
REMARK       I    between atoms: N_14  and  C_15 
REMARK    5  A    between atoms: C_15  and  C_16 
REMARK    6  A    between atoms: C_16  and  C_17 
REMARK    7  A    between atoms: C_17  and  C_18 
ROOT
HETATM    1  C   UNL     1      24.516  45.038  51.453  1.00  0.00     0.288 C 
HETATM    2  N   UNL     1      24.133  46.019  50.566  1.00  0.00    -0.262 N 
HETATM    3  O   UNL     1      23.986  43.927  51.463  1.00  0.00    -0.264 OA
HETATM    4  H   UNL     1      24.532  46.954  50.541  1.00  0.00     0.190 HD
ENDROOT
BRANCH   1   5
HETATM    5  C   UNL     1      25.579  45.397  52.349  1.00  0.00     0.121 A 
HETATM    6  N   UNL     1      25.793  46.691  52.733  1.00  0.00    -0.272 N 
HETATM    7  N   UNL     1      26.790  46.847  53.616  1.00  0.00    -0.174 NA
HETATM    8  H   UNL     1      25.272  47.510  52.433  1.00  0.00     0.189 HD
HETATM    9  C   UNL     1      27.268  45.607  53.810  1.00  0.00     0.089 A 
HETATM   10  C   UNL     1      26.543  44.670  53.020  1.00  0.00     0.071 A 
BRANCH   9  11
HETATM   11  C   UNL     1      28.359  45.338  54.751  1.00  0.00    -0.005 A 
HETATM   12  C   UNL     1      28.625  46.229  55.801  1.00  0.00     0.016 A 
HETATM   13  C   UNL     1      29.630  45.962  56.738  1.00  0.00     0.037 A 
HETATM   14  C   UNL     1      30.389  44.797  56.637  1.00  0.00     0.068 A 
HETATM   15  C   UNL     1      30.149  43.919  55.579  1.00  0.00     0.037 A 
HETATM   16  C   UNL     1      29.142  44.182  54.644  1.00  0.00     0.016 A 
BRANCH  14  17
HETATM   17  O   UNL     1      31.387  44.411  57.489  1.00  0.00    -0.356 OA
HETATM   18  C   UNL     1      32.065  43.202  57.169  1.00  0.00     0.210 C 
ENDBRANCH  14  17
ENDBRANCH   9  11
ENDBRANCH   1   5
BRANCH   2  19
HETATM   19  N   UNL     1      23.132  45.742  49.630  1.00  0.00    -0.267 N 
HETATM   20  C   UNL     1      22.798  46.732  48.733  1.00  0.00     0.236 C 
HETATM   21  O   UNL     1      23.304  47.852  48.767  1.00  0.00    -0.272 OA
HETATM   22  H   UNL     1      22.802  44.780  49.577  1.00  0.00     0.190 HD
BRANCH  20  23
HETATM   23  C   UNL     1      21.779  46.327  47.694  1.00  0.00     0.109 C 
BRANCH  23  24
HETATM   24  C   UNL     1      21.056  47.541  47.114  1.00  0.00     0.048 C 
BRANCH  24  25
HETATM   25  C   UNL     1      20.209  48.331  48.090  1.00  0.00    -0.056 A 
HETATM   26  C   UNL     1      20.210  49.734  48.000  1.00  0.00     0.031 A 
HETATM   27  C   UNL     1      19.414  50.503  48.852  1.00  0.00     0.034 A 
HETATM   28 CL   UNL     1      19.434  52.219  48.722  1.00  0.00    -0.084 Cl
HETATM   29  C   UNL     1      18.600  49.891  49.800  1.00  0.00     0.024 A 
HETATM   30  C   UNL     1      18.579  48.501  49.892  1.00  0.00     0.002 A 
HETATM   31  C   UNL     1      19.372  47.727  49.038  1.00  0.00     0.007 A 
ENDBRANCH  24  25
ENDBRANCH  23  24
ENDBRANCH  20  23
ENDBRANCH   2  19
TORSDOF 7
ENDMDL
MODEL 8
REMARK VINA RESULT:      -8.4      1.713      2.314
REMARK  7 active torsions:
REMARK  status: ('A' for Active; 'I' for Inactive)
REMARK    1  A    between atoms: O_2  and  C_3 
REMARK    2  A    between atoms: C_6  and  C_7 
REMARK    3  A    between atoms: C_11  and  C_12 
REMARK       I    between atoms: C_12  and  N_13 
REMARK    4  A    between atoms: N_13  and  N_14 
REMARK       I    between atoms: N_14  and  C_15 
REMARK    5  A    between atoms: C_15  and  C_16 
REMARK    6  A    between atoms: C_16  and  C_17 
REMARK    7  A    between atoms: C_17  and  C_18 
ROOT
HETATM    1  C   UNL     1      24.699  46.624  50.796  1.00  0.00     0.288 C 
HETATM    2  N   UNL     1      23.791  45.936  50.022  1.00  0.00    -0.262 N 
HETATM    3  O   UNL     1      24.800  47.849  50.747  1.00  0.00    -0.264 OA
HETATM    4  H   UNL     1      23.693  44.924  50.020  1.00  0.00     0.190 HD
ENDROOT
BRANCH   1   5
HETATM    5  C   UNL     1      25.503  45.815  51.669  1.00  0.00     0.121 A 
HETATM    6  N   UNL     1      25.316  44.465  51.778  1.00  0.00    -0.272 N 
HETATM    7  N   UNL     1      26.187  43.853  52.592  1.00  0.00    -0.174 NA
HETATM    8  H   UNL     1      24.615  43.907  51.301  1.00  0.00     0.189 HD
HETATM    9  C   UNL     1      26.972  44.839  53.056  1.00  0.00     0.089 A 
HETATM   10  C   UNL     1      26.564  46.090  52.510  1.00  0.00     0.071 A 
BRANCH   9  11
HETATM   11  C   UNL     1      28.092  44.575  53.962  1.00  0.00    -0.005 A 
HETATM   12  C   UNL     1      28.894  43.437  53.785  1.00  0.00     0.016 A 
HETATM   13  C   UNL     1      29.999  43.197  54.610  1.00  0.00     0.037 A 
HETATM   14  C   UNL     1      30.318  44.090  55.630  1.00  0.00     0.068 A 
HETATM   15  C   UNL     1      29.509  45.211  55.832  1.00  0.00     0.037 A 
HETATM   16  C   UNL     1      28.407  45.455  55.004  1.00  0.00     0.016 A 
BRANCH  14  17
HETATM   17  O   UNL     1      31.373  43.982  56.494  1.00  0.00    -0.356 OA
HETATM   18  C   UNL     1      31.172  44.482  57.811  1.00  0.00     0.210 C 
ENDBRANCH  14  17
ENDBRANCH   9  11
ENDBRANCH   1   5
BRANCH   2  19
HETATM   19  N   UNL     1      22.939  46.648  49.173  1.00  0.00    -0.267 N 
HETATM   20  C   UNL     1      22.475  46.010  48.045  1.00  0.00     0.236 C 
HETATM   21  O   UNL     1      22.827  44.872  47.737  1.00  0.00    -0.272 OA
HETATM   22  H   UNL     1      22.602  47.549  49.506  1.00  0.00     0.190 HD
BRANCH  20  23
HETATM   23  C   UNL     1      21.484  46.807  47.228  1.00  0.00     0.109 C 
BRANCH  23  24
HETATM   24  C   UNL     1      20.299  47.266  48.075  1.00  0.00     0.048 C 
BRANCH  24  25
HETATM   25  C   UNL     1      20.199  48.759  48.312  1.00  0.00    -0.056 A 
HETATM   26  C   UNL     1      20.868  49.312  49.418  1.00  0.00     0.031 A 
HETATM   27  C   UNL     1      20.838  50.687  49.653  1.00  0.00     0.034 A 
HETATM   28 CL   UNL     1      21.664  51.339  51.015  1.00  0.00    -0.084 Cl
HETATM   29  C   UNL     1      20.153  51.537  48.790  1.00  0.00     0.024 A 
HETATM   30  C   UNL     1      19.497  51.004  47.683  1.00  0.00     0.002 A 
HETATM   31  C   UNL     1      19.526  49.627  47.441  1.00  0.00     0.007 A 
ENDBRANCH  24  25
ENDBRANCH  23  24
ENDBRANCH  20  23
ENDBRANCH   2  19
TORSDOF 7
ENDMDL
MODEL 9
REMARK VINA RESULT:      -8.2      6.996     10.793
REMARK  7 active torsions:
REMARK  status: ('A' for Active; 'I' for Inactive)
REMARK    1  A    between atoms: O_2  and  C_3 
REMARK    2  A    between atoms: C_6  and  C_7 
REMARK    3  A    between atoms: C_11  and  C_12 
REMARK       I    between atoms: C_12  and  N_13 
REMARK    4  A    between atoms: N_13  and  N_14 
REMARK       I    between atoms: N_14  and  C_15 
REMARK    5  A    between atoms: C_15  and  C_16 
REMARK    6  A    between atoms: C_16  and  C_17 
REMARK    7  A    between atoms: C_17  and  C_18 
ROOT
HETATM    1  C   UNL     1      28.183  41.273  51.906  1.00  0.00     0.288 C 
HETATM    2  N   UNL     1      27.702  42.560  51.813  1.00  0.00    -0.262 N 
HETATM    3  O   UNL     1      28.768  40.868  52.910  1.00  0.00    -0.264 OA
HETATM    4  H   UNL     1      27.233  42.937  50.993  1.00  0.00     0.190 HD
ENDROOT
BRANCH   1   5
HETATM    5  C   UNL     1      27.943  40.440  50.761  1.00  0.00     0.121 A 
HETATM    6  N   UNL     1      26.855  39.616  50.684  1.00  0.00    -0.272 N 
HETATM    7  N   UNL     1      26.749  38.950  49.525  1.00  0.00    -0.174 NA
HETATM    8  H   UNL     1      26.139  39.484  51.392  1.00  0.00     0.189 HD
HETATM    9  C   UNL     1      27.820  39.335  48.813  1.00  0.00     0.089 A 
HETATM   10  C   UNL     1      28.603  40.259  49.562  1.00  0.00     0.071 A 
BRANCH   9  11
HETATM   11  C   UNL     1      28.056  38.853  47.449  1.00  0.00    -0.005 A 
HETATM   12  C   UNL     1      27.847  39.701  46.352  1.00  0.00     0.016 A 
HETATM   13  C   UNL     1      28.116  39.272  45.046  1.00  0.00     0.037 A 
HETATM   14  C   UNL     1      28.595  37.984  44.817  1.00  0.00     0.068 A 
HETATM   15  C   UNL     1      28.778  37.124  45.902  1.00  0.00     0.037 A 
HETATM   16  C   UNL     1      28.515  37.552  47.208  1.00  0.00     0.016 A 
BRANCH  14  17
HETATM   17  O   UNL     1      28.909  37.447  43.600  1.00  0.00    -0.356 OA
HETATM   18  C   UNL     1      30.293  37.312  43.301  1.00  0.00     0.210 C 
ENDBRANCH  14  17
ENDBRANCH   9  11
ENDBRANCH   1   5
BRANCH   2  19
HETATM   19  N   UNL     1      27.857  43.428  52.897  1.00  0.00    -0.267 N 
HETATM   20  C   UNL     1      26.733  44.058  53.383  1.00  0.00     0.236 C 
HETATM   21  O   UNL     1      25.626  43.927  52.864  1.00  0.00    -0.272 OA
HETATM   22  H   UNL     1      28.767  43.441  53.353  1.00  0.00     0.190 HD
BRANCH  20  23
HETATM   23  C   UNL     1      26.962  44.904  54.614  1.00  0.00     0.109 C 
BRANCH  23  24
HETATM   24  C   UNL     1      28.351  45.540  54.607  1.00  0.00     0.048 C 
BRANCH  24  25
HETATM   25  C   UNL     1      29.155  45.377  55.881  1.00  0.00    -0.056 A 
HETATM   26  C   UNL     1      30.198  44.435  55.903  1.00  0.00     0.031 A 
HETATM   27  C   UNL     1      30.992  44.279  57.040  1.00  0.00     0.034 A 
HETATM   28 CL   UNL     1      32.262  43.117  57.042  1.00  0.00    -0.084 Cl
HETATM   29  C   UNL     1      30.770  45.061  58.169  1.00  0.00     0.024 A 
HETATM   30  C   UNL     1      29.749  46.008  58.157  1.00  0.00     0.002 A 
HETATM   31  C   UNL     1      28.952  46.170  57.019  1.00  0.00     0.007 A 
ENDBRANCH  24  25
ENDBRANCH  23  24
ENDBRANCH  20  23
ENDBRANCH   2  19
TORSDOF 7
ENDMDL
MODEL 10
REMARK VINA RESULT:      -8.1      8.151     10.165
REMARK  7 active torsions:
REMARK  status: ('A' for Active; 'I' for Inactive)
REMARK    1  A    between atoms: O_2  and  C_3 
REMARK    2  A    between atoms: C_6  and  C_7 
REMARK    3  A    between atoms: C_11  and  C_12 
REMARK       I    between atoms: C_12  and  N_13 
REMARK    4  A    between atoms: N_13  and  N_14 
REMARK       I    between atoms: N_14  and  C_15 
REMARK    5  A    between atoms: C_15  and  C_16 
REMARK    6  A    between atoms: C_16  and  C_17 
REMARK    7  A    between atoms: C_17  and  C_18 
ROOT
HETATM    1  C   UNL     1      27.861  40.762  50.103  1.00  0.00     0.288 C 
HETATM    2  N   UNL     1      28.946  40.064  49.621  1.00  0.00    -0.262 N 
HETATM    3  O   UNL     1      26.825  40.886  49.450  1.00  0.00    -0.264 OA
HETATM    4  H   UNL     1      29.825  39.958  50.122  1.00  0.00     0.190 HD
ENDROOT
BRANCH   1   5
HETATM    5  C   UNL     1      28.020  41.320  51.416  1.00  0.00     0.121 A 
HETATM    6  N   UNL     1      27.464  40.737  52.520  1.00  0.00    -0.272 N 
HETATM    7  N   UNL     1      27.755  41.353  53.674  1.00  0.00    -0.174 NA
HETATM    8  H   UNL     1      26.888  39.901  52.542  1.00  0.00     0.189 HD
HETATM    9  C   UNL     1      28.519  42.398  53.319  1.00  0.00     0.089 A 
HETATM   10  C   UNL     1      28.696  42.420  51.906  1.00  0.00     0.071 A 
BRANCH   9  11
HETATM   11  C   UNL     1      29.085  43.316  54.312  1.00  0.00    -0.005 A 
HETATM   12  C   UNL     1      30.343  43.061  54.877  1.00  0.00     0.016 A 
HETATM   13  C   UNL     1      30.919  43.954  55.788  1.00  0.00     0.037 A 
HETATM   14  C   UNL     1      30.243  45.116  56.152  1.00  0.00     0.068 A 
HETATM   15  C   UNL     1      28.977  45.363  55.616  1.00  0.00     0.037 A 
HETATM   16  C   UNL     1      28.402  44.475  54.701  1.00  0.00     0.016 A 
BRANCH  14  17
HETATM   17  O   UNL     1      30.697  46.074  57.017  1.00  0.00    -0.356 OA
HETATM   18  C   UNL     1      30.412  45.874  58.396  1.00  0.00     0.210 C 
ENDBRANCH  14  17
ENDBRANCH   9  11
ENDBRANCH   1   5
BRANCH   2  19
HETATM   19  N   UNL     1      28.864  39.452  48.367  1.00  0.00    -0.267 N 
HETATM   20  C   UNL     1      28.607  38.100  48.326  1.00  0.00     0.236 C 
HETATM   21  O   UNL     1      28.506  37.416  49.342  1.00  0.00    -0.272 OA
HETATM   22  H   UNL     1      28.864  40.064  47.554  1.00  0.00     0.190 HD
BRANCH  20  23
HETATM   23  C   UNL     1      28.437  37.530  46.937  1.00  0.00     0.109 C 
BRANCH  23  24
HETATM   24  C   UNL     1      27.635  38.468  46.038  1.00  0.00     0.048 C 
BRANCH  24  25
HETATM   25  C   UNL     1      28.396  39.079  44.879  1.00  0.00    -0.056 A 
HETATM   26  C   UNL     1      29.049  38.223  43.975  1.00  0.00     0.031 A 
HETATM   27  C   UNL     1      29.728  38.739  42.870  1.00  0.00     0.034 A 
HETATM   28 CL   UNL     1      30.521  37.669  41.780  1.00  0.00    -0.084 Cl
HETATM   29  C   UNL     1      29.763  40.110  42.640  1.00  0.00     0.024 A 
HETATM   30  C   UNL     1      29.109  40.969  43.519  1.00  0.00     0.002 A 
HETATM   31  C   UNL     1      28.424  40.458  44.626  1.00  0.00     0.007 A 
ENDBRANCH  24  25
ENDBRANCH  23  24
ENDBRANCH  20  23
ENDBRANCH   2  19
TORSDOF 7
ENDMDL
