MODEL 1
REMARK VINA RESULT:      -8.9      0.000      0.000
REMARK  6 active torsions:
REMARK  status: ('A' for Active; 'I' for Inactive)
REMARK    1  A    between atoms: C_2  and  C_3 
REMARK    2  A    between atoms: C_7  and  C_8 
REMARK       I    between atoms: C_8  and  N_9 
REMARK    3  A    between atoms: N_9  and  C_10 
REMARK    4  A    between atoms: C_10  and  C_11 
REMARK    5  A    between atoms: C_11  and  N_12 
REMARK       I    between atoms: N_12  and  C_13 
REMARK    6  A    between atoms: C_13  and  C_14 
ROOT
HETATM    1  C   UNL     1      25.234  44.103  51.428  1.00  0.00     0.142 C 
ENDROOT
BRANCH   1   2
HETATM    2  N   UNL     1      26.029  42.897  51.439  1.00  0.00    -0.354 N 
HETATM    3  C   UNL     1      26.930  42.589  50.442  1.00  0.00     0.272 C 
HETATM    4  O   UNL     1      27.087  43.277  49.438  1.00  0.00    -0.266 OA
HETATM    5  H   UNL     1      26.041  42.283  52.249  1.00  0.00     0.162 HD
BRANCH   3   6
HETATM    6  C   UNL     1      27.703  41.368  50.713  1.00  0.00     0.146 A 
HETATM    7  N   UNL     1      28.340  41.167  51.886  1.00  0.00    -0.169 NA
HETATM    8  N   UNL     1      28.926  39.968  51.739  1.00  0.00    -0.281 N 
HETATM    9  C   UNL     1      28.703  39.384  50.521  1.00  0.00     0.033 A 
HETATM   10  H   UNL     1      29.470  39.603  52.514  1.00  0.00     0.189 HD
HETATM   11  C   UNL     1      27.905  40.274  49.834  1.00  0.00     0.066 A 
BRANCH   9  12
HETATM   12  C   UNL     1      29.271  38.048  50.158  1.00  0.00     0.029 C 
HETATM   13  C   UNL     1      29.973  37.404  51.355  1.00  0.00     0.016 C 
HETATM   14  C   UNL     1      30.228  38.169  48.972  1.00  0.00     0.016 C 
ENDBRANCH   9  12
ENDBRANCH   3   6
ENDBRANCH   1   2
BRANCH   1  15
HETATM   15  C   UNL     1      25.500  44.989  52.651  1.00  0.00     0.142 C 
BRANCH  15  16
HETATM   16  N   UNL     1      26.679  44.581  53.396  1.00  0.00    -0.355 N 
HETATM   17  C   UNL     1      27.403  45.484  54.142  1.00  0.00     0.251 C 
HETATM   18  O   UNL     1      27.117  46.673  54.220  1.00  0.00    -0.268 OA
HETATM   19  H   UNL     1      27.057  43.666  53.193  1.00  0.00     0.162 HD
BRANCH  17  20
HETATM   20  C   UNL     1      28.605  44.958  54.850  1.00  0.00     0.033 A 
HETATM   21  C   UNL     1      29.045  45.632  55.997  1.00  0.00     0.042 A 
HETATM   22  C   UNL     1      30.159  45.170  56.704  1.00  0.00     0.056 A 
HETATM   23 CL   UNL     1      30.648  46.055  58.105  1.00  0.00    -0.083 Cl
HETATM   24  C   UNL     1      30.836  44.024  56.270  1.00  0.00     0.055 A 
HETATM   25 CL   UNL     1      32.219  43.394  57.091  1.00  0.00    -0.083 Cl
HETATM   26  C   UNL     1      30.390  43.343  55.133  1.00  0.00     0.026 A 
HETATM   27  C   UNL     1      29.275  43.803  54.426  1.00  0.00     0.019 A 
ENDBRANCH  17  20
ENDBRANCH  15  16
ENDBRANCH   1  15
TORSDOF 6
ENDMDL
MODEL 2
REMARK VINA RESULT:      -8.6      4.810      7.759
REMARK  6 active torsions:
REMARK  status: ('A' for Active; 'I' for Inactive)
REMARK    1  A    between atoms: C_2  and  C_3 
REMARK    2  A    between atoms: C_7  and  C_8 
REMARK       I    between atoms: C_8  and  N_9 
REMARK    3  A    between atoms: N_9  and  C_10 
REMARK    4  A    between atoms: C_10  and  C_11 
REMARK    5  A    between atoms: C_11  and  N_12 
REMARK       I    between atoms: N_12  and  C_13 
REMARK    6  A    between atoms: C_13  and  C_14 
ROOT
HETATM    1  C   UNL     1      26.103  46.384  50.818  1.00  0.00     0.142 C 
ENDROOT
BRANCH   1   2
HETATM    2  N   UNL     1      25.287  47.432  50.251  1.00  0.00    -0.354 N 
HETATM    3  C   UNL     1      25.754  48.304  49.292  1.00  0.00     0.272 C 
HETATM    4  O   UNL     1      26.912  48.303  48.885  1.00  0.00    -0.266 OA
HETATM    5  H   UNL     1      24.292  47.492  50.455  1.00  0.00     0.162 HD
BRANCH   3   6
HETATM    6  C   UNL     1      24.721  49.221  48.785  1.00  0.00     0.146 A 
HETATM    7  N   UNL     1      24.918  49.988  47.692  1.00  0.00    -0.169 NA
HETATM    8  N   UNL     1      23.771  50.675  47.563  1.00  0.00    -0.281 N 
HETATM    9  C   UNL     1      22.842  50.392  48.527  1.00  0.00     0.033 A 
HETATM   10  H   UNL     1      23.688  51.327  46.791  1.00  0.00     0.189 HD
HETATM   11  C   UNL     1      23.434  49.444  49.334  1.00  0.00     0.066 A 
BRANCH   9  12
HETATM   12  C   UNL     1      21.500  51.054  48.564  1.00  0.00     0.029 C 
HETATM   13  C   UNL     1      20.880  50.964  49.960  1.00  0.00     0.016 C 
HETATM   14  C   UNL     1      20.565  50.447  47.518  1.00  0.00     0.016 C 
ENDBRANCH   9  12
ENDBRANCH   3   6
ENDBRANCH   1   2
BRANCH   1  15
HETATM   15  C   UNL     1      25.720  46.067  52.269  1.00  0.00     0.142 C 
BRANCH  15  16
HETATM   16  N   UNL     1      26.814  45.484  53.027  1.00  0.00    -0.355 N 
HETATM   17  C   UNL     1      27.360  46.135  54.111  1.00  0.00     0.251 C 
HETATM   18  O   UNL     1      26.979  47.233  54.498  1.00  0.00    -0.268 OA
HETATM   19  H   UNL     1      27.282  44.687  52.618  1.00  0.00     0.162 HD
BRANCH  17  20
HETATM   20  C   UNL     1      28.491  45.451  54.802  1.00  0.00     0.033 A 
HETATM   21  C   UNL     1      28.973  46.010  55.993  1.00  0.00     0.042 A 
HETATM   22  C   UNL     1      30.022  45.399  56.686  1.00  0.00     0.056 A 
HETATM   23 CL   UNL     1      30.568  46.148  58.145  1.00  0.00    -0.083 Cl
HETATM   24  C   UNL     1      30.591  44.219  56.193  1.00  0.00     0.055 A 
HETATM   25 CL   UNL     1      31.889  43.408  56.994  1.00  0.00    -0.083 Cl
HETATM   26  C   UNL     1      30.103  43.653  55.011  1.00  0.00     0.026 A 
HETATM   27  C   UNL     1      29.052  44.263  54.318  1.00  0.00     0.019 A 
ENDBRANCH  17  20
ENDBRANCH  15  16
ENDBRANCH   1  15
TORSDOF 6
ENDMDL
MODEL 3
REMARK VINA RESULT:      -8.3      3.651      6.850
REMARK  6 active torsions:
REMARK  status: ('A' for Active; 'I' for Inactive)
REMARK    1  A    between atoms: C_2  and  C_3 
REMARK    2  A    between atoms: C_7  and  C_8 
REMARK       I    between atoms: C_8  and  N_9 
REMARK    3  A    between atoms: N_9  and  C_10 
REMARK    4  A    between atoms: C_10  and  C_11 
REMARK    5  A    between atoms: C_11  and  N_12 
REMARK       I    between atoms: N_12  and  C_13 
REMARK    6  A    between atoms: C_13  and  C_14 
ROOT
HETATM    1  C   UNL     1      27.227  44.306  50.150  1.00  0.00     0.142 C 
ENDROOT
BRANCH   1   2
HETATM    2  N   UNL     1      26.019  45.019  49.805  1.00  0.00    -0.354 N 
HETATM    3  C   UNL     1      25.632  46.180  50.437  1.00  0.00     0.272 C 
HETATM    4  O   UNL     1      26.244  46.671  51.380  1.00  0.00    -0.266 OA
HETATM    5  H   UNL     1      25.464  44.752  48.994  1.00  0.00     0.162 HD
BRANCH   3   6
HETATM    6  C   UNL     1      24.427  46.788  49.853  1.00  0.00     0.146 A 
HETATM    7  N   UNL     1      23.409  46.044  49.372  1.00  0.00    -0.169 NA
HETATM    8  N   UNL     1      22.523  46.949  48.927  1.00  0.00    -0.281 N 
HETATM    9  C   UNL     1      22.922  48.248  49.093  1.00  0.00     0.033 A 
HETATM   10  H   UNL     1      21.658  46.612  48.516  1.00  0.00     0.189 HD
HETATM   11  C   UNL     1      24.159  48.171  49.698  1.00  0.00     0.066 A 
BRANCH   9  12
HETATM   12  C   UNL     1      22.080  49.406  48.660  1.00  0.00     0.029 C 
HETATM   13  C   UNL     1      20.779  48.929  48.009  1.00  0.00     0.016 C 
HETATM   14  C   UNL     1      22.856  50.318  47.709  1.00  0.00     0.016 C 
ENDBRANCH   9  12
ENDBRANCH   3   6
ENDBRANCH   1   2
BRANCH   1  15
HETATM   15  C   UNL     1      27.033  43.379  51.356  1.00  0.00     0.142 C 
BRANCH  15  16
HETATM   16  N   UNL     1      27.561  43.939  52.588  1.00  0.00    -0.355 N 
HETATM   17  C   UNL     1      28.795  43.565  53.073  1.00  0.00     0.251 C 
HETATM   18  O   UNL     1      29.514  42.744  52.519  1.00  0.00    -0.268 OA
HETATM   19  H   UNL     1      26.917  44.457  53.169  1.00  0.00     0.162 HD
BRANCH  17  20
HETATM   20  C   UNL     1      29.227  44.191  54.356  1.00  0.00     0.033 A 
HETATM   21  C   UNL     1      30.279  43.592  55.062  1.00  0.00     0.042 A 
HETATM   22  C   UNL     1      30.730  44.148  56.263  1.00  0.00     0.056 A 
HETATM   23 CL   UNL     1      32.027  43.352  57.082  1.00  0.00    -0.083 Cl
HETATM   24  C   UNL     1      30.134  45.313  56.761  1.00  0.00     0.055 A 
HETATM   25 CL   UNL     1      30.638  46.057  58.236  1.00  0.00    -0.083 Cl
HETATM   26  C   UNL     1      29.094  45.919  56.050  1.00  0.00     0.026 A 
HETATM   27  C   UNL     1      28.643  45.365  54.848  1.00  0.00     0.019 A 
ENDBRANCH  17  20
ENDBRANCH  15  16
ENDBRANCH   1  15
TORSDOF 6
ENDMDL
MODEL 4
REMARK VINA RESULT:      -8.2      5.778      8.942
REMARK  6 active torsions:
REMARK  status: ('A' for Active; 'I' for Inactive)
REMARK    1  A    between atoms: C_2  and  C_3 
REMARK    2  A    between atoms: C_7  and  C_8 
REMARK       I    between atoms: C_8  and  N_9 
REMARK    3  A    between atoms: N_9  and  C_10 
REMARK    4  A    between atoms: C_10  and  C_11 
REMARK    5  A    between atoms: C_11  and  N_12 
REMARK       I    between atoms: N_12  and  C_13 
REMARK    6  A    between atoms: C_13  and  C_14 
ROOT
HETATM    1  C   UNL     1      24.870  47.171  50.155  1.00  0.00     0.142 C 
ENDROOT
BRANCH   1   2
HETATM    2  N   UNL     1      23.605  47.866  50.080  1.00  0.00    -0.354 N 
HETATM    3  C   UNL     1      23.417  48.991  49.306  1.00  0.00     0.272 C 
HETATM    4  O   UNL     1      24.317  49.529  48.668  1.00  0.00    -0.266 OA
HETATM    5  H   UNL     1      22.766  47.479  50.506  1.00  0.00     0.162 HD
BRANCH   3   6
HETATM    6  C   UNL     1      22.026  49.468  49.299  1.00  0.00     0.146 A 
HETATM    7  N   UNL     1      20.986  48.643  49.055  1.00  0.00    -0.169 NA
HETATM    8  N   UNL     1      19.910  49.444  49.126  1.00  0.00    -0.281 N 
HETATM    9  C   UNL     1      20.206  50.751  49.399  1.00  0.00     0.033 A 
HETATM   10  H   UNL     1      18.996  49.031  48.975  1.00  0.00     0.189 HD
HETATM   11  C   UNL     1      21.579  50.794  49.520  1.00  0.00     0.066 A 
BRANCH   9  12
HETATM   12  C   UNL     1      19.148  51.804  49.515  1.00  0.00     0.029 C 
HETATM   13  C   UNL     1      17.822  51.202  49.985  1.00  0.00     0.016 C 
HETATM   14  C   UNL     1      18.966  52.542  48.189  1.00  0.00     0.016 C 
ENDBRANCH   9  12
ENDBRANCH   3   6
ENDBRANCH   1   2
BRANCH   1  15
HETATM   15  C   UNL     1      24.750  45.821  50.872  1.00  0.00     0.142 C 
BRANCH  15  16
HETATM   16  N   UNL     1      25.938  45.481  51.636  1.00  0.00    -0.355 N 
HETATM   17  C   UNL     1      25.864  44.691  52.761  1.00  0.00     0.251 C 
HETATM   18  O   UNL     1      24.813  44.237  53.196  1.00  0.00    -0.268 OA
HETATM   19  H   UNL     1      26.781  45.998  51.428  1.00  0.00     0.162 HD
BRANCH  17  20
HETATM   20  C   UNL     1      27.145  44.422  53.477  1.00  0.00     0.033 A 
HETATM   21  C   UNL     1      27.511  45.280  54.523  1.00  0.00     0.042 A 
HETATM   22  C   UNL     1      28.694  45.062  55.233  1.00  0.00     0.056 A 
HETATM   23 CL   UNL     1      29.085  46.164  56.506  1.00  0.00    -0.083 Cl
HETATM   24  C   UNL     1      29.517  43.979  54.905  1.00  0.00     0.055 A 
HETATM   25 CL   UNL     1      30.994  43.647  55.738  1.00  0.00    -0.083 Cl
HETATM   26  C   UNL     1      29.147  43.114  53.870  1.00  0.00     0.026 A 
HETATM   27  C   UNL     1      27.962  43.330  53.160  1.00  0.00     0.019 A 
ENDBRANCH  17  20
ENDBRANCH  15  16
ENDBRANCH   1  15
TORSDOF 6
ENDMDL
MODEL 5
REMARK VINA RESULT:      -8.1      6.417      9.337
REMARK  6 active torsions:
REMARK  status: ('A' for Active; 'I' for Inactive)
REMARK    1  A    between atoms: C_2  and  C_3 
REMARK    2  A    between atoms: C_7  and  C_8 
REMARK       I    between atoms: C_8  and  N_9 
REMARK    3  A    between atoms: N_9  and  C_10 
REMARK    4  A    between atoms: C_10  and  C_11 
REMARK    5  A    between atoms: C_11  and  N_12 
REMARK       I    between atoms: N_12  and  C_13 
REMARK    6  A    between atoms: C_13  and  C_14 
ROOT
HETATM    1  C   UNL     1      24.451  45.170  51.454  1.00  0.00     0.142 C 
ENDROOT
BRANCH   1   2
HETATM    2  N   UNL     1      25.479  45.610  52.369  1.00  0.00    -0.354 N 
HETATM    3  C   UNL     1      25.599  45.117  53.650  1.00  0.00     0.272 C 
HETATM    4  O   UNL     1      24.812  44.313  54.140  1.00  0.00    -0.266 OA
HETATM    5  H   UNL     1      26.232  46.220  52.059  1.00  0.00     0.162 HD
BRANCH   3   6
HETATM    6  C   UNL     1      26.778  45.630  54.364  1.00  0.00     0.146 A 
HETATM    7  N   UNL     1      26.961  46.948  54.593  1.00  0.00    -0.169 NA
HETATM    8  N   UNL     1      28.132  47.006  55.248  1.00  0.00    -0.281 N 
HETATM    9  C   UNL     1      28.720  45.787  55.448  1.00  0.00     0.033 A 
HETATM   10  H   UNL     1      28.477  47.918  55.531  1.00  0.00     0.189 HD
HETATM   11  C   UNL     1      27.856  44.872  54.885  1.00  0.00     0.066 A 
BRANCH   9  12
HETATM   12  C   UNL     1      30.030  45.637  56.155  1.00  0.00     0.029 C 
HETATM   13  C   UNL     1      30.639  44.257  55.898  1.00  0.00     0.016 C 
HETATM   14  C   UNL     1      29.871  45.886  57.655  1.00  0.00     0.016 C 
ENDBRANCH   9  12
ENDBRANCH   3   6
ENDBRANCH   1   2
BRANCH   1  15
HETATM   15  C   UNL     1      24.648  45.732  50.042  1.00  0.00     0.142 C 
BRANCH  15  16
HETATM   16  N   UNL     1      23.675  46.757  49.702  1.00  0.00    -0.355 N 
HETATM   17  C   UNL     1      24.045  48.075  49.554  1.00  0.00     0.251 C 
HETATM   18  O   UNL     1      25.194  48.472  49.706  1.00  0.00    -0.268 OA
HETATM   19  H   UNL     1      22.699  46.503  49.770  1.00  0.00     0.162 HD
BRANCH  17  20
HETATM   20  C   UNL     1      22.959  49.042  49.223  1.00  0.00     0.033 A 
HETATM   21  C   UNL     1      21.644  48.562  49.150  1.00  0.00     0.042 A 
HETATM   22  C   UNL     1      20.590  49.432  48.857  1.00  0.00     0.056 A 
HETATM   23 CL   UNL     1      18.997  48.768  48.777  1.00  0.00    -0.083 Cl
HETATM   24  C   UNL     1      20.845  50.791  48.641  1.00  0.00     0.055 A 
HETATM   25 CL   UNL     1      19.595  51.925  48.275  1.00  0.00    -0.083 Cl
HETATM   26  C   UNL     1      22.154  51.274  48.727  1.00  0.00     0.026 A 
HETATM   27  C   UNL     1      23.210  50.405  49.022  1.00  0.00     0.019 A 
ENDBRANCH  17  20
ENDBRANCH  15  16
ENDBRANCH   1  15
TORSDOF 6
ENDMDL
MODEL 6
REMARK VINA RESULT:      -7.9      6.572      9.833
REMARK  6 active torsions:
REMARK  status: ('A' for Active; 'I' for Inactive)
REMARK    1  A    between atoms: C_2  and  C_3 
REMARK    2  A    between atoms: C_7  and  C_8 
REMARK       I    between atoms: C_8  and  N_9 
REMARK    3  A    between atoms: N_9  and  C_10 
REMARK    4  A    between atoms: C_10  and  C_11 
REMARK    5  A    between atoms: C_11  and  N_12 
REMARK       I    between atoms: N_12  and  C_13 
REMARK    6  A    between atoms: C_13  and  C_14 
ROOT
HETATM    1  C   UNL     1      24.244  48.054  49.477  1.00  0.00     0.142 C 
ENDROOT
BRANCH   1   2
HETATM    2  N   UNL     1      22.924  48.641  49.469  1.00  0.00    -0.354 N 
HETATM    3  C   UNL     1      22.712  49.997  49.355  1.00  0.00     0.272 C 
HETATM    4  O   UNL     1      23.620  50.821  49.312  1.00  0.00    -0.266 OA
HETATM    5  H   UNL     1      22.090  48.059  49.428  1.00  0.00     0.162 HD
BRANCH   3   6
HETATM    6  C   UNL     1      21.289  50.360  49.264  1.00  0.00     0.146 A 
HETATM    7  N   UNL     1      20.310  49.534  49.689  1.00  0.00    -0.169 NA
HETATM    8  N   UNL     1      19.178  50.208  49.430  1.00  0.00    -0.281 N 
HETATM    9  C   UNL     1      19.378  51.431  48.850  1.00  0.00     0.033 A 
HETATM   10  H   UNL     1      18.294  49.772  49.674  1.00  0.00     0.189 HD
HETATM   11  C   UNL     1      20.747  51.557  48.734  1.00  0.00     0.066 A 
BRANCH   9  12
HETATM   12  C   UNL     1      18.246  52.337  48.479  1.00  0.00     0.029 C 
HETATM   13  C   UNL     1      17.373  52.654  49.696  1.00  0.00     0.016 C 
HETATM   14  C   UNL     1      17.406  51.726  47.357  1.00  0.00     0.016 C 
ENDBRANCH   9  12
ENDBRANCH   3   6
ENDBRANCH   1   2
BRANCH   1  15
HETATM   15  C   UNL     1      24.285  46.723  50.238  1.00  0.00     0.142 C 
BRANCH  15  16
HETATM   16  N   UNL     1      25.324  46.685  51.252  1.00  0.00    -0.355 N 
HETATM   17  C   UNL     1      25.361  45.689  52.203  1.00  0.00     0.251 C 
HETATM   18  O   UNL     1      24.532  44.790  52.267  1.00  0.00    -0.268 OA
HETATM   19  H   UNL     1      25.896  47.512  51.354  1.00  0.00     0.162 HD
BRANCH  17  20
HETATM   20  C   UNL     1      26.462  45.761  53.206  1.00  0.00     0.033 A 
HETATM   21  C   UNL     1      27.321  44.661  53.326  1.00  0.00     0.042 A 
HETATM   22  C   UNL     1      28.377  44.685  54.241  1.00  0.00     0.056 A 
HETATM   23 CL   UNL     1      29.392  43.290  54.339  1.00  0.00    -0.083 Cl
HETATM   24  C   UNL     1      28.583  45.816  55.040  1.00  0.00     0.055 A 
HETATM   25 CL   UNL     1      29.866  45.919  56.192  1.00  0.00    -0.083 Cl
HETATM   26  C   UNL     1      27.735  46.921  54.912  1.00  0.00     0.026 A 
HETATM   27  C   UNL     1      26.680  46.898  53.995  1.00  0.00     0.019 A 
ENDBRANCH  17  20
ENDBRANCH  15  16
ENDBRANCH   1  15
TORSDOF 6
ENDMDL
MODEL 7
REMARK VINA RESULT:      -7.9      6.729      9.185
REMARK  6 active torsions:
REMARK  status: ('A' for Active; 'I' for Inactive)
REMARK    1  A    between atoms: C_2  and  C_3 
REMARK    2  A    between atoms: C_7  and  C_8 
REMARK       I    between atoms: C_8  and  N_9 
REMARK    3  A    between atoms: N_9  and  C_10 
REMARK    4  A    between atoms: C_10  and  C_11 
REMARK    5  A    between atoms: C_11  and  N_12 
REMARK       I    between atoms: N_12  and  C_13 
REMARK    6  A    between atoms: C_13  and  C_14 
ROOT
HETATM    1  C   UNL     1      24.830  46.231  49.752  1.00  0.00     0.142 C 
ENDROOT
BRANCH   1   2
HETATM    2  N   UNL     1      25.577  45.708  50.873  1.00  0.00    -0.354 N 
HETATM    3  C   UNL     1      25.039  44.820  51.779  1.00  0.00     0.272 C 
HETATM    4  O   UNL     1      23.870  44.448  51.747  1.00  0.00    -0.266 OA
HETATM    5  H   UNL     1      26.574  45.885  50.968  1.00  0.00     0.162 HD
BRANCH   3   6
HETATM    6  C   UNL     1      26.010  44.341  52.774  1.00  0.00     0.146 A 
HETATM    7  N   UNL     1      25.707  44.251  54.086  1.00  0.00    -0.169 NA
HETATM    8  N   UNL     1      26.836  43.793  54.652  1.00  0.00    -0.281 N 
HETATM    9  C   UNL     1      27.859  43.588  53.767  1.00  0.00     0.033 A 
HETATM   10  H   UNL     1      26.842  43.642  55.655  1.00  0.00     0.189 HD
HETATM   11  C   UNL     1      27.346  43.934  52.534  1.00  0.00     0.066 A 
BRANCH   9  12
HETATM   12  C   UNL     1      29.201  43.084  54.197  1.00  0.00     0.029 C 
HETATM   13  C   UNL     1      29.855  44.041  55.196  1.00  0.00     0.016 C 
HETATM   14  C   UNL     1      30.111  42.862  52.988  1.00  0.00     0.016 C 
ENDBRANCH   9  12
ENDBRANCH   3   6
ENDBRANCH   1   2
BRANCH   1  15
HETATM   15  C   UNL     1      24.887  47.761  49.678  1.00  0.00     0.142 C 
BRANCH  15  16
HETATM   16  N   UNL     1      23.574  48.379  49.756  1.00  0.00    -0.355 N 
HETATM   17  C   UNL     1      23.094  49.173  48.738  1.00  0.00     0.251 C 
HETATM   18  O   UNL     1      23.731  49.420  47.721  1.00  0.00    -0.268 OA
HETATM   19  H   UNL     1      23.113  48.364  50.655  1.00  0.00     0.162 HD
BRANCH  17  20
HETATM   20  C   UNL     1      21.742  49.769  48.934  1.00  0.00     0.033 A 
HETATM   21  C   UNL     1      20.750  48.978  49.529  1.00  0.00     0.042 A 
HETATM   22  C   UNL     1      19.470  49.496  49.747  1.00  0.00     0.056 A 
HETATM   23 CL   UNL     1      18.296  48.461  50.479  1.00  0.00    -0.083 Cl
HETATM   24  C   UNL     1      19.177  50.814  49.376  1.00  0.00     0.055 A 
HETATM   25 CL   UNL     1      17.620  51.522  49.614  1.00  0.00    -0.083 Cl
HETATM   26  C   UNL     1      20.170  51.609  48.795  1.00  0.00     0.026 A 
HETATM   27  C   UNL     1      21.450  51.092  48.577  1.00  0.00     0.019 A 
ENDBRANCH  17  20
ENDBRANCH  15  16
ENDBRANCH   1  15
TORSDOF 6
ENDMDL
MODEL 8
REMARK VINA RESULT:      -7.8      4.173      7.297
REMARK  6 active torsions:
REMARK  status: ('A' for Active; 'I' for Inactive)
REMARK    1  A    between atoms: C_2  and  C_3 
REMARK    2  A    between atoms: C_7  and  C_8 
REMARK       I    between atoms: C_8  and  N_9 
REMARK    3  A    between atoms: N_9  and  C_10 
REMARK    4  A    between atoms: C_10  and  C_11 
REMARK    5  A    between atoms: C_11  and  N_12 
REMARK       I    between atoms: N_12  and  C_13 
REMARK    6  A    between atoms: C_13  and  C_14 
ROOT
HETATM    1  C   UNL     1      24.667  43.697  49.617  1.00  0.00     0.142 C 
ENDROOT
BRANCH   1   2
HETATM    2  N   UNL     1      23.988  44.971  49.543  1.00  0.00    -0.354 N 
HETATM    3  C   UNL     1      24.636  46.173  49.729  1.00  0.00     0.272 C 
HETATM    4  O   UNL     1      25.822  46.260  50.030  1.00  0.00    -0.266 OA
HETATM    5  H   UNL     1      23.022  45.034  49.232  1.00  0.00     0.162 HD
BRANCH   3   6
HETATM    6  C   UNL     1      23.772  47.341  49.505  1.00  0.00     0.146 A 
HETATM    7  N   UNL     1      24.062  48.557  50.015  1.00  0.00    -0.169 NA
HETATM    8  N   UNL     1      23.049  49.335  49.604  1.00  0.00    -0.281 N 
HETATM    9  C   UNL     1      22.110  48.679  48.855  1.00  0.00     0.033 A 
HETATM   10  H   UNL     1      23.057  50.314  49.873  1.00  0.00     0.189 HD
HETATM   11  C   UNL     1      22.559  47.378  48.772  1.00  0.00     0.066 A 
BRANCH   9  12
HETATM   12  C   UNL     1      20.901  49.367  48.305  1.00  0.00     0.029 C 
HETATM   13  C   UNL     1      21.026  50.887  48.431  1.00  0.00     0.016 C 
HETATM   14  C   UNL     1      19.631  48.871  48.997  1.00  0.00     0.016 C 
ENDBRANCH   9  12
ENDBRANCH   3   6
ENDBRANCH   1   2
BRANCH   1  15
HETATM   15  C   UNL     1      24.462  43.005  50.970  1.00  0.00     0.142 C 
BRANCH  15  16
HETATM   16  N   UNL     1      25.674  42.957  51.768  1.00  0.00    -0.355 N 
HETATM   17  C   UNL     1      25.937  43.908  52.730  1.00  0.00     0.251 C 
HETATM   18  O   UNL     1      25.188  44.848  52.968  1.00  0.00    -0.268 OA
HETATM   19  H   UNL     1      26.400  42.323  51.464  1.00  0.00     0.162 HD
BRANCH  17  20
HETATM   20  C   UNL     1      27.220  43.770  53.476  1.00  0.00     0.033 A 
HETATM   21  C   UNL     1      27.657  44.855  54.248  1.00  0.00     0.042 A 
HETATM   22  C   UNL     1      28.847  44.769  54.977  1.00  0.00     0.056 A 
HETATM   23 CL   UNL     1      29.326  46.148  55.902  1.00  0.00    -0.083 Cl
HETATM   24  C   UNL     1      29.604  43.593  54.942  1.00  0.00     0.055 A 
HETATM   25 CL   UNL     1      31.084  43.414  55.816  1.00  0.00    -0.083 Cl
HETATM   26  C   UNL     1      29.163  42.505  54.183  1.00  0.00     0.026 A 
HETATM   27  C   UNL     1      27.973  42.588  53.455  1.00  0.00     0.019 A 
ENDBRANCH  17  20
ENDBRANCH  15  16
ENDBRANCH   1  15
TORSDOF 6
ENDMDL
MODEL 9
REMARK VINA RESULT:      -7.8      3.880      6.546
REMARK  6 active torsions:
REMARK  status: ('A' for Active; 'I' for Inactive)
REMARK    1  A    between atoms: C_2  and  C_3 
REMARK    2  A    between atoms: C_7  and  C_8 
REMARK       I    between atoms: C_8  and  N_9 
REMARK    3  A    between atoms: N_9  and  C_10 
REMARK    4  A    between atoms: C_10  and  C_11 
REMARK    5  A    between atoms: C_11  and  N_12 
REMARK       I    between atoms: N_12  and  C_13 
REMARK    6  A    between atoms: C_13  and  C_14 
ROOT
HETATM    1  C   UNL     1      25.116  46.989  50.991  1.00  0.00     0.142 C 
ENDROOT
BRANCH   1   2
HETATM    2  N   UNL     1      26.111  46.421  51.871  1.00  0.00    -0.354 N 
HETATM    3  C   UNL     1      26.244  46.800  53.189  1.00  0.00     0.272 C 
HETATM    4  O   UNL     1      25.575  47.690  53.706  1.00  0.00    -0.266 OA
HETATM    5  H   UNL     1      26.677  45.627  51.581  1.00  0.00     0.162 HD
BRANCH   3   6
HETATM    6  C   UNL     1      27.250  46.017  53.923  1.00  0.00     0.146 A 
HETATM    7  N   UNL     1      27.757  46.428  55.104  1.00  0.00    -0.169 NA
HETATM    8  N   UNL     1      28.632  45.465  55.438  1.00  0.00    -0.281 N 
HETATM    9  C   UNL     1      28.720  44.452  54.523  1.00  0.00     0.033 A 
HETATM   10  H   UNL     1      29.142  45.563  56.309  1.00  0.00     0.189 HD
HETATM   11  C   UNL     1      27.826  44.785  53.526  1.00  0.00     0.066 A 
BRANCH   9  12
HETATM   12  C   UNL     1      29.640  43.286  54.706  1.00  0.00     0.029 C 
HETATM   13  C   UNL     1      30.784  43.631  55.662  1.00  0.00     0.016 C 
HETATM   14  C   UNL     1      30.186  42.808  53.360  1.00  0.00     0.016 C 
ENDBRANCH   9  12
ENDBRANCH   3   6
ENDBRANCH   1   2
BRANCH   1  15
HETATM   15  C   UNL     1      24.453  45.930  50.101  1.00  0.00     0.142 C 
BRANCH  15  16
HETATM   16  N   UNL     1      25.305  44.777  49.866  1.00  0.00    -0.355 N 
HETATM   17  C   UNL     1      25.316  43.706  50.731  1.00  0.00     0.251 C 
HETATM   18  O   UNL     1      24.631  43.655  51.746  1.00  0.00    -0.268 OA
HETATM   19  H   UNL     1      26.022  44.874  49.161  1.00  0.00     0.162 HD
BRANCH  17  20
HETATM   20  C   UNL     1      26.243  42.587  50.400  1.00  0.00     0.033 A 
HETATM   21  C   UNL     1      26.529  42.342  49.050  1.00  0.00     0.042 A 
HETATM   22  C   UNL     1      27.403  41.313  48.689  1.00  0.00     0.056 A 
HETATM   23 CL   UNL     1      27.703  41.065  47.005  1.00  0.00    -0.083 Cl
HETATM   24  C   UNL     1      28.002  40.525  49.678  1.00  0.00     0.055 A 
HETATM   25 CL   UNL     1      29.092  39.237  49.308  1.00  0.00    -0.083 Cl
HETATM   26  C   UNL     1      27.729  40.777  51.026  1.00  0.00     0.026 A 
HETATM   27  C   UNL     1      26.856  41.807  51.389  1.00  0.00     0.019 A 
ENDBRANCH  17  20
ENDBRANCH  15  16
ENDBRANCH   1  15
TORSDOF 6
ENDMDL
MODEL 10
REMARK VINA RESULT:      -7.7      3.466      6.537
REMARK  6 active torsions:
REMARK  status: ('A' for Active; 'I' for Inactive)
REMARK    1  A    between atoms: C_2  and  C_3 
REMARK    2  A    between atoms: C_7  and  C_8 
REMARK       I    between atoms: C_8  and  N_9 
REMARK    3  A    between atoms: N_9  and  C_10 
REMARK    4  A    between atoms: C_10  and  C_11 
REMARK    5  A    between atoms: C_11  and  N_12 
REMARK       I    between atoms: N_12  and  C_13 
REMARK    6  A    between atoms: C_13  and  C_14 
ROOT
HETATM    1  C   UNL     1      24.204  42.439  49.817  1.00  0.00     0.142 C 
ENDROOT
BRANCH   1   2
HETATM    2  N   UNL     1      24.430  43.850  49.602  1.00  0.00    -0.354 N 
HETATM    3  C   UNL     1      24.234  44.795  50.586  1.00  0.00     0.272 C 
HETATM    4  O   UNL     1      23.797  44.528  51.701  1.00  0.00    -0.266 OA
HETATM    5  H   UNL     1      24.859  44.189  48.744  1.00  0.00     0.162 HD
BRANCH   3   6
HETATM    6  C   UNL     1      24.626  46.152  50.177  1.00  0.00     0.146 A 
HETATM    7  N   UNL     1      25.865  46.640  50.401  1.00  0.00    -0.169 NA
HETATM    8  N   UNL     1      25.822  47.885  49.901  1.00  0.00    -0.281 N 
HETATM    9  C   UNL     1      24.610  48.230  49.368  1.00  0.00     0.033 A 
HETATM   10  H   UNL     1      26.662  48.453  49.958  1.00  0.00     0.189 HD
HETATM   11  C   UNL     1      23.813  47.117  49.531  1.00  0.00     0.066 A 
BRANCH   9  12
HETATM   12  C   UNL     1      24.355  49.575  48.764  1.00  0.00     0.029 C 
HETATM   13  C   UNL     1      23.065  49.573  47.941  1.00  0.00     0.016 C 
HETATM   14  C   UNL     1      25.541  50.021  47.908  1.00  0.00     0.016 C 
ENDBRANCH   9  12
ENDBRANCH   3   6
ENDBRANCH   1   2
BRANCH   1  15
HETATM   15  C   UNL     1      25.509  41.635  49.831  1.00  0.00     0.142 C 
BRANCH  15  16
HETATM   16  N   UNL     1      26.361  41.963  50.962  1.00  0.00    -0.355 N 
HETATM   17  C   UNL     1      27.311  42.957  50.879  1.00  0.00     0.251 C 
HETATM   18  O   UNL     1      27.508  43.615  49.865  1.00  0.00    -0.268 OA
HETATM   19  H   UNL     1      26.366  41.314  51.736  1.00  0.00     0.162 HD
BRANCH  17  20
HETATM   20  C   UNL     1      28.140  43.194  52.095  1.00  0.00     0.033 A 
HETATM   21  C   UNL     1      27.703  44.156  53.017  1.00  0.00     0.042 A 
HETATM   22  C   UNL     1      28.439  44.405  54.179  1.00  0.00     0.056 A 
HETATM   23 CL   UNL     1      27.843  45.608  55.267  1.00  0.00    -0.083 Cl
HETATM   24  C   UNL     1      29.614  43.687  54.430  1.00  0.00     0.055 A 
HETATM   25 CL   UNL     1      30.574  43.939  55.843  1.00  0.00    -0.083 Cl
HETATM   26  C   UNL     1      30.044  42.718  53.518  1.00  0.00     0.026 A 
HETATM   27  C   UNL     1      29.308  42.467  52.356  1.00  0.00     0.019 A 
ENDBRANCH  17  20
ENDBRANCH  15  16
ENDBRANCH   1  15
TORSDOF 6
ENDMDL
