MODEL 1
REMARK VINA RESULT:      -9.0      0.000      0.000
REMARK  2 active torsions:
REMARK  status: ('A' for Active; 'I' for Inactive)
REMARK    1  A    between atoms: N_10  and  S_11 
REMARK    2  A    between atoms: S_11  and  C_14 
ROOT
HETATM    1  S   UNL     1      28.556  43.619  53.418  1.00  0.00     0.245 S 
HETATM    2  O   UNL     1      27.963  42.452  54.041  1.00  0.00    -0.206 OA
HETATM    3  O   UNL     1      29.691  43.461  52.541  1.00  0.00    -0.206 OA
ENDROOT
BRANCH   1   4
HETATM    4  N   UNL     1      27.278  44.361  52.480  1.00  0.00    -0.201 NA
HETATM    5  C   UNL     1      25.858  44.007  52.951  1.00  0.00     0.096 C 
HETATM    6  C   UNL     1      25.707  43.727  54.449  1.00  0.00     0.029 C 
HETATM    7  C   UNL     1      24.927  45.203  52.633  1.00  0.00     0.252 C 
HETATM    8  N   UNL     1      24.329  45.157  51.254  1.00  0.00    -0.074 N 
HETATM    9  H   UNL     1      23.468  44.590  51.291  1.00  0.00     0.277 HD
HETATM   10  H   UNL     1      24.001  46.110  51.039  1.00  0.00     0.277 HD
HETATM   11  C   UNL     1      25.143  44.673  50.107  1.00  0.00     0.233 C 
HETATM   12  C   UNL     1      26.587  45.119  50.187  1.00  0.00     0.043 C 
HETATM   13  C   UNL     1      27.442  44.157  51.008  1.00  0.00     0.109 C 
ENDBRANCH   1   4
BRANCH   1  14
HETATM   14  C   UNL     1      28.931  44.757  54.753  1.00  0.00     0.088 A 
HETATM   15  C   UNL     1      28.086  45.883  54.823  1.00  0.00     0.026 A 
HETATM   16  C   UNL     1      28.137  46.742  55.913  1.00  0.00     0.002 A 
HETATM   17  C   UNL     1      29.014  46.475  56.955  1.00  0.00     0.014 A 
HETATM   18  C   UNL     1      29.874  45.366  56.907  1.00  0.00    -0.004 A 
HETATM   19  C   UNL     1      30.752  45.127  57.971  1.00  0.00     0.128 A 
HETATM   20  C   UNL     1      29.877  44.483  55.795  1.00  0.00     0.038 A 
HETATM   21  N   UNL     1      31.645  44.118  58.023  1.00  0.00    -0.269 NA
HETATM   22  C   UNL     1      31.675  43.303  56.955  1.00  0.00     0.159 A 
HETATM   23  C   UNL     1      30.848  43.451  55.850  1.00  0.00     0.146 A 
HETATM   24  F   UNL     1      31.096  42.660  54.799  1.00  0.00    -0.204 F 
ENDBRANCH   1  14
TORSDOF 2
ENDMDL
MODEL 2
REMARK VINA RESULT:      -8.1      2.294      3.232
REMARK  2 active torsions:
REMARK  status: ('A' for Active; 'I' for Inactive)
REMARK    1  A    between atoms: N_10  and  S_11 
REMARK    2  A    between atoms: S_11  and  C_14 
ROOT
HETATM    1  S   UNL     1      26.668  45.388  53.418  1.00  0.00     0.245 S 
HETATM    2  O   UNL     1      27.110  46.758  53.251  1.00  0.00    -0.206 OA
HETATM    3  O   UNL     1      25.508  45.105  54.230  1.00  0.00    -0.206 OA
ENDROOT
BRANCH   1   4
HETATM    4  N   UNL     1      26.324  44.797  51.807  1.00  0.00    -0.201 NA
HETATM    5  C   UNL     1      25.382  45.695  50.990  1.00  0.00     0.096 C 
HETATM    6  C   UNL     1      25.452  47.191  51.307  1.00  0.00     0.029 C 
HETATM    7  C   UNL     1      25.746  45.547  49.491  1.00  0.00     0.252 C 
HETATM    8  N   UNL     1      25.035  44.415  48.802  1.00  0.00    -0.074 N 
HETATM    9  H   UNL     1      24.121  44.758  48.471  1.00  0.00     0.277 HD
HETATM   10  H   UNL     1      25.562  44.214  47.940  1.00  0.00     0.277 HD
HETATM   11  C   UNL     1      24.807  43.133  49.522  1.00  0.00     0.233 C 
HETATM   12  C   UNL     1      25.974  42.743  50.402  1.00  0.00     0.043 C 
HETATM   13  C   UNL     1      25.882  43.368  51.792  1.00  0.00     0.109 C 
ENDBRANCH   1   4
BRANCH   1  14
HETATM   14  C   UNL     1      28.096  44.472  54.000  1.00  0.00     0.088 A 
HETATM   15  C   UNL     1      28.540  43.456  53.129  1.00  0.00     0.026 A 
HETATM   16  C   UNL     1      29.742  42.800  53.358  1.00  0.00     0.002 A 
HETATM   17  C   UNL     1      30.526  43.166  54.444  1.00  0.00     0.014 A 
HETATM   18  C   UNL     1      30.104  44.167  55.333  1.00  0.00    -0.004 A 
HETATM   19  C   UNL     1      30.913  44.509  56.423  1.00  0.00     0.128 A 
HETATM   20  C   UNL     1      28.865  44.838  55.153  1.00  0.00     0.038 A 
HETATM   21  N   UNL     1      30.599  45.427  57.359  1.00  0.00    -0.269 NA
HETATM   22  C   UNL     1      29.410  46.037  57.211  1.00  0.00     0.159 A 
HETATM   23  C   UNL     1      28.534  45.772  56.168  1.00  0.00     0.146 A 
HETATM   24  F   UNL     1      27.325  46.341  56.235  1.00  0.00    -0.204 F 
ENDBRANCH   1  14
TORSDOF 2
ENDMDL
MODEL 3
REMARK VINA RESULT:      -8.0      1.513      1.853
REMARK  2 active torsions:
REMARK  status: ('A' for Active; 'I' for Inactive)
REMARK    1  A    between atoms: N_10  and  S_11 
REMARK    2  A    between atoms: S_11  and  C_14 
ROOT
HETATM    1  S   UNL     1      27.369  43.934  52.542  1.00  0.00     0.245 S 
HETATM    2  O   UNL     1      26.855  42.738  53.179  1.00  0.00    -0.206 OA
HETATM    3  O   UNL     1      28.374  43.820  51.512  1.00  0.00    -0.206 OA
ENDROOT
BRANCH   1   4
HETATM    4  N   UNL     1      25.983  44.726  51.822  1.00  0.00    -0.201 NA
HETATM    5  C   UNL     1      25.306  43.922  50.701  1.00  0.00     0.096 C 
HETATM    6  C   UNL     1      25.393  42.399  50.831  1.00  0.00     0.029 C 
HETATM    7  C   UNL     1      23.798  44.275  50.691  1.00  0.00     0.252 C 
HETATM    8  N   UNL     1      23.460  45.472  49.844  1.00  0.00    -0.074 N 
HETATM    9  H   UNL     1      23.318  45.154  48.874  1.00  0.00     0.277 HD
HETATM   10  H   UNL     1      22.531  45.798  50.147  1.00  0.00     0.277 HD
HETATM   11  C   UNL     1      24.379  46.641  49.810  1.00  0.00     0.233 C 
HETATM   12  C   UNL     1      24.994  46.939  51.161  1.00  0.00     0.043 C 
HETATM   13  C   UNL     1      26.268  46.133  51.404  1.00  0.00     0.109 C 
ENDBRANCH   1   4
BRANCH   1  14
HETATM   14  C   UNL     1      27.929  45.002  53.869  1.00  0.00     0.088 A 
HETATM   15  C   UNL     1      27.122  46.136  54.094  1.00  0.00     0.026 A 
HETATM   16  C   UNL     1      27.325  46.942  55.207  1.00  0.00     0.002 A 
HETATM   17  C   UNL     1      28.320  46.613  56.118  1.00  0.00     0.014 A 
HETATM   18  C   UNL     1      29.144  45.496  55.914  1.00  0.00    -0.004 A 
HETATM   19  C   UNL     1      30.142  45.194  56.848  1.00  0.00     0.128 A 
HETATM   20  C   UNL     1      28.991  44.666  54.771  1.00  0.00     0.038 A 
HETATM   21  N   UNL     1      31.014  44.171  56.742  1.00  0.00    -0.269 NA
HETATM   22  C   UNL     1      30.895  43.407  55.643  1.00  0.00     0.159 A 
HETATM   23  C   UNL     1      29.941  43.619  54.658  1.00  0.00     0.146 A 
HETATM   24  F   UNL     1      30.040  42.875  53.550  1.00  0.00    -0.204 F 
ENDBRANCH   1  14
TORSDOF 2
ENDMDL
MODEL 4
REMARK VINA RESULT:      -7.7     14.137     15.493
REMARK  2 active torsions:
REMARK  status: ('A' for Active; 'I' for Inactive)
REMARK    1  A    between atoms: N_10  and  S_11 
REMARK    2  A    between atoms: S_11  and  C_14 
ROOT
HETATM    1  S   UNL     1      29.619  49.946  41.327  1.00  0.00     0.245 S 
HETATM    2  O   UNL     1      29.261  51.109  42.114  1.00  0.00    -0.206 OA
HETATM    3  O   UNL     1      29.737  48.658  41.969  1.00  0.00    -0.206 OA
ENDROOT
BRANCH   1   4
HETATM    4  N   UNL     1      28.380  49.798  40.100  1.00  0.00    -0.201 NA
HETATM    5  C   UNL     1      27.633  51.105  39.793  1.00  0.00     0.096 C 
HETATM    6  C   UNL     1      28.444  52.391  39.975  1.00  0.00     0.029 C 
HETATM    7  C   UNL     1      27.188  51.075  38.310  1.00  0.00     0.252 C 
HETATM    8  N   UNL     1      25.850  50.425  38.090  1.00  0.00    -0.074 N 
HETATM    9  H   UNL     1      25.116  51.137  38.220  1.00  0.00     0.277 HD
HETATM   10  H   UNL     1      25.797  50.181  37.091  1.00  0.00     0.277 HD
HETATM   11  C   UNL     1      25.466  49.227  38.885  1.00  0.00     0.233 C 
HETATM   12  C   UNL     1      26.629  48.286  39.119  1.00  0.00     0.043 C 
HETATM   13  C   UNL     1      27.437  48.666  40.358  1.00  0.00     0.109 C 
ENDBRANCH   1   4
BRANCH   1  14
HETATM   14  C   UNL     1      31.134  50.374  40.468  1.00  0.00     0.088 A 
HETATM   15  C   UNL     1      31.025  50.413  39.064  1.00  0.00     0.026 A 
HETATM   16  C   UNL     1      32.059  50.915  38.284  1.00  0.00     0.002 A 
HETATM   17  C   UNL     1      33.204  51.404  38.899  1.00  0.00     0.014 A 
HETATM   18  C   UNL     1      33.344  51.369  40.295  1.00  0.00    -0.004 A 
HETATM   19  C   UNL     1      34.513  51.865  40.884  1.00  0.00     0.128 A 
HETATM   20  C   UNL     1      32.324  50.832  41.124  1.00  0.00     0.038 A 
HETATM   21  N   UNL     1      34.775  51.853  42.207  1.00  0.00    -0.269 NA
HETATM   22  C   UNL     1      33.826  51.311  42.991  1.00  0.00     0.159 A 
HETATM   23  C   UNL     1      32.633  50.793  42.508  1.00  0.00     0.146 A 
HETATM   24  F   UNL     1      31.854  50.150  43.386  1.00  0.00    -0.204 F 
ENDBRANCH   1  14
TORSDOF 2
ENDMDL
MODEL 5
REMARK VINA RESULT:      -7.4      3.110      4.317
REMARK  2 active torsions:
REMARK  status: ('A' for Active; 'I' for Inactive)
REMARK    1  A    between atoms: N_10  and  S_11 
REMARK    2  A    between atoms: S_11  and  C_14 
ROOT
HETATM    1  S   UNL     1      25.638  44.849  53.685  1.00  0.00     0.245 S 
HETATM    2  O   UNL     1      25.561  45.943  54.633  1.00  0.00    -0.206 OA
HETATM    3  O   UNL     1      24.673  43.778  53.751  1.00  0.00    -0.206 OA
ENDROOT
BRANCH   1   4
HETATM    4  N   UNL     1      25.492  45.578  52.101  1.00  0.00    -0.201 NA
HETATM    5  C   UNL     1      25.676  47.104  52.085  1.00  0.00     0.096 C 
HETATM    6  C   UNL     1      26.615  47.669  53.155  1.00  0.00     0.029 C 
HETATM    7  C   UNL     1      26.277  47.508  50.716  1.00  0.00     0.252 C 
HETATM    8  N   UNL     1      25.246  47.764  49.652  1.00  0.00    -0.074 N 
HETATM    9  H   UNL     1      24.939  48.745  49.725  1.00  0.00     0.277 HD
HETATM   10  H   UNL     1      25.734  47.714  48.746  1.00  0.00     0.277 HD
HETATM   11  C   UNL     1      24.030  46.911  49.576  1.00  0.00     0.233 C 
HETATM   12  C   UNL     1      24.317  45.457  49.883  1.00  0.00     0.043 C 
HETATM   13  C   UNL     1      24.250  45.161  51.379  1.00  0.00     0.109 C 
ENDBRANCH   1   4
BRANCH   1  14
HETATM   14  C   UNL     1      27.311  44.212  53.797  1.00  0.00     0.088 A 
HETATM   15  C   UNL     1      28.129  44.866  54.741  1.00  0.00     0.026 A 
HETATM   16  C   UNL     1      29.378  44.357  55.071  1.00  0.00     0.002 A 
HETATM   17  C   UNL     1      29.816  43.180  54.480  1.00  0.00     0.014 A 
HETATM   18  C   UNL     1      29.027  42.513  53.530  1.00  0.00    -0.004 A 
HETATM   19  C   UNL     1      29.499  41.331  52.948  1.00  0.00     0.128 A 
HETATM   20  C   UNL     1      27.758  43.019  53.141  1.00  0.00     0.038 A 
HETATM   21  N   UNL     1      28.847  40.623  52.002  1.00  0.00    -0.269 NA
HETATM   22  C   UNL     1      27.663  41.120  51.605  1.00  0.00     0.159 A 
HETATM   23  C   UNL     1      27.106  42.283  52.118  1.00  0.00     0.146 A 
HETATM   24  F   UNL     1      25.998  42.737  51.521  1.00  0.00    -0.204 F 
ENDBRANCH   1  14
TORSDOF 2
ENDMDL
MODEL 6
REMARK VINA RESULT:      -7.4     14.064     15.241
REMARK  2 active torsions:
REMARK  status: ('A' for Active; 'I' for Inactive)
REMARK    1  A    between atoms: N_10  and  S_11 
REMARK    2  A    between atoms: S_11  and  C_14 
ROOT
HETATM    1  S   UNL     1      30.091  52.041  41.266  1.00  0.00     0.245 S 
HETATM    2  O   UNL     1      30.342  52.982  40.193  1.00  0.00    -0.206 OA
HETATM    3  O   UNL     1      28.904  52.181  42.075  1.00  0.00    -0.206 OA
ENDROOT
BRANCH   1   4
HETATM    4  N   UNL     1      30.017  50.464  40.511  1.00  0.00    -0.201 NA
HETATM    5  C   UNL     1      28.718  50.192  39.736  1.00  0.00     0.096 C 
HETATM    6  C   UNL     1      28.048  51.421  39.114  1.00  0.00     0.029 C 
HETATM    7  C   UNL     1      29.042  49.231  38.566  1.00  0.00     0.252 C 
HETATM    8  N   UNL     1      28.959  47.775  38.935  1.00  0.00    -0.074 N 
HETATM    9  H   UNL     1      27.982  47.466  38.823  1.00  0.00     0.277 HD
HETATM   10  H   UNL     1      29.478  47.254  38.212  1.00  0.00     0.277 HD
HETATM   11  C   UNL     1      29.431  47.319  40.270  1.00  0.00     0.233 C 
HETATM   12  C   UNL     1      30.675  48.049  40.729  1.00  0.00     0.043 C 
HETATM   13  C   UNL     1      30.345  49.351  41.455  1.00  0.00     0.109 C 
ENDBRANCH   1   4
BRANCH   1  14
HETATM   14  C   UNL     1      31.566  52.046  42.286  1.00  0.00     0.088 A 
HETATM   15  C   UNL     1      31.333  52.262  43.659  1.00  0.00     0.026 A 
HETATM   16  C   UNL     1      32.354  52.100  44.587  1.00  0.00     0.002 A 
HETATM   17  C   UNL     1      33.612  51.699  44.158  1.00  0.00     0.014 A 
HETATM   18  C   UNL     1      33.875  51.486  42.795  1.00  0.00    -0.004 A 
HETATM   19  C   UNL     1      35.155  51.088  42.394  1.00  0.00     0.128 A 
HETATM   20  C   UNL     1      32.867  51.674  41.812  1.00  0.00     0.038 A 
HETATM   21  N   UNL     1      35.535  50.887  41.116  1.00  0.00    -0.269 NA
HETATM   22  C   UNL     1      34.593  51.100  40.181  1.00  0.00     0.159 A 
HETATM   23  C   UNL     1      33.295  51.496  40.472  1.00  0.00     0.146 A 
HETATM   24  F   UNL     1      32.514  51.817  39.434  1.00  0.00    -0.204 F 
ENDBRANCH   1  14
TORSDOF 2
ENDMDL
MODEL 7
REMARK VINA RESULT:      -7.4     14.558     16.603
REMARK  2 active torsions:
REMARK  status: ('A' for Active; 'I' for Inactive)
REMARK    1  A    between atoms: N_10  and  S_11 
REMARK    2  A    between atoms: S_11  and  C_14 
ROOT
HETATM    1  S   UNL     1      32.864  51.764  39.909  1.00  0.00     0.245 S 
HETATM    2  O   UNL     1      32.660  52.867  40.826  1.00  0.00    -0.206 OA
HETATM    3  O   UNL     1      32.777  51.992  38.486  1.00  0.00    -0.206 OA
ENDROOT
BRANCH   1   4
HETATM    4  N   UNL     1      34.475  51.161  40.236  1.00  0.00    -0.201 NA
HETATM    5  C   UNL     1      34.977  51.438  41.662  1.00  0.00     0.096 C 
HETATM    6  C   UNL     1      33.898  51.496  42.746  1.00  0.00     0.029 C 
HETATM    7  C   UNL     1      35.944  50.298  42.067  1.00  0.00     0.252 C 
HETATM    8  N   UNL     1      37.373  50.542  41.668  1.00  0.00    -0.074 N 
HETATM    9  H   UNL     1      37.829  51.094  42.410  1.00  0.00     0.277 HD
HETATM   10  H   UNL     1      37.851  49.629  41.696  1.00  0.00     0.277 HD
HETATM   11  C   UNL     1      37.680  51.191  40.365  1.00  0.00     0.233 C 
HETATM   12  C   UNL     1      36.751  50.742  39.258  1.00  0.00     0.043 C 
HETATM   13  C   UNL     1      35.474  51.578  39.204  1.00  0.00     0.109 C 
ENDBRANCH   1   4
BRANCH   1  14
HETATM   14  C   UNL     1      31.728  50.475  40.421  1.00  0.00     0.088 A 
HETATM   15  C   UNL     1      32.326  49.221  40.660  1.00  0.00     0.026 A 
HETATM   16  C   UNL     1      31.604  48.189  41.244  1.00  0.00     0.002 A 
HETATM   17  C   UNL     1      30.284  48.403  41.618  1.00  0.00     0.014 A 
HETATM   18  C   UNL     1      29.659  49.638  41.384  1.00  0.00    -0.004 A 
HETATM   19  C   UNL     1      28.326  49.821  41.767  1.00  0.00     0.128 A 
HETATM   20  C   UNL     1      30.353  50.708  40.758  1.00  0.00     0.038 A 
HETATM   21  N   UNL     1      27.612  50.948  41.564  1.00  0.00    -0.269 NA
HETATM   22  C   UNL     1      28.256  51.948  40.939  1.00  0.00     0.159 A 
HETATM   23  C   UNL     1      29.576  51.870  40.519  1.00  0.00     0.146 A 
HETATM   24  F   UNL     1      30.035  52.883  39.775  1.00  0.00    -0.204 F 
ENDBRANCH   1  14
TORSDOF 2
ENDMDL
MODEL 8
REMARK VINA RESULT:      -7.3      1.970      6.448
REMARK  2 active torsions:
REMARK  status: ('A' for Active; 'I' for Inactive)
REMARK    1  A    between atoms: N_10  and  S_11 
REMARK    2  A    between atoms: S_11  and  C_14 
ROOT
HETATM    1  S   UNL     1      27.944  43.827  53.388  1.00  0.00     0.245 S 
HETATM    2  O   UNL     1      28.988  43.631  52.401  1.00  0.00    -0.206 OA
HETATM    3  O   UNL     1      27.325  42.681  54.010  1.00  0.00    -0.206 OA
ENDROOT
BRANCH   1   4
HETATM    4  N   UNL     1      28.668  44.779  54.666  1.00  0.00    -0.201 NA
HETATM    5  C   UNL     1      29.769  44.051  55.453  1.00  0.00     0.096 C 
HETATM    6  C   UNL     1      30.570  43.010  54.664  1.00  0.00     0.029 C 
HETATM    7  C   UNL     1      30.790  45.104  55.950  1.00  0.00     0.252 C 
HETATM    8  N   UNL     1      30.438  45.711  57.280  1.00  0.00    -0.074 N 
HETATM    9  H   UNL     1      30.812  45.104  58.024  1.00  0.00     0.277 HD
HETATM   10  H   UNL     1      30.981  46.583  57.362  1.00  0.00     0.277 HD
HETATM   11  C   UNL     1      29.018  46.010  57.608  1.00  0.00     0.233 C 
HETATM   12  C   UNL     1      28.242  46.530  56.417  1.00  0.00     0.043 C 
HETATM   13  C   UNL     1      27.655  45.400  55.574  1.00  0.00     0.109 C 
ENDBRANCH   1   4
BRANCH   1  14
HETATM   14  C   UNL     1      26.716  44.876  52.609  1.00  0.00     0.088 A 
HETATM   15  C   UNL     1      26.585  46.157  53.182  1.00  0.00     0.026 A 
HETATM   16  C   UNL     1      25.816  47.135  52.566  1.00  0.00     0.002 A 
HETATM   17  C   UNL     1      25.188  46.854  51.360  1.00  0.00     0.014 A 
HETATM   18  C   UNL     1      25.293  45.584  50.771  1.00  0.00    -0.004 A 
HETATM   19  C   UNL     1      24.643  45.330  49.558  1.00  0.00     0.128 A 
HETATM   20  C   UNL     1      26.042  44.546  51.387  1.00  0.00     0.038 A 
HETATM   21  N   UNL     1      24.643  44.144  48.916  1.00  0.00    -0.269 NA
HETATM   22  C   UNL     1      25.321  43.150  49.516  1.00  0.00     0.159 A 
HETATM   23  C   UNL     1      25.999  43.296  50.718  1.00  0.00     0.146 A 
HETATM   24  F   UNL     1      26.497  42.184  51.270  1.00  0.00    -0.204 F 
ENDBRANCH   1  14
TORSDOF 2
ENDMDL
MODEL 9
REMARK VINA RESULT:      -7.3      3.866      7.241
REMARK  2 active torsions:
REMARK  status: ('A' for Active; 'I' for Inactive)
REMARK    1  A    between atoms: N_10  and  S_11 
REMARK    2  A    between atoms: S_11  and  C_14 
ROOT
HETATM    1  S   UNL     1      24.923  45.085  50.417  1.00  0.00     0.245 S 
HETATM    2  O   UNL     1      25.744  44.326  49.495  1.00  0.00    -0.206 OA
HETATM    3  O   UNL     1      23.726  44.492  50.962  1.00  0.00    -0.206 OA
ENDROOT
BRANCH   1   4
HETATM    4  N   UNL     1      25.963  45.482  51.768  1.00  0.00    -0.201 NA
HETATM    5  C   UNL     1      26.374  44.275  52.627  1.00  0.00     0.096 C 
HETATM    6  C   UNL     1      26.480  42.939  51.886  1.00  0.00     0.029 C 
HETATM    7  C   UNL     1      27.774  44.557  53.225  1.00  0.00     0.252 C 
HETATM    8  N   UNL     1      27.738  45.297  54.533  1.00  0.00    -0.074 N 
HETATM    9  H   UNL     1      27.632  44.609  55.294  1.00  0.00     0.277 HD
HETATM   10  H   UNL     1      28.678  45.696  54.676  1.00  0.00     0.277 HD
HETATM   11  C   UNL     1      26.735  46.373  54.751  1.00  0.00     0.233 C 
HETATM   12  C   UNL     1      26.499  47.209  53.511  1.00  0.00     0.043 C 
HETATM   13  C   UNL     1      25.432  46.603  52.602  1.00  0.00     0.109 C 
ENDBRANCH   1   4
BRANCH   1  14
HETATM   14  C   UNL     1      24.552  46.634  49.592  1.00  0.00     0.088 A 
HETATM   15  C   UNL     1      23.178  46.886  49.400  1.00  0.00     0.026 A 
HETATM   16  C   UNL     1      22.739  48.125  48.953  1.00  0.00     0.002 A 
HETATM   17  C   UNL     1      23.662  49.133  48.715  1.00  0.00     0.014 A 
HETATM   18  C   UNL     1      25.037  48.908  48.888  1.00  0.00    -0.004 A 
HETATM   19  C   UNL     1      25.944  49.944  48.633  1.00  0.00     0.128 A 
HETATM   20  C   UNL     1      25.529  47.645  49.311  1.00  0.00     0.038 A 
HETATM   21  N   UNL     1      27.284  49.837  48.731  1.00  0.00    -0.269 NA
HETATM   22  C   UNL     1      27.754  48.631  49.096  1.00  0.00     0.159 A 
HETATM   23  C   UNL     1      26.942  47.540  49.371  1.00  0.00     0.146 A 
HETATM   24  F   UNL     1      27.553  46.367  49.571  1.00  0.00    -0.204 F 
ENDBRANCH   1  14
TORSDOF 2
ENDMDL
MODEL 10
REMARK VINA RESULT:      -7.3      3.284      4.681
REMARK  2 active torsions:
REMARK  status: ('A' for Active; 'I' for Inactive)
REMARK    1  A    between atoms: N_10  and  S_11 
REMARK    2  A    between atoms: S_11  and  C_14 
ROOT
HETATM    1  S   UNL     1      25.477  44.129  50.699  1.00  0.00     0.245 S 
HETATM    2  O   UNL     1      24.244  43.781  51.378  1.00  0.00    -0.206 OA
HETATM    3  O   UNL     1      25.812  43.485  49.452  1.00  0.00    -0.206 OA
ENDROOT
BRANCH   1   4
HETATM    4  N   UNL     1      25.380  45.848  50.383  1.00  0.00    -0.201 NA
HETATM    5  C   UNL     1      24.313  46.242  49.349  1.00  0.00     0.096 C 
HETATM    6  C   UNL     1      23.080  45.335  49.289  1.00  0.00     0.029 C 
HETATM    7  C   UNL     1      23.797  47.660  49.698  1.00  0.00     0.252 C 
HETATM    8  N   UNL     1      24.603  48.769  49.080  1.00  0.00    -0.074 N 
HETATM    9  H   UNL     1      24.237  48.948  48.133  1.00  0.00     0.277 HD
HETATM   10  H   UNL     1      24.384  49.627  49.608  1.00  0.00     0.277 HD
HETATM   11  C   UNL     1      26.082  48.646  48.981  1.00  0.00     0.233 C 
HETATM   12  C   UNL     1      26.695  47.980  50.195  1.00  0.00     0.043 C 
HETATM   13  C   UNL     1      26.709  46.458  50.071  1.00  0.00     0.109 C 
ENDBRANCH   1   4
BRANCH   1  14
HETATM   14  C   UNL     1      26.786  43.910  51.905  1.00  0.00     0.088 A 
HETATM   15  C   UNL     1      27.741  42.929  51.567  1.00  0.00     0.026 A 
HETATM   16  C   UNL     1      28.907  42.788  52.308  1.00  0.00     0.002 A 
HETATM   17  C   UNL     1      29.145  43.639  53.379  1.00  0.00     0.014 A 
HETATM   18  C   UNL     1      28.207  44.618  53.744  1.00  0.00    -0.004 A 
HETATM   19  C   UNL     1      28.473  45.456  54.833  1.00  0.00     0.128 A 
HETATM   20  C   UNL     1      26.987  44.771  53.033  1.00  0.00     0.038 A 
HETATM   21  N   UNL     1      27.637  46.407  55.297  1.00  0.00    -0.269 NA
HETATM   22  C   UNL     1      26.466  46.529  54.649  1.00  0.00     0.159 A 
HETATM   23  C   UNL     1      26.105  45.749  53.559  1.00  0.00     0.146 A 
HETATM   24  F   UNL     1      24.850  45.877  53.113  1.00  0.00    -0.204 F 
ENDBRANCH   1  14
TORSDOF 2
ENDMDL
