MODEL 1
REMARK VINA RESULT:      -9.1      0.000      0.000
REMARK  3 active torsions:
REMARK  status: ('A' for Active; 'I' for Inactive)
REMARK    1  A    between atoms: C_2  and  C_3 
REMARK    2  A    between atoms: N_4  and  N_5 
REMARK    3  A    between atoms: C_23  and  O_24 
ROOT
HETATM    1  N   UNL     1      26.169  45.951  52.889  1.00  0.00    -0.189 N 
HETATM    2  C   UNL     1      26.339  46.731  54.047  1.00  0.00     0.298 A 
HETATM    3  O   UNL     1      25.667  47.708  54.367  1.00  0.00    -0.264 OA
HETATM    4  C   UNL     1      27.415  46.250  54.853  1.00  0.00     0.133 A 
HETATM    5  C   UNL     1      28.195  45.184  54.521  1.00  0.00     0.103 A 
HETATM    6  N   UNL     1      28.032  44.465  53.337  1.00  0.00    -0.239 NA
HETATM    7  C   UNL     1      27.048  44.906  52.603  1.00  0.00     0.239 A 
HETATM    8  N   UNL     1      27.864  46.738  56.049  1.00  0.00    -0.349 N 
HETATM    9  H   UNL     1      27.471  47.537  56.529  1.00  0.00     0.166 HD
HETATM   10  C   UNL     1      28.936  45.982  56.486  1.00  0.00     0.045 A 
HETATM   11  C   UNL     1      29.162  44.982  55.529  1.00  0.00     0.024 A 
HETATM   12  C   UNL     1      29.717  46.109  57.640  1.00  0.00     0.032 A 
HETATM   13  C   UNL     1      30.753  45.186  57.822  1.00  0.00     0.026 A 
HETATM   14  C   UNL     1      30.992  44.183  56.884  1.00  0.00     0.035 A 
HETATM   15 CL   UNL     1      32.278  43.067  57.149  1.00  0.00    -0.084 Cl
HETATM   16  C   UNL     1      30.210  44.065  55.732  1.00  0.00     0.040 A 
ENDROOT
BRANCH   1  17
HETATM   17  N   UNL     1      25.169  46.370  52.026  1.00  0.00    -0.175 NA
HETATM   18  C   UNL     1      25.268  46.205  50.749  1.00  0.00     0.150 C 
BRANCH  18  19
HETATM   19  C   UNL     1      24.204  46.685  49.839  1.00  0.00    -0.017 A 
HETATM   20  C   UNL     1      23.944  48.052  49.702  1.00  0.00     0.016 A 
HETATM   21  C   UNL     1      22.933  48.481  48.839  1.00  0.00     0.037 A 
HETATM   22  C   UNL     1      22.198  47.547  48.120  1.00  0.00     0.065 A 
HETATM   23  C   UNL     1      22.450  46.183  48.249  1.00  0.00     0.037 A 
HETATM   24  C   UNL     1      23.458  45.748  49.115  1.00  0.00     0.016 A 
BRANCH  22  25
HETATM   25  O   UNL     1      21.224  48.013  47.288  1.00  0.00    -0.361 OA
HETATM   26  H   UNL     1      21.286  48.980  47.238  1.00  0.00     0.217 HD
ENDBRANCH  22  25
ENDBRANCH  18  19
ENDBRANCH   1  17
TORSDOF 3
ENDMDL
MODEL 2
REMARK VINA RESULT:      -9.1      3.880      9.339
REMARK  3 active torsions:
REMARK  status: ('A' for Active; 'I' for Inactive)
REMARK    1  A    between atoms: C_2  and  C_3 
REMARK    2  A    between atoms: N_4  and  N_5 
REMARK    3  A    between atoms: C_23  and  O_24 
ROOT
HETATM    1  N   UNL     1      26.611  45.462  52.581  1.00  0.00    -0.189 N 
HETATM    2  C   UNL     1      26.032  44.572  51.658  1.00  0.00     0.298 A 
HETATM    3  O   UNL     1      26.257  43.368  51.575  1.00  0.00    -0.264 OA
HETATM    4  C   UNL     1      25.113  45.236  50.790  1.00  0.00     0.133 A 
HETATM    5  C   UNL     1      24.856  46.573  50.837  1.00  0.00     0.103 A 
HETATM    6  N   UNL     1      25.487  47.436  51.733  1.00  0.00    -0.239 NA
HETATM    7  C   UNL     1      26.325  46.826  52.524  1.00  0.00     0.239 A 
HETATM    8  N   UNL     1      24.356  44.701  49.785  1.00  0.00    -0.349 N 
HETATM    9  H   UNL     1      24.356  43.725  49.521  1.00  0.00     0.166 HD
HETATM   10  C   UNL     1      23.609  45.698  49.186  1.00  0.00     0.045 A 
HETATM   11  C   UNL     1      23.908  46.900  49.844  1.00  0.00     0.024 A 
HETATM   12  C   UNL     1      22.704  45.629  48.120  1.00  0.00     0.032 A 
HETATM   13  C   UNL     1      22.087  46.819  47.721  1.00  0.00     0.026 A 
HETATM   14  C   UNL     1      22.368  48.024  48.364  1.00  0.00     0.035 A 
HETATM   15 CL   UNL     1      21.584  49.466  47.840  1.00  0.00    -0.084 Cl
HETATM   16  C   UNL     1      23.275  48.085  49.425  1.00  0.00     0.040 A 
ENDROOT
BRANCH   1  17
HETATM   17  N   UNL     1      27.547  44.908  53.440  1.00  0.00    -0.175 NA
HETATM   18  C   UNL     1      28.170  45.629  54.312  1.00  0.00     0.150 C 
BRANCH  18  19
HETATM   19  C   UNL     1      29.188  45.028  55.202  1.00  0.00    -0.017 A 
HETATM   20  C   UNL     1      29.784  43.804  54.882  1.00  0.00     0.016 A 
HETATM   21  C   UNL     1      30.739  43.254  55.738  1.00  0.00     0.037 A 
HETATM   22  C   UNL     1      31.096  43.931  56.899  1.00  0.00     0.065 A 
HETATM   23  C   UNL     1      30.510  45.151  57.226  1.00  0.00     0.037 A 
HETATM   24  C   UNL     1      29.548  45.703  56.374  1.00  0.00     0.016 A 
BRANCH  22  25
HETATM   25  O   UNL     1      32.036  43.357  57.702  1.00  0.00    -0.361 OA
HETATM   26  H   UNL     1      32.902  43.415  57.268  1.00  0.00     0.217 HD
ENDBRANCH  22  25
ENDBRANCH  18  19
ENDBRANCH   1  17
TORSDOF 3
ENDMDL
MODEL 3
REMARK VINA RESULT:      -9.0      3.695      9.151
REMARK  3 active torsions:
REMARK  status: ('A' for Active; 'I' for Inactive)
REMARK    1  A    between atoms: C_2  and  C_3 
REMARK    2  A    between atoms: N_4  and  N_5 
REMARK    3  A    between atoms: C_23  and  O_24 
ROOT
HETATM    1  N   UNL     1      26.510  45.209  52.605  1.00  0.00    -0.189 N 
HETATM    2  C   UNL     1      25.943  46.462  52.308  1.00  0.00     0.298 A 
HETATM    3  O   UNL     1      26.157  47.513  52.906  1.00  0.00    -0.264 OA
HETATM    4  C   UNL     1      25.059  46.389  51.189  1.00  0.00     0.133 A 
HETATM    5  C   UNL     1      24.781  45.237  50.515  1.00  0.00     0.103 A 
HETATM    6  N   UNL     1      25.322  44.002  50.871  1.00  0.00    -0.239 NA
HETATM    7  C   UNL     1      26.129  44.072  51.892  1.00  0.00     0.239 A 
HETATM    8  N   UNL     1      24.344  47.397  50.605  1.00  0.00    -0.349 N 
HETATM    9  H   UNL     1      24.353  48.361  50.909  1.00  0.00     0.166 HD
HETATM   10  C   UNL     1      23.605  46.891  49.551  1.00  0.00     0.045 A 
HETATM   11  C   UNL     1      23.872  45.516  49.473  1.00  0.00     0.024 A 
HETATM   12  C   UNL     1      22.726  47.538  48.675  1.00  0.00     0.032 A 
HETATM   13  C   UNL     1      22.108  46.759  47.690  1.00  0.00     0.026 A 
HETATM   14  C   UNL     1      22.363  45.392  47.593  1.00  0.00     0.035 A 
HETATM   15 CL   UNL     1      21.581  44.471  46.364  1.00  0.00    -0.084 Cl
HETATM   16  C   UNL     1      23.239  44.753  48.474  1.00  0.00     0.040 A 
ENDROOT
BRANCH   1  17
HETATM   17  N   UNL     1      27.353  45.179  53.705  1.00  0.00    -0.175 NA
HETATM   18  C   UNL     1      28.451  44.500  53.693  1.00  0.00     0.150 C 
BRANCH  18  19
HETATM   19  C   UNL     1      29.326  44.455  54.886  1.00  0.00    -0.017 A 
HETATM   20  C   UNL     1      30.213  43.392  55.082  1.00  0.00     0.016 A 
HETATM   21  C   UNL     1      31.027  43.370  56.216  1.00  0.00     0.037 A 
HETATM   22  C   UNL     1      30.954  44.407  57.138  1.00  0.00     0.065 A 
HETATM   23  C   UNL     1      30.076  45.472  56.950  1.00  0.00     0.037 A 
HETATM   24  C   UNL     1      29.254  45.496  55.819  1.00  0.00     0.016 A 
BRANCH  22  25
HETATM   25  O   UNL     1      31.771  44.344  58.227  1.00  0.00    -0.361 OA
HETATM   26  H   UNL     1      31.542  43.559  58.750  1.00  0.00     0.217 HD
ENDBRANCH  22  25
ENDBRANCH  18  19
ENDBRANCH   1  17
TORSDOF 3
ENDMDL
MODEL 4
REMARK VINA RESULT:      -8.8      1.424      2.146
REMARK  3 active torsions:
REMARK  status: ('A' for Active; 'I' for Inactive)
REMARK    1  A    between atoms: C_2  and  C_3 
REMARK    2  A    between atoms: N_4  and  N_5 
REMARK    3  A    between atoms: C_23  and  O_24 
ROOT
HETATM    1  N   UNL     1      25.945  45.833  52.413  1.00  0.00    -0.189 N 
HETATM    2  C   UNL     1      26.807  44.738  52.225  1.00  0.00     0.298 A 
HETATM    3  O   UNL     1      26.781  43.949  51.285  1.00  0.00    -0.264 OA
HETATM    4  C   UNL     1      27.764  44.633  53.280  1.00  0.00     0.133 A 
HETATM    5  C   UNL     1      27.811  45.476  54.349  1.00  0.00     0.103 A 
HETATM    6  N   UNL     1      26.906  46.521  54.530  1.00  0.00    -0.239 NA
HETATM    7  C   UNL     1      26.034  46.615  53.566  1.00  0.00     0.239 A 
HETATM    8  N   UNL     1      28.764  43.713  53.431  1.00  0.00    -0.349 N 
HETATM    9  H   UNL     1      28.956  42.959  52.784  1.00  0.00     0.166 HD
HETATM   10  C   UNL     1      29.456  43.967  54.600  1.00  0.00     0.045 A 
HETATM   11  C   UNL     1      28.869  45.091  55.200  1.00  0.00     0.024 A 
HETATM   12  C   UNL     1      30.543  43.293  55.169  1.00  0.00     0.032 A 
HETATM   13  C   UNL     1      31.043  43.783  56.380  1.00  0.00     0.026 A 
HETATM   14  C   UNL     1      30.475  44.899  56.991  1.00  0.00     0.035 A 
HETATM   15 CL   UNL     1      31.124  45.470  58.482  1.00  0.00    -0.084 Cl
HETATM   16  C   UNL     1      29.388  45.566  56.418  1.00  0.00     0.040 A 
ENDROOT
BRANCH   1  17
HETATM   17  N   UNL     1      24.956  45.988  51.455  1.00  0.00    -0.175 NA
HETATM   18  C   UNL     1      24.934  47.013  50.669  1.00  0.00     0.150 C 
BRANCH  18  19
HETATM   19  C   UNL     1      23.856  47.178  49.670  1.00  0.00    -0.017 A 
HETATM   20  C   UNL     1      23.355  48.447  49.361  1.00  0.00     0.016 A 
HETATM   21  C   UNL     1      22.336  48.578  48.417  1.00  0.00     0.037 A 
HETATM   22  C   UNL     1      21.830  47.447  47.786  1.00  0.00     0.065 A 
HETATM   23  C   UNL     1      22.323  46.179  48.086  1.00  0.00     0.037 A 
HETATM   24  C   UNL     1      23.340  46.042  49.035  1.00  0.00     0.016 A 
BRANCH  22  25
HETATM   25  O   UNL     1      20.838  47.625  46.869  1.00  0.00    -0.361 OA
HETATM   26  H   UNL     1      20.332  48.420  47.099  1.00  0.00     0.217 HD
ENDBRANCH  22  25
ENDBRANCH  18  19
ENDBRANCH   1  17
TORSDOF 3
ENDMDL
MODEL 5
REMARK VINA RESULT:      -8.4      5.491      9.658
REMARK  3 active torsions:
REMARK  status: ('A' for Active; 'I' for Inactive)
REMARK    1  A    between atoms: C_2  and  C_3 
REMARK    2  A    between atoms: N_4  and  N_5 
REMARK    3  A    between atoms: C_23  and  O_24 
ROOT
HETATM    1  N   UNL     1      27.782  42.608  52.688  1.00  0.00    -0.189 N 
HETATM    2  C   UNL     1      28.005  41.246  52.415  1.00  0.00     0.298 A 
HETATM    3  O   UNL     1      28.570  40.443  53.153  1.00  0.00    -0.264 OA
HETATM    4  C   UNL     1      27.483  40.871  51.140  1.00  0.00     0.133 A 
HETATM    5  C   UNL     1      26.870  41.738  50.286  1.00  0.00     0.103 A 
HETATM    6  N   UNL     1      26.712  43.095  50.567  1.00  0.00    -0.239 NA
HETATM    7  C   UNL     1      27.189  43.434  51.732  1.00  0.00     0.239 A 
HETATM    8  N   UNL     1      27.498  39.640  50.545  1.00  0.00    -0.349 N 
HETATM    9  H   UNL     1      27.901  38.807  50.953  1.00  0.00     0.166 HD
HETATM   10  C   UNL     1      26.892  39.717  49.304  1.00  0.00     0.045 A 
HETATM   11  C   UNL     1      26.479  41.045  49.120  1.00  0.00     0.024 A 
HETATM   12  C   UNL     1      26.684  38.724  48.340  1.00  0.00     0.032 A 
HETATM   13  C   UNL     1      26.034  39.099  47.159  1.00  0.00     0.026 A 
HETATM   14  C   UNL     1      25.613  40.412  46.958  1.00  0.00     0.035 A 
HETATM   15 CL   UNL     1      24.815  40.830  45.489  1.00  0.00    -0.084 Cl
HETATM   16  C   UNL     1      25.827  41.399  47.925  1.00  0.00     0.040 A 
ENDROOT
BRANCH   1  17
HETATM   17  N   UNL     1      28.293  43.069  53.891  1.00  0.00    -0.175 NA
HETATM   18  C   UNL     1      29.522  43.450  53.999  1.00  0.00     0.150 C 
BRANCH  18  19
HETATM   19  C   UNL     1      30.059  43.913  55.297  1.00  0.00    -0.017 A 
HETATM   20  C   UNL     1      29.644  45.129  55.850  1.00  0.00     0.016 A 
HETATM   21  C   UNL     1      30.166  45.547  57.074  1.00  0.00     0.037 A 
HETATM   22  C   UNL     1      31.092  44.750  57.738  1.00  0.00     0.065 A 
HETATM   23  C   UNL     1      31.511  43.537  57.197  1.00  0.00     0.037 A 
HETATM   24  C   UNL     1      30.994  43.116  55.968  1.00  0.00     0.016 A 
BRANCH  22  25
HETATM   25  O   UNL     1      31.571  45.198  58.933  1.00  0.00    -0.361 OA
HETATM   26  H   UNL     1      31.129  46.031  59.160  1.00  0.00     0.217 HD
ENDBRANCH  22  25
ENDBRANCH  18  19
ENDBRANCH   1  17
TORSDOF 3
ENDMDL
MODEL 6
REMARK VINA RESULT:      -8.4      2.217      3.427
REMARK  3 active torsions:
REMARK  status: ('A' for Active; 'I' for Inactive)
REMARK    1  A    between atoms: C_2  and  C_3 
REMARK    2  A    between atoms: N_4  and  N_5 
REMARK    3  A    between atoms: C_23  and  O_24 
ROOT
HETATM    1  N   UNL     1      25.296  46.384  51.283  1.00  0.00    -0.189 N 
HETATM    2  C   UNL     1      25.941  45.280  50.698  1.00  0.00     0.298 A 
HETATM    3  O   UNL     1      25.706  44.809  49.588  1.00  0.00    -0.264 OA
HETATM    4  C   UNL     1      26.945  44.738  51.557  1.00  0.00     0.133 A 
HETATM    5  C   UNL     1      27.219  45.220  52.801  1.00  0.00     0.103 A 
HETATM    6  N   UNL     1      26.523  46.286  53.372  1.00  0.00    -0.239 NA
HETATM    7  C   UNL     1      25.608  46.778  52.585  1.00  0.00     0.239 A 
HETATM    8  N   UNL     1      27.781  43.682  51.325  1.00  0.00    -0.349 N 
HETATM    9  H   UNL     1      27.790  43.128  50.479  1.00  0.00     0.166 HD
HETATM   10  C   UNL     1      28.596  43.485  52.425  1.00  0.00     0.045 A 
HETATM   11  C   UNL     1      28.258  44.458  53.377  1.00  0.00     0.024 A 
HETATM   12  C   UNL     1      29.592  42.527  52.649  1.00  0.00     0.032 A 
HETATM   13  C   UNL     1      30.261  42.568  53.877  1.00  0.00     0.026 A 
HETATM   14  C   UNL     1      29.943  43.529  54.835  1.00  0.00     0.035 A 
HETATM   15 CL   UNL     1      30.794  43.545  56.333  1.00  0.00    -0.084 Cl
HETATM   16  C   UNL     1      28.945  44.481  54.605  1.00  0.00     0.040 A 
ENDROOT
BRANCH   1  17
HETATM   17  N   UNL     1      24.277  46.949  50.533  1.00  0.00    -0.175 NA
HETATM   18  C   UNL     1      24.427  48.089  49.943  1.00  0.00     0.150 C 
BRANCH  18  19
HETATM   19  C   UNL     1      23.320  48.692  49.170  1.00  0.00    -0.017 A 
HETATM   20  C   UNL     1      22.235  47.915  48.750  1.00  0.00     0.016 A 
HETATM   21  C   UNL     1      21.203  48.504  48.019  1.00  0.00     0.037 A 
HETATM   22  C   UNL     1      21.258  49.860  47.718  1.00  0.00     0.065 A 
HETATM   23  C   UNL     1      22.333  50.643  48.132  1.00  0.00     0.037 A 
HETATM   24  C   UNL     1      23.372  50.055  48.860  1.00  0.00     0.016 A 
BRANCH  22  25
HETATM   25  O   UNL     1      20.225  50.392  47.005  1.00  0.00    -0.361 OA
HETATM   26  H   UNL     1      20.578  51.027  46.361  1.00  0.00     0.217 HD
ENDBRANCH  22  25
ENDBRANCH  18  19
ENDBRANCH   1  17
TORSDOF 3
ENDMDL
MODEL 7
REMARK VINA RESULT:      -8.4      5.107      9.503
REMARK  3 active torsions:
REMARK  status: ('A' for Active; 'I' for Inactive)
REMARK    1  A    between atoms: C_2  and  C_3 
REMARK    2  A    between atoms: N_4  and  N_5 
REMARK    3  A    between atoms: C_23  and  O_24 
ROOT
HETATM    1  N   UNL     1      28.041  42.133  52.747  1.00  0.00    -0.189 N 
HETATM    2  C   UNL     1      26.839  42.624  52.208  1.00  0.00     0.298 A 
HETATM    3  O   UNL     1      26.167  43.548  52.659  1.00  0.00    -0.264 OA
HETATM    4  C   UNL     1      26.461  41.915  51.027  1.00  0.00     0.133 A 
HETATM    5  C   UNL     1      27.169  40.872  50.510  1.00  0.00     0.103 A 
HETATM    6  N   UNL     1      28.331  40.377  51.102  1.00  0.00    -0.239 NA
HETATM    7  C   UNL     1      28.673  41.027  52.178  1.00  0.00     0.239 A 
HETATM    8  N   UNL     1      25.371  42.116  50.227  1.00  0.00    -0.349 N 
HETATM    9  H   UNL     1      24.666  42.825  50.382  1.00  0.00     0.166 HD
HETATM   10  C   UNL     1      25.380  41.200  49.192  1.00  0.00     0.045 A 
HETATM   11  C   UNL     1      26.521  40.399  49.349  1.00  0.00     0.024 A 
HETATM   12  C   UNL     1      24.473  41.019  48.141  1.00  0.00     0.032 A 
HETATM   13  C   UNL     1      24.741  39.995  47.228  1.00  0.00     0.026 A 
HETATM   14  C   UNL     1      25.871  39.189  47.364  1.00  0.00     0.035 A 
HETATM   15 CL   UNL     1      26.164  37.940  46.215  1.00  0.00    -0.084 Cl
HETATM   16  C   UNL     1      26.771  39.375  48.418  1.00  0.00     0.040 A 
ENDROOT
BRANCH   1  17
HETATM   17  N   UNL     1      28.463  42.740  53.920  1.00  0.00    -0.175 NA
HETATM   18  C   UNL     1      29.664  43.199  54.047  1.00  0.00     0.150 C 
BRANCH  18  19
HETATM   19  C   UNL     1      30.107  43.818  55.315  1.00  0.00    -0.017 A 
HETATM   20  C   UNL     1      31.051  43.184  56.129  1.00  0.00     0.016 A 
HETATM   21  C   UNL     1      31.453  43.785  57.322  1.00  0.00     0.037 A 
HETATM   22  C   UNL     1      30.915  45.013  57.691  1.00  0.00     0.065 A 
HETATM   23  C   UNL     1      29.975  45.654  56.887  1.00  0.00     0.037 A 
HETATM   24  C   UNL     1      29.566  45.052  55.693  1.00  0.00     0.016 A 
BRANCH  22  25
HETATM   25  O   UNL     1      31.340  45.564  58.863  1.00  0.00    -0.361 OA
HETATM   26  H   UNL     1      30.598  45.589  59.489  1.00  0.00     0.217 HD
ENDBRANCH  22  25
ENDBRANCH  18  19
ENDBRANCH   1  17
TORSDOF 3
ENDMDL
MODEL 8
REMARK VINA RESULT:      -8.4      4.273      9.299
REMARK  3 active torsions:
REMARK  status: ('A' for Active; 'I' for Inactive)
REMARK    1  A    between atoms: C_2  and  C_3 
REMARK    2  A    between atoms: N_4  and  N_5 
REMARK    3  A    between atoms: C_23  and  O_24 
ROOT
HETATM    1  N   UNL     1      27.125  43.045  52.778  1.00  0.00    -0.189 N 
HETATM    2  C   UNL     1      25.949  43.801  52.624  1.00  0.00     0.298 A 
HETATM    3  O   UNL     1      25.529  44.654  53.402  1.00  0.00    -0.264 OA
HETATM    4  C   UNL     1      25.261  43.469  51.418  1.00  0.00     0.133 A 
HETATM    5  C   UNL     1      25.684  42.514  50.542  1.00  0.00     0.103 A 
HETATM    6  N   UNL     1      26.829  41.746  50.753  1.00  0.00    -0.239 NA
HETATM    7  C   UNL     1      27.454  42.053  51.855  1.00  0.00     0.239 A 
HETATM    8  N   UNL     1      24.101  44.000  50.927  1.00  0.00    -0.349 N 
HETATM    9  H   UNL     1      23.563  44.727  51.381  1.00  0.00     0.166 HD
HETATM   10  C   UNL     1      23.778  43.385  49.732  1.00  0.00     0.045 A 
HETATM   11  C   UNL     1      24.777  42.437  49.464  1.00  0.00     0.024 A 
HETATM   12  C   UNL     1      22.688  43.591  48.878  1.00  0.00     0.032 A 
HETATM   13  C   UNL     1      22.619  42.809  47.720  1.00  0.00     0.026 A 
HETATM   14  C   UNL     1      23.603  41.864  47.434  1.00  0.00     0.035 A 
HETATM   15 CL   UNL     1      23.480  40.923  45.996  1.00  0.00    -0.084 Cl
HETATM   16  C   UNL     1      24.687  41.662  48.293  1.00  0.00     0.040 A 
ENDROOT
BRANCH   1  17
HETATM   17  N   UNL     1      27.836  43.276  53.945  1.00  0.00    -0.175 NA
HETATM   18  C   UNL     1      28.905  44.001  53.950  1.00  0.00     0.150 C 
BRANCH  18  19
HETATM   19  C   UNL     1      29.669  44.214  55.199  1.00  0.00    -0.017 A 
HETATM   20  C   UNL     1      30.630  43.287  55.616  1.00  0.00     0.016 A 
HETATM   21  C   UNL     1      31.337  43.507  56.799  1.00  0.00     0.037 A 
HETATM   22  C   UNL     1      31.084  44.649  57.551  1.00  0.00     0.065 A 
HETATM   23  C   UNL     1      30.130  45.579  57.144  1.00  0.00     0.037 A 
HETATM   24  C   UNL     1      29.416  45.360  55.962  1.00  0.00     0.016 A 
BRANCH  22  25
HETATM   25  O   UNL     1      31.801  44.823  58.697  1.00  0.00    -0.361 OA
HETATM   26  H   UNL     1      31.189  44.914  59.444  1.00  0.00     0.217 HD
ENDBRANCH  22  25
ENDBRANCH  18  19
ENDBRANCH   1  17
TORSDOF 3
ENDMDL
MODEL 9
REMARK VINA RESULT:      -8.3      4.534      9.377
REMARK  3 active torsions:
REMARK  status: ('A' for Active; 'I' for Inactive)
REMARK    1  A    between atoms: C_2  and  C_3 
REMARK    2  A    between atoms: N_4  and  N_5 
REMARK    3  A    between atoms: C_23  and  O_24 
ROOT
HETATM    1  N   UNL     1      26.467  43.676  53.115  1.00  0.00    -0.189 N 
HETATM    2  C   UNL     1      26.876  42.790  52.102  1.00  0.00     0.298 A 
HETATM    3  O   UNL     1      27.882  42.086  52.118  1.00  0.00    -0.264 OA
HETATM    4  C   UNL     1      25.962  42.786  51.005  1.00  0.00     0.133 A 
HETATM    5  C   UNL     1      24.848  43.568  50.942  1.00  0.00     0.103 A 
HETATM    6  N   UNL     1      24.501  44.475  51.943  1.00  0.00    -0.239 NA
HETATM    7  C   UNL     1      25.337  44.476  52.944  1.00  0.00     0.239 A 
HETATM    8  N   UNL     1      26.018  42.048  49.855  1.00  0.00    -0.349 N 
HETATM    9  H   UNL     1      26.749  41.386  49.631  1.00  0.00     0.166 HD
HETATM   10  C   UNL     1      24.936  42.357  49.052  1.00  0.00     0.045 A 
HETATM   11  C   UNL     1      24.174  43.321  49.727  1.00  0.00     0.024 A 
HETATM   12  C   UNL     1      24.581  41.865  47.791  1.00  0.00     0.032 A 
HETATM   13  C   UNL     1      23.414  42.370  47.207  1.00  0.00     0.026 A 
HETATM   14  C   UNL     1      22.640  43.326  47.863  1.00  0.00     0.035 A 
HETATM   15 CL   UNL     1      21.209  43.919  47.109  1.00  0.00    -0.084 Cl
HETATM   16  C   UNL     1      23.003  43.814  49.122  1.00  0.00     0.040 A 
ENDROOT
BRANCH   1  17
HETATM   17  N   UNL     1      27.319  43.773  54.204  1.00  0.00    -0.175 NA
HETATM   18  C   UNL     1      28.340  44.564  54.192  1.00  0.00     0.150 C 
BRANCH  18  19
HETATM   19  C   UNL     1      29.256  44.635  55.352  1.00  0.00    -0.017 A 
HETATM   20  C   UNL     1      29.090  45.617  56.334  1.00  0.00     0.016 A 
HETATM   21  C   UNL     1      29.967  45.667  57.419  1.00  0.00     0.037 A 
HETATM   22  C   UNL     1      30.996  44.738  57.517  1.00  0.00     0.065 A 
HETATM   23  C   UNL     1      31.169  43.755  56.545  1.00  0.00     0.037 A 
HETATM   24  C   UNL     1      30.296  43.704  55.454  1.00  0.00     0.016 A 
BRANCH  22  25
HETATM   25  O   UNL     1      31.825  44.824  58.595  1.00  0.00    -0.361 OA
HETATM   26  H   UNL     1      32.498  45.502  58.424  1.00  0.00     0.217 HD
ENDBRANCH  22  25
ENDBRANCH  18  19
ENDBRANCH   1  17
TORSDOF 3
ENDMDL
MODEL 10
REMARK VINA RESULT:      -8.3      4.186      9.404
REMARK  3 active torsions:
REMARK  status: ('A' for Active; 'I' for Inactive)
REMARK    1  A    between atoms: C_2  and  C_3 
REMARK    2  A    between atoms: N_4  and  N_5 
REMARK    3  A    between atoms: C_23  and  O_24 
ROOT
HETATM    1  N   UNL     1      25.906  45.526  50.596  1.00  0.00    -0.189 N 
HETATM    2  C   UNL     1      25.278  46.766  50.817  1.00  0.00     0.298 A 
HETATM    3  O   UNL     1      25.611  47.607  51.647  1.00  0.00    -0.264 OA
HETATM    4  C   UNL     1      24.171  46.961  49.937  1.00  0.00     0.133 A 
HETATM    5  C   UNL     1      23.760  46.042  49.019  1.00  0.00     0.103 A 
HETATM    6  N   UNL     1      24.374  44.800  48.863  1.00  0.00    -0.239 NA
HETATM    7  C   UNL     1      25.385  44.625  49.667  1.00  0.00     0.239 A 
HETATM    8  N   UNL     1      23.337  48.041  49.848  1.00  0.00    -0.349 N 
HETATM    9  H   UNL     1      23.407  48.871  50.421  1.00  0.00     0.166 HD
HETATM   10  C   UNL     1      22.389  47.815  48.867  1.00  0.00     0.045 A 
HETATM   11  C   UNL     1      22.642  46.548  48.322  1.00  0.00     0.024 A 
HETATM   12  C   UNL     1      21.335  48.626  48.430  1.00  0.00     0.032 A 
HETATM   13  C   UNL     1      20.521  48.128  47.407  1.00  0.00     0.026 A 
HETATM   14  C   UNL     1      20.757  46.873  46.849  1.00  0.00     0.035 A 
HETATM   15 CL   UNL     1      19.732  46.299  45.588  1.00  0.00    -0.084 Cl
HETATM   16  C   UNL     1      21.811  46.068  47.293  1.00  0.00     0.040 A 
ENDROOT
BRANCH   1  17
HETATM   17  N   UNL     1      26.970  45.236  51.435  1.00  0.00    -0.175 NA
HETATM   18  C   UNL     1      26.818  44.499  52.485  1.00  0.00     0.150 C 
BRANCH  18  19
HETATM   19  C   UNL     1      27.958  44.221  53.386  1.00  0.00    -0.017 A 
HETATM   20  C   UNL     1      28.180  45.008  54.520  1.00  0.00     0.016 A 
HETATM   21  C   UNL     1      29.264  44.729  55.355  1.00  0.00     0.037 A 
HETATM   22  C   UNL     1      30.111  43.669  55.054  1.00  0.00     0.065 A 
HETATM   23  C   UNL     1      29.898  42.879  53.927  1.00  0.00     0.037 A 
HETATM   24  C   UNL     1      28.817  43.157  53.086  1.00  0.00     0.016 A 
BRANCH  22  25
HETATM   25  O   UNL     1      31.154  43.433  55.900  1.00  0.00    -0.361 OA
HETATM   26  H   UNL     1      31.226  44.170  56.527  1.00  0.00     0.217 HD
ENDBRANCH  22  25
ENDBRANCH  18  19
ENDBRANCH   1  17
TORSDOF 3
ENDMDL
