MODEL 1
REMARK VINA RESULT:     -10.2      0.000      0.000
REMARK  5 active torsions:
REMARK  status: ('A' for Active; 'I' for Inactive)
REMARK    1  A    between atoms: C_3  and  O_4 
REMARK    2  A    between atoms: C_8  and  C_9 
REMARK       I    between atoms: N_10  and  C_11 
REMARK    3  A    between atoms: C_11  and  C_12 
REMARK    4  A    between atoms: C_12  and  C_13 
REMARK    5  A    between atoms: C_13  and  C_14 
ROOT
HETATM    1  C   UNL     1      27.169  42.125  52.334  1.00  0.00     0.171 C 
HETATM    2  N   UNL     1      26.275  43.038  51.577  1.00  0.00    -0.338 N 
HETATM    3  C   UNL     1      26.847  44.095  50.855  1.00  0.00     0.221 C 
HETATM    4  O   UNL     1      28.006  44.476  51.026  1.00  0.00    -0.273 OA
HETATM    5  C   UNL     1      25.085  42.332  51.057  1.00  0.00     0.131 C 
HETATM    6  C   UNL     1      25.474  41.327  49.942  1.00  0.00     0.061 C 
HETATM    7  C   UNL     1      26.778  40.659  50.265  1.00  0.00    -0.019 A 
HETATM    8  C   UNL     1      27.555  41.047  51.348  1.00  0.00     0.044 A 
HETATM    9  N   UNL     1      28.655  40.236  51.385  1.00  0.00    -0.356 N 
HETATM   10  H   UNL     1      29.384  40.262  52.086  1.00  0.00     0.166 HD
HETATM   11  C   UNL     1      28.660  39.405  50.282  1.00  0.00     0.043 A 
HETATM   12  C   UNL     1      27.481  39.640  49.571  1.00  0.00    -0.001 A 
HETATM   13  C   UNL     1      29.614  38.468  49.866  1.00  0.00     0.030 A 
HETATM   14  C   UNL     1      29.351  37.751  48.693  1.00  0.00     0.002 A 
HETATM   15  C   UNL     1      28.179  37.960  47.970  1.00  0.00     0.001 A 
HETATM   16  C   UNL     1      27.234  38.900  48.398  1.00  0.00     0.014 A 
ENDROOT
BRANCH   1  17
HETATM   17  C   UNL     1      28.221  42.746  53.239  1.00  0.00    -0.029 A 
HETATM   18  C   UNL     1      29.568  42.363  53.252  1.00  0.00     0.012 A 
HETATM   19  C   UNL     1      30.484  42.963  54.125  1.00  0.00     0.038 A 
HETATM   20  C   UNL     1      30.074  43.974  54.995  1.00  0.00     0.074 A 
HETATM   21  C   UNL     1      28.745  44.418  54.964  1.00  0.00    -0.028 A 
HETATM   22  C   UNL     1      28.296  45.568  55.821  1.00  0.00     0.051 C 
HETATM   23  C   UNL     1      27.835  43.800  54.091  1.00  0.00     0.019 A 
BRANCH  20  24
HETATM   24  O   UNL     1      30.911  44.623  55.866  1.00  0.00    -0.355 OA
HETATM   25  C   UNL     1      31.440  43.828  56.920  1.00  0.00     0.210 C 
ENDBRANCH  20  24
ENDBRANCH   1  17
BRANCH   3  26
HETATM   26  C   UNL     1      25.958  44.843  49.865  1.00  0.00     0.108 C 
BRANCH  26  27
HETATM   27  C   UNL     1      25.095  45.911  50.550  1.00  0.00     0.051 C 
BRANCH  27  28
HETATM   28  C   UNL     1      25.227  47.266  49.927  1.00  0.00    -0.021 A 
HETATM   29  C   UNL     1      26.372  47.932  49.534  1.00  0.00     0.120 A 
HETATM   30  N   UNL     1      25.971  49.127  49.017  1.00  0.00    -0.285 N 
HETATM   31  C   UNL     1      26.816  50.158  48.467  1.00  0.00     0.179 C 
HETATM   32  N   UNL     1      24.639  49.303  49.054  1.00  0.00    -0.185 NA
HETATM   33  C   UNL     1      24.190  48.179  49.620  1.00  0.00     0.147 A 
ENDBRANCH  27  28
ENDBRANCH  26  27
ENDBRANCH   3  26
TORSDOF 5
ENDMDL
MODEL 2
REMARK VINA RESULT:      -9.2      1.555      2.618
REMARK  5 active torsions:
REMARK  status: ('A' for Active; 'I' for Inactive)
REMARK    1  A    between atoms: C_3  and  O_4 
REMARK    2  A    between atoms: C_8  and  C_9 
REMARK       I    between atoms: N_10  and  C_11 
REMARK    3  A    between atoms: C_11  and  C_12 
REMARK    4  A    between atoms: C_12  and  C_13 
REMARK    5  A    between atoms: C_13  and  C_14 
ROOT
HETATM    1  C   UNL     1      25.484  43.474  52.030  1.00  0.00     0.171 C 
HETATM    2  N   UNL     1      24.875  44.571  51.236  1.00  0.00    -0.338 N 
HETATM    3  C   UNL     1      25.721  45.463  50.561  1.00  0.00     0.221 C 
HETATM    4  O   UNL     1      26.925  45.561  50.802  1.00  0.00    -0.273 OA
HETATM    5  C   UNL     1      23.586  44.165  50.639  1.00  0.00     0.131 C 
HETATM    6  C   UNL     1      23.793  43.095  49.535  1.00  0.00     0.061 C 
HETATM    7  C   UNL     1      24.882  42.139  49.924  1.00  0.00    -0.019 A 
HETATM    8  C   UNL     1      25.663  42.335  51.055  1.00  0.00     0.044 A 
HETATM    9  N   UNL     1      26.538  41.288  51.144  1.00  0.00    -0.356 N 
HETATM   10  H   UNL     1      27.210  41.142  51.886  1.00  0.00     0.166 HD
HETATM   11  C   UNL     1      26.412  40.477  50.033  1.00  0.00     0.043 A 
HETATM   12  C   UNL     1      25.365  40.983  49.258  1.00  0.00    -0.001 A 
HETATM   13  C   UNL     1      27.142  39.342  49.660  1.00  0.00     0.030 A 
HETATM   14  C   UNL     1      26.787  38.707  48.465  1.00  0.00     0.002 A 
HETATM   15  C   UNL     1      25.741  39.185  47.679  1.00  0.00     0.001 A 
HETATM   16  C   UNL     1      25.021  40.320  48.064  1.00  0.00     0.014 A 
ENDROOT
BRANCH   1  17
HETATM   17  C   UNL     1      26.597  43.832  53.002  1.00  0.00    -0.029 A 
HETATM   18  C   UNL     1      26.422  44.654  54.124  1.00  0.00     0.012 A 
HETATM   19  C   UNL     1      27.494  44.961  54.971  1.00  0.00     0.038 A 
HETATM   20  C   UNL     1      28.764  44.437  54.724  1.00  0.00     0.074 A 
HETATM   21  C   UNL     1      28.956  43.567  53.642  1.00  0.00    -0.028 A 
HETATM   22  C   UNL     1      30.288  42.913  53.405  1.00  0.00     0.051 C 
HETATM   23  C   UNL     1      27.874  43.276  52.795  1.00  0.00     0.019 A 
BRANCH  20  24
HETATM   24  O   UNL     1      29.859  44.675  55.514  1.00  0.00    -0.355 OA
HETATM   25  C   UNL     1      29.744  45.769  56.415  1.00  0.00     0.210 C 
ENDBRANCH  20  24
ENDBRANCH   1  17
BRANCH   3  26
HETATM   26  C   UNL     1      25.092  46.398  49.531  1.00  0.00     0.108 C 
BRANCH  26  27
HETATM   27  C   UNL     1      25.516  47.858  49.736  1.00  0.00     0.051 C 
BRANCH  27  28
HETATM   28  C   UNL     1      24.693  48.829  48.946  1.00  0.00    -0.021 A 
HETATM   29  C   UNL     1      23.318  48.954  48.889  1.00  0.00     0.120 A 
HETATM   30  N   UNL     1      23.055  49.986  48.038  1.00  0.00    -0.285 N 
HETATM   31  C   UNL     1      21.757  50.496  47.674  1.00  0.00     0.179 C 
HETATM   32  N   UNL     1      24.163  50.542  47.518  1.00  0.00    -0.185 NA
HETATM   33  C   UNL     1      25.155  49.829  48.058  1.00  0.00     0.147 A 
ENDBRANCH  27  28
ENDBRANCH  26  27
ENDBRANCH   3  26
TORSDOF 5
ENDMDL
MODEL 3
REMARK VINA RESULT:      -9.1      2.591      7.820
REMARK  5 active torsions:
REMARK  status: ('A' for Active; 'I' for Inactive)
REMARK    1  A    between atoms: C_3  and  O_4 
REMARK    2  A    between atoms: C_8  and  C_9 
REMARK       I    between atoms: N_10  and  C_11 
REMARK    3  A    between atoms: C_11  and  C_12 
REMARK    4  A    between atoms: C_12  and  C_13 
REMARK    5  A    between atoms: C_13  and  C_14 
ROOT
HETATM    1  C   UNL     1      26.020  43.574  52.041  1.00  0.00     0.171 C 
HETATM    2  N   UNL     1      26.488  42.429  51.218  1.00  0.00    -0.338 N 
HETATM    3  C   UNL     1      27.268  42.691  50.083  1.00  0.00     0.221 C 
HETATM    4  O   UNL     1      27.361  43.808  49.574  1.00  0.00    -0.273 OA
HETATM    5  C   UNL     1      26.744  41.230  52.044  1.00  0.00     0.131 C 
HETATM    6  C   UNL     1      27.973  41.439  52.967  1.00  0.00     0.061 C 
HETATM    7  C   UNL     1      28.010  42.845  53.487  1.00  0.00    -0.019 A 
HETATM    8  C   UNL     1      27.127  43.819  53.039  1.00  0.00     0.044 A 
HETATM    9  N   UNL     1      27.401  44.974  53.718  1.00  0.00    -0.356 N 
HETATM   10  H   UNL     1      26.896  45.845  53.626  1.00  0.00     0.166 HD
HETATM   11  C   UNL     1      28.515  44.797  54.513  1.00  0.00     0.043 A 
HETATM   12  C   UNL     1      28.907  43.460  54.398  1.00  0.00    -0.001 A 
HETATM   13  C   UNL     1      29.199  45.713  55.321  1.00  0.00     0.030 A 
HETATM   14  C   UNL     1      30.312  45.248  56.031  1.00  0.00     0.002 A 
HETATM   15  C   UNL     1      30.718  43.919  55.941  1.00  0.00     0.001 A 
HETATM   16  C   UNL     1      30.025  43.014  55.130  1.00  0.00     0.014 A 
ENDROOT
BRANCH   1  17
HETATM   17  C   UNL     1      25.362  44.743  51.326  1.00  0.00    -0.029 A 
HETATM   18  C   UNL     1      25.766  46.077  51.471  1.00  0.00     0.012 A 
HETATM   19  C   UNL     1      25.104  47.111  50.798  1.00  0.00     0.038 A 
HETATM   20  C   UNL     1      24.033  46.831  49.949  1.00  0.00     0.074 A 
HETATM   21  C   UNL     1      23.644  45.501  49.740  1.00  0.00    -0.028 A 
HETATM   22  C   UNL     1      22.556  45.161  48.760  1.00  0.00     0.051 C 
HETATM   23  C   UNL     1      24.309  44.475  50.430  1.00  0.00     0.019 A 
BRANCH  20  24
HETATM   24  O   UNL     1      23.345  47.783  49.240  1.00  0.00    -0.355 OA
HETATM   25  C   UNL     1      24.106  48.911  48.825  1.00  0.00     0.210 C 
ENDBRANCH  20  24
ENDBRANCH   1  17
BRANCH   3  26
HETATM   26  C   UNL     1      27.973  41.511  49.418  1.00  0.00     0.108 C 
BRANCH  26  27
HETATM   27  C   UNL     1      27.088  40.819  48.374  1.00  0.00     0.051 C 
BRANCH  27  28
HETATM   28  C   UNL     1      27.064  39.328  48.514  1.00  0.00    -0.021 A 
HETATM   29  C   UNL     1      26.502  38.387  47.673  1.00  0.00     0.120 A 
HETATM   30  N   UNL     1      26.752  37.168  48.228  1.00  0.00    -0.285 N 
HETATM   31  C   UNL     1      26.368  35.883  47.700  1.00  0.00     0.179 C 
HETATM   32  N   UNL     1      27.429  37.240  49.388  1.00  0.00    -0.185 NA
HETATM   33  C   UNL     1      27.604  38.552  49.567  1.00  0.00     0.147 A 
ENDBRANCH  27  28
ENDBRANCH  26  27
ENDBRANCH   3  26
TORSDOF 5
ENDMDL
MODEL 4
REMARK VINA RESULT:      -8.8      2.526      8.023
REMARK  5 active torsions:
REMARK  status: ('A' for Active; 'I' for Inactive)
REMARK    1  A    between atoms: C_3  and  O_4 
REMARK    2  A    between atoms: C_8  and  C_9 
REMARK       I    between atoms: N_10  and  C_11 
REMARK    3  A    between atoms: C_11  and  C_12 
REMARK    4  A    between atoms: C_12  and  C_13 
REMARK    5  A    between atoms: C_13  and  C_14 
ROOT
HETATM    1  C   UNL     1      25.783  43.108  51.648  1.00  0.00     0.171 C 
HETATM    2  N   UNL     1      26.456  42.005  50.916  1.00  0.00    -0.338 N 
HETATM    3  C   UNL     1      27.231  42.317  49.790  1.00  0.00     0.221 C 
HETATM    4  O   UNL     1      27.170  43.403  49.213  1.00  0.00    -0.273 OA
HETATM    5  C   UNL     1      26.862  40.912  51.826  1.00  0.00     0.131 C 
HETATM    6  C   UNL     1      28.006  41.367  52.770  1.00  0.00     0.061 C 
HETATM    7  C   UNL     1      27.803  42.791  53.198  1.00  0.00    -0.019 A 
HETATM    8  C   UNL     1      26.798  43.584  52.661  1.00  0.00     0.044 A 
HETATM    9  N   UNL     1      26.861  44.806  53.270  1.00  0.00    -0.356 N 
HETATM   10  H   UNL     1      26.230  45.580  53.106  1.00  0.00     0.166 HD
HETATM   11  C   UNL     1      27.956  44.855  54.109  1.00  0.00     0.043 A 
HETATM   12  C   UNL     1      28.556  43.593  54.093  1.00  0.00    -0.001 A 
HETATM   13  C   UNL     1      28.457  45.915  54.875  1.00  0.00     0.030 A 
HETATM   14  C   UNL     1      29.598  45.674  55.648  1.00  0.00     0.002 A 
HETATM   15  C   UNL     1      30.210  44.423  55.658  1.00  0.00     0.001 A 
HETATM   16  C   UNL     1      29.699  43.373  54.887  1.00  0.00     0.014 A 
ENDROOT
BRANCH   1  17
HETATM   17  C   UNL     1      24.981  44.114  50.837  1.00  0.00    -0.029 A 
HETATM   18  C   UNL     1      23.767  43.817  50.204  1.00  0.00     0.012 A 
HETATM   19  C   UNL     1      23.085  44.785  49.456  1.00  0.00     0.038 A 
HETATM   20  C   UNL     1      23.596  46.078  49.338  1.00  0.00     0.074 A 
HETATM   21  C   UNL     1      24.780  46.419  50.008  1.00  0.00    -0.028 A 
HETATM   22  C   UNL     1      25.305  47.827  49.978  1.00  0.00     0.051 C 
HETATM   23  C   UNL     1      25.458  45.436  50.746  1.00  0.00     0.019 A 
BRANCH  20  24
HETATM   24  O   UNL     1      22.982  47.087  48.640  1.00  0.00    -0.355 OA
HETATM   25  C   UNL     1      21.654  46.816  48.207  1.00  0.00     0.210 C 
ENDBRANCH  20  24
ENDBRANCH   1  17
BRANCH   3  26
HETATM   26  C   UNL     1      28.137  41.225  49.226  1.00  0.00     0.108 C 
BRANCH  26  27
HETATM   27  C   UNL     1      27.343  40.010  48.730  1.00  0.00     0.051 C 
BRANCH  27  28
HETATM   28  C   UNL     1      27.744  38.731  49.395  1.00  0.00    -0.021 A 
HETATM   29  C   UNL     1      28.886  38.452  50.121  1.00  0.00     0.120 A 
HETATM   30  N   UNL     1      28.785  37.154  50.526  1.00  0.00    -0.285 N 
HETATM   31  C   UNL     1      29.736  36.421  51.323  1.00  0.00     0.179 C 
HETATM   32  N   UNL     1      27.659  36.552  50.105  1.00  0.00    -0.185 NA
HETATM   33  C   UNL     1      27.036  37.505  49.406  1.00  0.00     0.147 A 
ENDBRANCH  27  28
ENDBRANCH  26  27
ENDBRANCH   3  26
TORSDOF 5
ENDMDL
MODEL 5
REMARK VINA RESULT:      -8.7      2.839      7.241
REMARK  5 active torsions:
REMARK  status: ('A' for Active; 'I' for Inactive)
REMARK    1  A    between atoms: C_3  and  O_4 
REMARK    2  A    between atoms: C_8  and  C_9 
REMARK       I    between atoms: N_10  and  C_11 
REMARK    3  A    between atoms: C_11  and  C_12 
REMARK    4  A    between atoms: C_12  and  C_13 
REMARK    5  A    between atoms: C_13  and  C_14 
ROOT
HETATM    1  C   UNL     1      25.893  43.127  51.655  1.00  0.00     0.171 C 
HETATM    2  N   UNL     1      26.455  42.016  50.846  1.00  0.00    -0.338 N 
HETATM    3  C   UNL     1      27.224  42.328  49.716  1.00  0.00     0.221 C 
HETATM    4  O   UNL     1      27.237  43.446  49.200  1.00  0.00    -0.273 OA
HETATM    5  C   UNL     1      26.794  40.846  51.684  1.00  0.00     0.131 C 
HETATM    6  C   UNL     1      27.994  41.155  52.617  1.00  0.00     0.061 C 
HETATM    7  C   UNL     1      27.918  42.564  53.125  1.00  0.00    -0.019 A 
HETATM    8  C   UNL     1      26.967  43.463  52.662  1.00  0.00     0.044 A 
HETATM    9  N   UNL     1      27.145  44.641  53.334  1.00  0.00    -0.356 N 
HETATM   10  H   UNL     1      26.575  45.470  53.230  1.00  0.00     0.166 HD
HETATM   11  C   UNL     1      28.262  44.556  54.141  1.00  0.00     0.043 A 
HETATM   12  C   UNL     1      28.756  43.252  54.040  1.00  0.00    -0.001 A 
HETATM   13  C   UNL     1      28.865  45.528  54.947  1.00  0.00     0.030 A 
HETATM   14  C   UNL     1      30.003  45.155  55.672  1.00  0.00     0.002 A 
HETATM   15  C   UNL     1      30.511  43.860  55.597  1.00  0.00     0.001 A 
HETATM   16  C   UNL     1      29.897  42.898  54.786  1.00  0.00     0.014 A 
ENDROOT
BRANCH   1  17
HETATM   17  C   UNL     1      25.154  44.236  50.924  1.00  0.00    -0.029 A 
HETATM   18  C   UNL     1      25.572  45.574  50.905  1.00  0.00     0.012 A 
HETATM   19  C   UNL     1      24.835  46.553  50.227  1.00  0.00     0.038 A 
HETATM   20  C   UNL     1      23.671  46.212  49.539  1.00  0.00     0.074 A 
HETATM   21  C   UNL     1      23.259  44.873  49.493  1.00  0.00    -0.028 A 
HETATM   22  C   UNL     1      22.063  44.461  48.682  1.00  0.00     0.051 C 
HETATM   23  C   UNL     1      24.002  43.903  50.186  1.00  0.00     0.019 A 
BRANCH  20  24
HETATM   24  O   UNL     1      22.904  47.107  48.837  1.00  0.00    -0.355 OA
HETATM   25  C   UNL     1      23.377  48.448  48.825  1.00  0.00     0.210 C 
ENDBRANCH  20  24
ENDBRANCH   1  17
BRANCH   3  26
HETATM   26  C   UNL     1      28.024  41.200  49.067  1.00  0.00     0.108 C 
BRANCH  26  27
HETATM   27  C   UNL     1      27.131  40.230  48.284  1.00  0.00     0.051 C 
BRANCH  27  28
HETATM   28  C   UNL     1      26.990  40.593  46.838  1.00  0.00    -0.021 A 
HETATM   29  C   UNL     1      25.839  40.719  46.084  1.00  0.00     0.120 A 
HETATM   30  N   UNL     1      26.232  41.073  44.828  1.00  0.00    -0.285 N 
HETATM   31  C   UNL     1      25.378  41.329  43.695  1.00  0.00     0.179 C 
HETATM   32  N   UNL     1      27.567  41.175  44.697  1.00  0.00    -0.185 NA
HETATM   33  C   UNL     1      28.026  40.868  45.913  1.00  0.00     0.147 A 
ENDBRANCH  27  28
ENDBRANCH  26  27
ENDBRANCH   3  26
TORSDOF 5
ENDMDL
MODEL 6
REMARK VINA RESULT:      -8.7      2.656      7.856
REMARK  5 active torsions:
REMARK  status: ('A' for Active; 'I' for Inactive)
REMARK    1  A    between atoms: C_3  and  O_4 
REMARK    2  A    between atoms: C_8  and  C_9 
REMARK       I    between atoms: N_10  and  C_11 
REMARK    3  A    between atoms: C_11  and  C_12 
REMARK    4  A    between atoms: C_12  and  C_13 
REMARK    5  A    between atoms: C_13  and  C_14 
ROOT
HETATM    1  C   UNL     1      25.961  42.868  51.658  1.00  0.00     0.171 C 
HETATM    2  N   UNL     1      26.627  41.810  50.857  1.00  0.00    -0.338 N 
HETATM    3  C   UNL     1      27.362  42.186  49.724  1.00  0.00     0.221 C 
HETATM    4  O   UNL     1      27.267  43.296  49.199  1.00  0.00    -0.273 OA
HETATM    5  C   UNL     1      27.076  40.684  51.703  1.00  0.00     0.131 C 
HETATM    6  C   UNL     1      28.241  41.113  52.632  1.00  0.00     0.061 C 
HETATM    7  C   UNL     1      28.031  42.512  53.131  1.00  0.00    -0.019 A 
HETATM    8  C   UNL     1      26.999  43.313  52.662  1.00  0.00     0.044 A 
HETATM    9  N   UNL     1      27.063  44.507  53.324  1.00  0.00    -0.356 N 
HETATM   10  H   UNL     1      26.417  45.278  53.216  1.00  0.00     0.166 HD
HETATM   11  C   UNL     1      28.183  44.535  54.131  1.00  0.00     0.043 A 
HETATM   12  C   UNL     1      28.800  43.284  54.039  1.00  0.00    -0.001 A 
HETATM   13  C   UNL     1      28.691  45.566  54.930  1.00  0.00     0.030 A 
HETATM   14  C   UNL     1      29.860  45.309  55.656  1.00  0.00     0.002 A 
HETATM   15  C   UNL     1      30.489  44.068  55.590  1.00  0.00     0.001 A 
HETATM   16  C   UNL     1      29.970  43.046  54.787  1.00  0.00     0.014 A 
ENDROOT
BRANCH   1  17
HETATM   17  C   UNL     1      25.119  43.897  50.920  1.00  0.00    -0.029 A 
HETATM   18  C   UNL     1      23.886  43.612  50.319  1.00  0.00     0.012 A 
HETATM   19  C   UNL     1      23.168  44.602  49.636  1.00  0.00     0.038 A 
HETATM   20  C   UNL     1      23.661  45.905  49.555  1.00  0.00     0.074 A 
HETATM   21  C   UNL     1      24.864  46.232  50.196  1.00  0.00    -0.028 A 
HETATM   22  C   UNL     1      25.373  47.646  50.206  1.00  0.00     0.051 C 
HETATM   23  C   UNL     1      25.579  45.227  50.867  1.00  0.00     0.019 A 
BRANCH  20  24
HETATM   24  O   UNL     1      23.012  46.934  48.922  1.00  0.00    -0.355 OA
HETATM   25  C   UNL     1      22.208  46.563  47.808  1.00  0.00     0.210 C 
ENDBRANCH  20  24
ENDBRANCH   1  17
BRANCH   3  26
HETATM   26  C   UNL     1      28.266  41.135  49.082  1.00  0.00     0.108 C 
BRANCH  26  27
HETATM   27  C   UNL     1      27.753  40.690  47.707  1.00  0.00     0.051 C 
BRANCH  27  28
HETATM   28  C   UNL     1      27.576  39.208  47.594  1.00  0.00    -0.021 A 
HETATM   29  C   UNL     1      27.975  38.362  46.577  1.00  0.00     0.120 A 
HETATM   30  N   UNL     1      27.593  37.105  46.941  1.00  0.00    -0.285 N 
HETATM   31  C   UNL     1      27.805  35.888  46.199  1.00  0.00     0.179 C 
HETATM   32  N   UNL     1      26.955  37.065  48.124  1.00  0.00    -0.185 NA
HETATM   33  C   UNL     1      26.932  38.343  48.512  1.00  0.00     0.147 A 
ENDBRANCH  27  28
ENDBRANCH  26  27
ENDBRANCH   3  26
TORSDOF 5
ENDMDL
MODEL 7
REMARK VINA RESULT:      -8.6      2.930      6.425
REMARK  5 active torsions:
REMARK  status: ('A' for Active; 'I' for Inactive)
REMARK    1  A    between atoms: C_3  and  O_4 
REMARK    2  A    between atoms: C_8  and  C_9 
REMARK       I    between atoms: N_10  and  C_11 
REMARK    3  A    between atoms: C_11  and  C_12 
REMARK    4  A    between atoms: C_12  and  C_13 
REMARK    5  A    between atoms: C_13  and  C_14 
ROOT
HETATM    1  C   UNL     1      26.744  43.948  50.376  1.00  0.00     0.171 C 
HETATM    2  N   UNL     1      25.370  44.211  49.878  1.00  0.00    -0.338 N 
HETATM    3  C   UNL     1      24.320  43.403  50.338  1.00  0.00     0.221 C 
HETATM    4  O   UNL     1      24.501  42.328  50.910  1.00  0.00    -0.273 OA
HETATM    5  C   UNL     1      25.149  45.649  49.616  1.00  0.00     0.131 C 
HETATM    6  C   UNL     1      25.134  46.463  50.937  1.00  0.00     0.061 C 
HETATM    7  C   UNL     1      26.152  45.926  51.898  1.00  0.00    -0.019 A 
HETATM    8  C   UNL     1      26.866  44.763  51.642  1.00  0.00     0.044 A 
HETATM    9  N   UNL     1      27.723  44.560  52.688  1.00  0.00    -0.356 N 
HETATM   10  H   UNL     1      28.395  43.808  52.762  1.00  0.00     0.166 HD
HETATM   11  C   UNL     1      27.498  45.507  53.667  1.00  0.00     0.043 A 
HETATM   12  C   UNL     1      26.526  46.388  53.187  1.00  0.00    -0.001 A 
HETATM   13  C   UNL     1      28.081  45.649  54.933  1.00  0.00     0.030 A 
HETATM   14  C   UNL     1      27.658  46.722  55.725  1.00  0.00     0.002 A 
HETATM   15  C   UNL     1      26.697  47.620  55.267  1.00  0.00     0.001 A 
HETATM   16  C   UNL     1      26.124  47.466  54.000  1.00  0.00     0.014 A 
ENDROOT
BRANCH   1  17
HETATM   17  C   UNL     1      27.253  42.516  50.336  1.00  0.00    -0.029 A 
HETATM   18  C   UNL     1      27.685  41.807  51.465  1.00  0.00     0.012 A 
HETATM   19  C   UNL     1      28.161  40.495  51.358  1.00  0.00     0.038 A 
HETATM   20  C   UNL     1      28.201  39.856  50.118  1.00  0.00     0.074 A 
HETATM   21  C   UNL     1      27.722  40.520  48.980  1.00  0.00    -0.028 A 
HETATM   22  C   UNL     1      27.664  39.825  47.648  1.00  0.00     0.051 C 
HETATM   23  C   UNL     1      27.257  41.840  49.101  1.00  0.00     0.019 A 
BRANCH  20  24
HETATM   24  O   UNL     1      28.636  38.568  49.931  1.00  0.00    -0.355 OA
HETATM   25  C   UNL     1      29.799  38.199  50.661  1.00  0.00     0.210 C 
ENDBRANCH  20  24
ENDBRANCH   1  17
BRANCH   3  26
HETATM   26  C   UNL     1      22.892  43.858  50.045  1.00  0.00     0.108 C 
BRANCH  26  27
HETATM   27  C   UNL     1      22.499  43.633  48.580  1.00  0.00     0.051 C 
BRANCH  27  28
HETATM   28  C   UNL     1      22.113  44.894  47.871  1.00  0.00    -0.021 A 
HETATM   29  C   UNL     1      21.604  46.064  48.399  1.00  0.00     0.120 A 
HETATM   30  N   UNL     1      21.424  46.919  47.353  1.00  0.00    -0.285 N 
HETATM   31  C   UNL     1      20.922  48.269  47.417  1.00  0.00     0.179 C 
HETATM   32  N   UNL     1      21.767  46.388  46.167  1.00  0.00    -0.185 NA
HETATM   33  C   UNL     1      22.170  45.154  46.481  1.00  0.00     0.147 A 
ENDBRANCH  27  28
ENDBRANCH  26  27
ENDBRANCH   3  26
TORSDOF 5
ENDMDL
MODEL 8
REMARK VINA RESULT:      -8.5      5.844     10.424
REMARK  5 active torsions:
REMARK  status: ('A' for Active; 'I' for Inactive)
REMARK    1  A    between atoms: C_3  and  O_4 
REMARK    2  A    between atoms: C_8  and  C_9 
REMARK       I    between atoms: N_10  and  C_11 
REMARK    3  A    between atoms: C_11  and  C_12 
REMARK    4  A    between atoms: C_12  and  C_13 
REMARK    5  A    between atoms: C_13  and  C_14 
ROOT
HETATM    1  C   UNL     1      21.976  47.591  47.767  1.00  0.00     0.171 C 
HETATM    2  N   UNL     1      21.851  49.038  48.074  1.00  0.00    -0.338 N 
HETATM    3  C   UNL     1      20.867  49.451  48.984  1.00  0.00     0.221 C 
HETATM    4  O   UNL     1      19.931  48.732  49.334  1.00  0.00    -0.273 OA
HETATM    5  C   UNL     1      23.160  49.724  48.023  1.00  0.00     0.131 C 
HETATM    6  C   UNL     1      24.077  49.265  49.187  1.00  0.00     0.061 C 
HETATM    7  C   UNL     1      23.902  47.798  49.450  1.00  0.00    -0.019 A 
HETATM    8  C   UNL     1      22.923  47.048  48.812  1.00  0.00     0.044 A 
HETATM    9  N   UNL     1      23.039  45.756  49.244  1.00  0.00    -0.356 N 
HETATM   10  H   UNL     1      22.481  44.975  48.926  1.00  0.00     0.166 HD
HETATM   11  C   UNL     1      24.001  45.678  50.232  1.00  0.00     0.043 A 
HETATM   12  C   UNL     1      24.570  46.947  50.368  1.00  0.00    -0.001 A 
HETATM   13  C   UNL     1      24.406  44.586  51.009  1.00  0.00     0.030 A 
HETATM   14  C   UNL     1      25.424  44.799  51.947  1.00  0.00     0.002 A 
HETATM   15  C   UNL     1      26.014  46.052  52.095  1.00  0.00     0.001 A 
HETATM   16  C   UNL     1      25.598  47.134  51.312  1.00  0.00     0.014 A 
ENDROOT
BRANCH   1  17
HETATM   17  C   UNL     1      20.711  46.827  47.410  1.00  0.00    -0.029 A 
HETATM   18  C   UNL     1      20.263  45.691  48.097  1.00  0.00     0.012 A 
HETATM   19  C   UNL     1      19.097  45.021  47.706  1.00  0.00     0.038 A 
HETATM   20  C   UNL     1      18.344  45.483  46.626  1.00  0.00     0.074 A 
HETATM   21  C   UNL     1      18.737  46.650  45.955  1.00  0.00    -0.028 A 
HETATM   22  C   UNL     1      17.897  47.225  44.850  1.00  0.00     0.051 C 
HETATM   23  C   UNL     1      19.914  47.306  46.352  1.00  0.00     0.019 A 
BRANCH  20  24
HETATM   24  O   UNL     1      17.183  44.896  46.191  1.00  0.00    -0.355 OA
HETATM   25  C   UNL     1      17.340  43.863  45.225  1.00  0.00     0.210 C 
ENDBRANCH  20  24
ENDBRANCH   1  17
BRANCH   3  26
HETATM   26  C   UNL     1      20.935  50.886  49.502  1.00  0.00     0.108 C 
BRANCH  26  27
HETATM   27  C   UNL     1      20.274  51.883  48.541  1.00  0.00     0.051 C 
BRANCH  27  28
HETATM   28  C   UNL     1      18.781  51.906  48.650  1.00  0.00    -0.021 A 
HETATM   29  C   UNL     1      17.993  52.405  49.669  1.00  0.00     0.120 A 
HETATM   30  N   UNL     1      16.698  52.199  49.299  1.00  0.00    -0.285 N 
HETATM   31  C   UNL     1      15.518  52.567  50.041  1.00  0.00     0.179 C 
HETATM   32  N   UNL     1      16.576  51.583  48.110  1.00  0.00    -0.185 NA
HETATM   33  C   UNL     1      17.841  51.392  47.724  1.00  0.00     0.147 A 
ENDBRANCH  27  28
ENDBRANCH  26  27
ENDBRANCH   3  26
TORSDOF 5
ENDMDL
MODEL 9
REMARK VINA RESULT:      -8.4      2.593      6.187
REMARK  5 active torsions:
REMARK  status: ('A' for Active; 'I' for Inactive)
REMARK    1  A    between atoms: C_3  and  O_4 
REMARK    2  A    between atoms: C_8  and  C_9 
REMARK       I    between atoms: N_10  and  C_11 
REMARK    3  A    between atoms: C_11  and  C_12 
REMARK    4  A    between atoms: C_12  and  C_13 
REMARK    5  A    between atoms: C_13  and  C_14 
ROOT
HETATM    1  C   UNL     1      27.469  42.693  49.805  1.00  0.00     0.171 C 
HETATM    2  N   UNL     1      26.085  43.231  49.823  1.00  0.00    -0.338 N 
HETATM    3  C   UNL     1      25.054  42.420  50.317  1.00  0.00     0.221 C 
HETATM    4  O   UNL     1      25.174  41.205  50.481  1.00  0.00    -0.273 OA
HETATM    5  C   UNL     1      26.068  44.690  50.057  1.00  0.00     0.131 C 
HETATM    6  C   UNL     1      26.524  45.031  51.500  1.00  0.00     0.061 C 
HETATM    7  C   UNL     1      27.635  44.120  51.931  1.00  0.00    -0.019 A 
HETATM    8  C   UNL     1      28.043  43.040  51.159  1.00  0.00     0.044 A 
HETATM    9  N   UNL     1      29.081  42.431  51.808  1.00  0.00    -0.356 N 
HETATM   10  H   UNL     1      29.604  41.635  51.468  1.00  0.00     0.166 HD
HETATM   11  C   UNL     1      29.278  43.027  53.038  1.00  0.00     0.043 A 
HETATM   12  C   UNL     1      28.391  44.104  53.131  1.00  0.00    -0.001 A 
HETATM   13  C   UNL     1      30.169  42.697  54.066  1.00  0.00     0.030 A 
HETATM   14  C   UNL     1      30.154  43.491  55.218  1.00  0.00     0.002 A 
HETATM   15  C   UNL     1      29.287  44.575  55.333  1.00  0.00     0.001 A 
HETATM   16  C   UNL     1      28.402  44.894  54.297  1.00  0.00     0.014 A 
ENDROOT
BRANCH   1  17
HETATM   17  C   UNL     1      27.688  41.310  49.213  1.00  0.00    -0.029 A 
HETATM   18  C   UNL     1      27.315  40.948  47.912  1.00  0.00     0.012 A 
HETATM   19  C   UNL     1      27.527  39.649  47.433  1.00  0.00     0.038 A 
HETATM   20  C   UNL     1      28.134  38.687  48.241  1.00  0.00     0.074 A 
HETATM   21  C   UNL     1      28.569  39.036  49.527  1.00  0.00    -0.028 A 
HETATM   22  C   UNL     1      29.310  38.049  50.385  1.00  0.00     0.051 C 
HETATM   23  C   UNL     1      28.340  40.339  49.998  1.00  0.00     0.019 A 
BRANCH  20  24
HETATM   24  O   UNL     1      28.393  37.401  47.841  1.00  0.00    -0.355 OA
HETATM   25  C   UNL     1      28.755  37.242  46.474  1.00  0.00     0.210 C 
ENDBRANCH  20  24
ENDBRANCH   1  17
BRANCH   3  26
HETATM   26  C   UNL     1      23.703  43.076  50.594  1.00  0.00     0.108 C 
BRANCH  26  27
HETATM   27  C   UNL     1      22.801  43.095  49.353  1.00  0.00     0.051 C 
BRANCH  27  28
HETATM   28  C   UNL     1      22.313  44.465  48.997  1.00  0.00    -0.021 A 
HETATM   29  C   UNL     1      23.038  45.631  48.847  1.00  0.00     0.120 A 
HETATM   30  N   UNL     1      22.145  46.606  48.513  1.00  0.00    -0.285 N 
HETATM   31  C   UNL     1      22.439  47.991  48.242  1.00  0.00     0.179 C 
HETATM   32  N   UNL     1      20.877  46.165  48.447  1.00  0.00    -0.185 NA
HETATM   33  C   UNL     1      20.978  44.869  48.756  1.00  0.00     0.147 A 
ENDBRANCH  27  28
ENDBRANCH  26  27
ENDBRANCH   3  26
TORSDOF 5
ENDMDL
MODEL 10
REMARK VINA RESULT:      -8.0      6.243     11.947
REMARK  5 active torsions:
REMARK  status: ('A' for Active; 'I' for Inactive)
REMARK    1  A    between atoms: C_3  and  O_4 
REMARK    2  A    between atoms: C_8  and  C_9 
REMARK       I    between atoms: N_10  and  C_11 
REMARK    3  A    between atoms: C_11  and  C_12 
REMARK    4  A    between atoms: C_12  and  C_13 
REMARK    5  A    between atoms: C_13  and  C_14 
ROOT
HETATM    1  C   UNL     1      19.454  48.754  48.193  1.00  0.00     0.171 C 
HETATM    2  N   UNL     1      20.536  49.629  48.713  1.00  0.00    -0.338 N 
HETATM    3  C   UNL     1      21.764  49.656  48.038  1.00  0.00     0.221 C 
HETATM    4  O   UNL     1      22.095  48.806  47.210  1.00  0.00    -0.273 OA
HETATM    5  C   UNL     1      19.995  50.856  49.336  1.00  0.00     0.131 C 
HETATM    6  C   UNL     1      19.361  51.790  48.272  1.00  0.00     0.061 C 
HETATM    7  C   UNL     1      18.646  50.988  47.225  1.00  0.00    -0.019 A 
HETATM    8  C   UNL     1      18.714  49.602  47.185  1.00  0.00     0.044 A 
HETATM    9  N   UNL     1      17.942  49.176  46.141  1.00  0.00    -0.356 N 
HETATM   10  H   UNL     1      17.773  48.212  45.887  1.00  0.00     0.166 HD
HETATM   11  C   UNL     1      17.465  50.264  45.437  1.00  0.00     0.043 A 
HETATM   12  C   UNL     1      17.881  51.417  46.109  1.00  0.00    -0.001 A 
HETATM   13  C   UNL     1      16.702  50.313  44.264  1.00  0.00     0.030 A 
HETATM   14  C   UNL     1      16.353  51.575  43.769  1.00  0.00     0.002 A 
HETATM   15  C   UNL     1      16.747  52.739  44.425  1.00  0.00     0.001 A 
HETATM   16  C   UNL     1      17.509  52.675  45.596  1.00  0.00     0.014 A 
ENDROOT
BRANCH   1  17
HETATM   17  C   UNL     1      19.801  47.310  47.870  1.00  0.00    -0.029 A 
HETATM   18  C   UNL     1      20.248  46.382  48.820  1.00  0.00     0.012 A 
HETATM   19  C   UNL     1      20.569  45.068  48.453  1.00  0.00     0.038 A 
HETATM   20  C   UNL     1      20.433  44.649  47.129  1.00  0.00     0.074 A 
HETATM   21  C   UNL     1      19.933  45.540  46.169  1.00  0.00    -0.028 A 
HETATM   22  C   UNL     1      19.687  45.091  44.756  1.00  0.00     0.051 C 
HETATM   23  C   UNL     1      19.626  46.857  46.548  1.00  0.00     0.019 A 
BRANCH  20  24
HETATM   24  O   UNL     1      20.708  43.378  46.694  1.00  0.00    -0.355 OA
HETATM   25  C   UNL     1      22.002  42.883  47.017  1.00  0.00     0.210 C 
ENDBRANCH  20  24
ENDBRANCH   1  17
BRANCH   3  26
HETATM   26  C   UNL     1      22.755  50.757  48.408  1.00  0.00     0.108 C 
BRANCH  26  27
HETATM   27  C   UNL     1      24.091  50.609  47.670  1.00  0.00     0.051 C 
BRANCH  27  28
HETATM   28  C   UNL     1      25.077  49.749  48.399  1.00  0.00    -0.021 A 
HETATM   29  C   UNL     1      24.838  48.709  49.275  1.00  0.00     0.120 A 
HETATM   30  N   UNL     1      26.057  48.239  49.666  1.00  0.00    -0.285 N 
HETATM   31  C   UNL     1      26.312  47.146  50.570  1.00  0.00     0.179 C 
HETATM   32  N   UNL     1      27.085  48.909  49.118  1.00  0.00    -0.185 NA
HETATM   33  C   UNL     1      26.489  49.835  48.361  1.00  0.00     0.147 A 
ENDBRANCH  27  28
ENDBRANCH  26  27
ENDBRANCH   3  26
TORSDOF 5
ENDMDL
