MODEL 1
REMARK VINA RESULT:      -9.6      0.000      0.000
REMARK  7 active torsions:
REMARK  status: ('A' for Active; 'I' for Inactive)
REMARK    1  A    between atoms: N_7  and  C_8 
REMARK    2  A    between atoms: C_8  and  C_9 
REMARK       I    between atoms: C_9  and  N_10 
REMARK    3  A    between atoms: N_10  and  C_11 
REMARK    4  A    between atoms: C_11  and  C_12 
REMARK    5  A    between atoms: C_12  and  C_13 
REMARK    6  A    between atoms: C_12  and  C_23 
REMARK    7  A    between atoms: C_26  and  O_27 
ROOT
HETATM    1  C   UNL     1      24.961  44.330  51.946  1.00  0.00     0.136 C 
ENDROOT
BRANCH   1   2
HETATM    2  N   UNL     1      25.396  42.947  51.824  1.00  0.00    -0.359 N 
HETATM    3  C   UNL     1      25.252  42.261  50.636  1.00  0.00     0.236 C 
HETATM    4  O   UNL     1      24.765  42.767  49.628  1.00  0.00    -0.272 OA
HETATM    5  H   UNL     1      25.883  42.503  52.604  1.00  0.00     0.162 HD
BRANCH   3   6
HETATM    6  C   UNL     1      25.716  40.811  50.681  1.00  0.00     0.239 C 
BRANCH   6   7
HETATM    7  N   UNL     1      26.814  40.604  49.764  1.00  0.00    -0.259 N 
HETATM    8  C   UNL     1      28.121  40.743  50.099  1.00  0.00     0.326 A 
HETATM    9  N   UNL     1      28.892  40.409  49.014  1.00  0.00    -0.324 N 
HETATM   10  O   UNL     1      28.564  41.122  51.171  1.00  0.00    -0.247 OA
HETATM   11  C   UNL     1      28.099  40.049  47.849  1.00  0.00     0.119 A 
HETATM   12  H   UNL     1      29.901  40.468  49.051  1.00  0.00     0.165 HD
HETATM   13  C   UNL     1      28.402  38.601  47.398  1.00  0.00     0.019 C 
HETATM   14  C   UNL     1      26.686  40.215  48.460  1.00  0.00     0.257 A 
HETATM   15  C   UNL     1      28.334  41.081  46.737  1.00  0.00     0.041 C 
HETATM   16  C   UNL     1      28.033  37.536  48.440  1.00  0.00     0.013 C 
HETATM   17  C   UNL     1      27.734  38.262  46.055  1.00  0.00     0.007 C 
HETATM   18  C   UNL     1      28.073  39.287  44.978  1.00  0.00     0.001 C 
HETATM   19  C   UNL     1      27.689  40.696  45.408  1.00  0.00     0.003 C 
HETATM   20  O   UNL     1      25.633  40.008  47.873  1.00  0.00    -0.270 OA
ENDBRANCH   6   7
ENDBRANCH   3   6
ENDBRANCH   1   2
BRANCH   1  21
HETATM   21  C   UNL     1      26.097  45.362  51.802  1.00  0.00     0.071 C 
BRANCH  21  22
HETATM   22  C   UNL     1      26.497  46.031  53.098  1.00  0.00    -0.020 A 
HETATM   23  C   UNL     1      27.543  45.601  53.988  1.00  0.00    -0.001 A 
HETATM   24  C   UNL     1      27.590  46.501  55.053  1.00  0.00     0.042 A 
HETATM   25  C   UNL     1      28.464  44.532  53.979  1.00  0.00     0.014 A 
HETATM   26  C   UNL     1      28.510  46.391  56.102  1.00  0.00     0.030 A 
HETATM   27  N   UNL     1      26.606  47.435  54.835  1.00  0.00    -0.365 N 
HETATM   28  C   UNL     1      29.415  45.327  56.064  1.00  0.00     0.002 A 
HETATM   29  C   UNL     1      29.393  44.407  55.019  1.00  0.00     0.001 A 
HETATM   30  H   UNL     1      26.411  48.213  55.449  1.00  0.00     0.165 HD
HETATM   31  C   UNL     1      25.939  47.161  53.673  1.00  0.00     0.097 A 
ENDBRANCH  21  22
BRANCH  21  32
HETATM   32  C   UNL     1      25.785  46.507  50.845  1.00  0.00    -0.048 A 
HETATM   33  C   UNL     1      24.462  46.718  50.425  1.00  0.00     0.011 A 
HETATM   34  C   UNL     1      24.141  47.773  49.566  1.00  0.00     0.037 A 
HETATM   35  C   UNL     1      25.128  48.646  49.112  1.00  0.00     0.068 A 
HETATM   36  C   UNL     1      26.450  48.434  49.497  1.00  0.00     0.037 A 
HETATM   37  C   UNL     1      26.774  47.374  50.353  1.00  0.00     0.011 A 
BRANCH  35  38
HETATM   38  O   UNL     1      24.682  49.648  48.295  1.00  0.00    -0.356 OA
HETATM   39  C   UNL     1      23.463  50.279  48.671  1.00  0.00     0.210 C 
ENDBRANCH  35  38
ENDBRANCH  21  32
ENDBRANCH   1  21
TORSDOF 7
ENDMDL
MODEL 2
REMARK VINA RESULT:      -9.5      4.446      9.524
REMARK  7 active torsions:
REMARK  status: ('A' for Active; 'I' for Inactive)
REMARK    1  A    between atoms: N_7  and  C_8 
REMARK    2  A    between atoms: C_8  and  C_9 
REMARK       I    between atoms: C_9  and  N_10 
REMARK    3  A    between atoms: N_10  and  C_11 
REMARK    4  A    between atoms: C_11  and  C_12 
REMARK    5  A    between atoms: C_12  and  C_13 
REMARK    6  A    between atoms: C_12  and  C_23 
REMARK    7  A    between atoms: C_26  and  O_27 
ROOT
HETATM    1  C   UNL     1      23.798  45.082  49.656  1.00  0.00     0.136 C 
ENDROOT
BRANCH   1   2
HETATM    2  N   UNL     1      22.358  45.262  49.557  1.00  0.00    -0.359 N 
HETATM    3  C   UNL     1      21.783  45.760  48.407  1.00  0.00     0.236 C 
HETATM    4  O   UNL     1      22.437  46.070  47.414  1.00  0.00    -0.272 OA
HETATM    5  H   UNL     1      21.759  44.943  50.321  1.00  0.00     0.162 HD
BRANCH   3   6
HETATM    6  C   UNL     1      20.270  45.928  48.476  1.00  0.00     0.239 C 
BRANCH   6   7
HETATM    7  N   UNL     1      19.876  47.191  47.894  1.00  0.00    -0.259 N 
HETATM    8  C   UNL     1      19.517  47.351  46.595  1.00  0.00     0.326 A 
HETATM    9  N   UNL     1      19.141  48.656  46.400  1.00  0.00    -0.324 N 
HETATM   10  O   UNL     1      19.538  46.500  45.722  1.00  0.00    -0.247 OA
HETATM   11  C   UNL     1      19.269  49.465  47.602  1.00  0.00     0.119 A 
HETATM   12  H   UNL     1      18.858  48.988  45.488  1.00  0.00     0.165 HD
HETATM   13  C   UNL     1      17.903  50.059  48.019  1.00  0.00     0.019 C 
HETATM   14  C   UNL     1      19.783  48.374  48.573  1.00  0.00     0.257 A 
HETATM   15  C   UNL     1      20.342  50.540  47.378  1.00  0.00     0.041 C 
HETATM   16  C   UNL     1      16.856  49.002  48.395  1.00  0.00     0.013 C 
HETATM   17  C   UNL     1      18.041  51.078  49.162  1.00  0.00     0.007 C 
HETATM   18  C   UNL     1      19.068  52.158  48.839  1.00  0.00     0.001 C 
HETATM   19  C   UNL     1      20.428  51.557  48.513  1.00  0.00     0.003 C 
HETATM   20  O   UNL     1      20.038  48.544  49.757  1.00  0.00    -0.270 OA
ENDBRANCH   6   7
ENDBRANCH   3   6
ENDBRANCH   1   2
BRANCH   1  21
HETATM   21  C   UNL     1      24.489  46.060  50.626  1.00  0.00     0.071 C 
BRANCH  21  22
HETATM   22  C   UNL     1      25.422  47.043  49.957  1.00  0.00    -0.020 A 
HETATM   23  C   UNL     1      25.037  48.255  49.282  1.00  0.00    -0.001 A 
HETATM   24  C   UNL     1      26.201  48.872  48.822  1.00  0.00     0.042 A 
HETATM   25  C   UNL     1      23.803  48.889  49.028  1.00  0.00     0.014 A 
HETATM   26  C   UNL     1      26.195  50.089  48.130  1.00  0.00     0.030 A 
HETATM   27  N   UNL     1      27.255  48.068  49.185  1.00  0.00    -0.365 N 
HETATM   28  C   UNL     1      24.959  50.698  47.900  1.00  0.00     0.002 A 
HETATM   29  C   UNL     1      23.777  50.108  48.340  1.00  0.00     0.001 A 
HETATM   30  H   UNL     1      28.224  48.271  48.984  1.00  0.00     0.165 HD
HETATM   31  C   UNL     1      26.802  46.967  49.859  1.00  0.00     0.097 A 
ENDBRANCH  21  22
BRANCH  21  32
HETATM   32  C   UNL     1      25.331  45.385  51.702  1.00  0.00    -0.048 A 
HETATM   33  C   UNL     1      25.820  44.086  51.487  1.00  0.00     0.011 A 
HETATM   34  C   UNL     1      26.614  43.449  52.445  1.00  0.00     0.037 A 
HETATM   35  C   UNL     1      26.945  44.093  53.636  1.00  0.00     0.068 A 
HETATM   36  C   UNL     1      26.446  45.370  53.878  1.00  0.00     0.037 A 
HETATM   37  C   UNL     1      25.646  46.008  52.921  1.00  0.00     0.011 A 
BRANCH  35  38
HETATM   38  O   UNL     1      27.744  43.371  54.480  1.00  0.00    -0.356 OA
HETATM   39  C   UNL     1      29.099  43.792  54.588  1.00  0.00     0.210 C 
ENDBRANCH  35  38
ENDBRANCH  21  32
ENDBRANCH   1  21
TORSDOF 7
ENDMDL
MODEL 3
REMARK VINA RESULT:      -9.3      4.480      8.480
REMARK  7 active torsions:
REMARK  status: ('A' for Active; 'I' for Inactive)
REMARK    1  A    between atoms: N_7  and  C_8 
REMARK    2  A    between atoms: C_8  and  C_9 
REMARK       I    between atoms: C_9  and  N_10 
REMARK    3  A    between atoms: N_10  and  C_11 
REMARK    4  A    between atoms: C_11  and  C_12 
REMARK    5  A    between atoms: C_12  and  C_13 
REMARK    6  A    between atoms: C_12  and  C_23 
REMARK    7  A    between atoms: C_26  and  O_27 
ROOT
HETATM    1  C   UNL     1      24.610  44.734  50.442  1.00  0.00     0.136 C 
ENDROOT
BRANCH   1   2
HETATM    2  N   UNL     1      23.766  44.670  49.259  1.00  0.00    -0.359 N 
HETATM    3  C   UNL     1      22.491  44.148  49.325  1.00  0.00     0.236 C 
HETATM    4  O   UNL     1      21.998  43.722  50.366  1.00  0.00    -0.272 OA
HETATM    5  H   UNL     1      24.094  45.086  48.385  1.00  0.00     0.162 HD
BRANCH   3   6
HETATM    6  C   UNL     1      21.750  44.113  47.994  1.00  0.00     0.239 C 
BRANCH   6   7
HETATM    7  N   UNL     1      21.038  45.352  47.780  1.00  0.00    -0.259 N 
HETATM    8  C   UNL     1      21.595  46.468  47.246  1.00  0.00     0.326 A 
HETATM    9  N   UNL     1      20.624  47.430  47.125  1.00  0.00    -0.324 N 
HETATM   10  O   UNL     1      22.765  46.623  46.937  1.00  0.00    -0.247 OA
HETATM   11  C   UNL     1      19.331  46.991  47.624  1.00  0.00     0.119 A 
HETATM   12  H   UNL     1      20.841  48.350  46.766  1.00  0.00     0.165 HD
HETATM   13  C   UNL     1      18.263  47.028  46.506  1.00  0.00     0.019 C 
HETATM   14  C   UNL     1      19.714  45.554  48.056  1.00  0.00     0.257 A 
HETATM   15  C   UNL     1      18.944  47.839  48.845  1.00  0.00     0.041 C 
HETATM   16  C   UNL     1      18.552  46.073  45.340  1.00  0.00     0.013 C 
HETATM   17  C   UNL     1      16.848  46.766  47.049  1.00  0.00     0.007 C 
HETATM   18  C   UNL     1      16.504  47.694  48.209  1.00  0.00     0.001 C 
HETATM   19  C   UNL     1      17.522  47.580  49.335  1.00  0.00     0.003 C 
HETATM   20  O   UNL     1      18.948  44.733  48.540  1.00  0.00    -0.270 OA
ENDBRANCH   6   7
ENDBRANCH   3   6
ENDBRANCH   1   2
BRANCH   1  21
HETATM   21  C   UNL     1      24.690  46.133  51.083  1.00  0.00     0.071 C 
BRANCH  21  22
HETATM   22  C   UNL     1      25.269  47.199  50.180  1.00  0.00    -0.020 A 
HETATM   23  C   UNL     1      24.539  48.270  49.555  1.00  0.00    -0.001 A 
HETATM   24  C   UNL     1      25.449  49.031  48.821  1.00  0.00     0.042 A 
HETATM   25  C   UNL     1      23.186  48.669  49.555  1.00  0.00     0.014 A 
HETATM   26  C   UNL     1      25.079  50.169  48.095  1.00  0.00     0.030 A 
HETATM   27  N   UNL     1      26.683  48.445  48.976  1.00  0.00    -0.365 N 
HETATM   28  C   UNL     1      23.733  50.545  48.119  1.00  0.00     0.002 A 
HETATM   29  C   UNL     1      22.797  49.806  48.837  1.00  0.00     0.001 A 
HETATM   30  H   UNL     1      27.535  48.788  48.556  1.00  0.00     0.165 HD
HETATM   31  C   UNL     1      26.588  47.344  49.781  1.00  0.00     0.097 A 
ENDBRANCH  21  22
BRANCH  21  32
HETATM   32  C   UNL     1      25.529  46.192  52.354  1.00  0.00    -0.048 A 
HETATM   33  C   UNL     1      26.313  45.085  52.720  1.00  0.00     0.011 A 
HETATM   34  C   UNL     1      27.110  45.118  53.867  1.00  0.00     0.037 A 
HETATM   35  C   UNL     1      27.152  46.255  54.673  1.00  0.00     0.068 A 
HETATM   36  C   UNL     1      26.361  47.351  54.339  1.00  0.00     0.037 A 
HETATM   37  C   UNL     1      25.556  47.318  53.193  1.00  0.00     0.011 A 
BRANCH  35  38
HETATM   38  O   UNL     1      27.987  46.167  55.753  1.00  0.00    -0.356 OA
HETATM   39  C   UNL     1      29.242  45.533  55.536  1.00  0.00     0.210 C 
ENDBRANCH  35  38
ENDBRANCH  21  32
ENDBRANCH   1  21
TORSDOF 7
ENDMDL
MODEL 4
REMARK VINA RESULT:      -9.3      4.355      9.133
REMARK  7 active torsions:
REMARK  status: ('A' for Active; 'I' for Inactive)
REMARK    1  A    between atoms: N_7  and  C_8 
REMARK    2  A    between atoms: C_8  and  C_9 
REMARK       I    between atoms: C_9  and  N_10 
REMARK    3  A    between atoms: N_10  and  C_11 
REMARK    4  A    between atoms: C_11  and  C_12 
REMARK    5  A    between atoms: C_12  and  C_13 
REMARK    6  A    between atoms: C_12  and  C_23 
REMARK    7  A    between atoms: C_26  and  O_27 
ROOT
HETATM    1  C   UNL     1      24.973  48.245  49.346  1.00  0.00     0.136 C 
ENDROOT
BRANCH   1   2
HETATM    2  N   UNL     1      23.982  49.307  49.285  1.00  0.00    -0.359 N 
HETATM    3  C   UNL     1      23.944  50.181  48.219  1.00  0.00     0.236 C 
HETATM    4  O   UNL     1      24.723  50.113  47.272  1.00  0.00    -0.272 OA
HETATM    5  H   UNL     1      23.257  49.360  50.004  1.00  0.00     0.162 HD
BRANCH   3   6
HETATM    6  C   UNL     1      22.875  51.263  48.323  1.00  0.00     0.239 C 
BRANCH   6   7
HETATM    7  N   UNL     1      21.708  50.753  49.007  1.00  0.00    -0.259 N 
HETATM    8  C   UNL     1      21.510  50.846  50.346  1.00  0.00     0.326 A 
HETATM    9  N   UNL     1      20.277  50.324  50.645  1.00  0.00    -0.324 N 
HETATM   10  O   UNL     1      22.290  51.293  51.170  1.00  0.00    -0.247 OA
HETATM   11  C   UNL     1      19.583  49.809  49.475  1.00  0.00     0.119 A 
HETATM   12  H   UNL     1      19.946  50.278  51.600  1.00  0.00     0.165 HD
HETATM   13  C   UNL     1      18.240  50.545  49.258  1.00  0.00     0.019 C 
HETATM   14  C   UNL     1      20.645  50.146  48.399  1.00  0.00     0.257 A 
HETATM   15  C   UNL     1      19.414  48.289  49.613  1.00  0.00     0.041 C 
HETATM   16  C   UNL     1      18.393  52.044  48.968  1.00  0.00     0.013 C 
HETATM   17  C   UNL     1      17.393  49.889  48.155  1.00  0.00     0.007 C 
HETATM   18  C   UNL     1      17.203  48.396  48.397  1.00  0.00     0.001 C 
HETATM   19  C   UNL     1      18.539  47.676  48.523  1.00  0.00     0.003 C 
HETATM   20  O   UNL     1      20.533  49.924  47.202  1.00  0.00    -0.270 OA
ENDBRANCH   6   7
ENDBRANCH   3   6
ENDBRANCH   1   2
BRANCH   1  21
HETATM   21  C   UNL     1      24.493  46.978  50.083  1.00  0.00     0.071 C 
BRANCH  21  22
HETATM   22  C   UNL     1      25.596  46.002  50.423  1.00  0.00    -0.020 A 
HETATM   23  C   UNL     1      26.018  45.626  51.747  1.00  0.00    -0.001 A 
HETATM   24  C   UNL     1      27.049  44.695  51.614  1.00  0.00     0.042 A 
HETATM   25  C   UNL     1      25.608  45.984  53.048  1.00  0.00     0.014 A 
HETATM   26  C   UNL     1      27.685  44.103  52.711  1.00  0.00     0.030 A 
HETATM   27  N   UNL     1      27.263  44.519  50.268  1.00  0.00    -0.365 N 
HETATM   28  C   UNL     1      27.254  44.471  53.988  1.00  0.00     0.002 A 
HETATM   29  C   UNL     1      26.231  45.400  54.157  1.00  0.00     0.001 A 
HETATM   30  H   UNL     1      27.954  43.894  49.877  1.00  0.00     0.165 HD
HETATM   31  C   UNL     1      26.405  45.300  49.544  1.00  0.00     0.097 A 
ENDBRANCH  21  22
BRANCH  21  32
HETATM   32  C   UNL     1      23.463  46.159  49.313  1.00  0.00    -0.048 A 
HETATM   33  C   UNL     1      23.212  44.830  49.690  1.00  0.00     0.011 A 
HETATM   34  C   UNL     1      22.257  44.061  49.018  1.00  0.00     0.037 A 
HETATM   35  C   UNL     1      21.526  44.599  47.960  1.00  0.00     0.068 A 
HETATM   36  C   UNL     1      21.783  45.907  47.556  1.00  0.00     0.037 A 
HETATM   37  C   UNL     1      22.743  46.677  48.224  1.00  0.00     0.011 A 
BRANCH  35  38
HETATM   38  O   UNL     1      20.610  43.752  47.402  1.00  0.00    -0.356 OA
HETATM   39  C   UNL     1      19.496  44.356  46.755  1.00  0.00     0.210 C 
ENDBRANCH  35  38
ENDBRANCH  21  32
ENDBRANCH   1  21
TORSDOF 7
ENDMDL
MODEL 5
REMARK VINA RESULT:      -9.2     11.242     13.640
REMARK  7 active torsions:
REMARK  status: ('A' for Active; 'I' for Inactive)
REMARK    1  A    between atoms: N_7  and  C_8 
REMARK    2  A    between atoms: C_8  and  C_9 
REMARK       I    between atoms: C_9  and  N_10 
REMARK    3  A    between atoms: N_10  and  C_11 
REMARK    4  A    between atoms: C_11  and  C_12 
REMARK    5  A    between atoms: C_12  and  C_13 
REMARK    6  A    between atoms: C_12  and  C_23 
REMARK    7  A    between atoms: C_26  and  O_27 
ROOT
HETATM    1  C   UNL     1      32.606  48.275  40.881  1.00  0.00     0.136 C 
ENDROOT
BRANCH   1   2
HETATM    2  N   UNL     1      31.403  47.458  40.892  1.00  0.00    -0.359 N 
HETATM    3  C   UNL     1      30.598  47.367  39.776  1.00  0.00     0.236 C 
HETATM    4  O   UNL     1      30.846  47.950  38.724  1.00  0.00    -0.272 OA
HETATM    5  H   UNL     1      31.192  46.886  41.711  1.00  0.00     0.162 HD
BRANCH   3   6
HETATM    6  C   UNL     1      29.354  46.506  39.960  1.00  0.00     0.239 C 
BRANCH   6   7
HETATM    7  N   UNL     1      28.203  47.337  40.235  1.00  0.00    -0.259 N 
HETATM    8  C   UNL     1      28.089  48.145  41.318  1.00  0.00     0.326 A 
HETATM    9  N   UNL     1      26.907  48.835  41.231  1.00  0.00    -0.324 N 
HETATM   10  O   UNL     1      28.881  48.244  42.241  1.00  0.00    -0.247 OA
HETATM   11  C   UNL     1      26.132  48.479  40.053  1.00  0.00     0.119 A 
HETATM   12  H   UNL     1      26.621  49.478  41.957  1.00  0.00     0.165 HD
HETATM   13  C   UNL     1      25.897  49.711  39.149  1.00  0.00     0.019 C 
HETATM   14  C   UNL     1      27.101  47.442  39.433  1.00  0.00     0.257 A 
HETATM   15  C   UNL     1      24.824  47.804  40.491  1.00  0.00     0.041 C 
HETATM   16  C   UNL     1      27.187  50.314  38.575  1.00  0.00     0.013 C 
HETATM   17  C   UNL     1      24.915  49.411  38.005  1.00  0.00     0.007 C 
HETATM   18  C   UNL     1      23.610  48.815  38.521  1.00  0.00     0.001 C 
HETATM   19  C   UNL     1      23.856  47.554  39.337  1.00  0.00     0.003 C 
HETATM   20  O   UNL     1      26.915  46.839  38.386  1.00  0.00    -0.270 OA
ENDBRANCH   6   7
ENDBRANCH   3   6
ENDBRANCH   1   2
BRANCH   1  21
HETATM   21  C   UNL     1      32.416  49.685  41.474  1.00  0.00     0.071 C 
BRANCH  21  22
HETATM   22  C   UNL     1      31.841  50.694  40.507  1.00  0.00    -0.020 A 
HETATM   23  C   UNL     1      30.628  51.448  40.688  1.00  0.00    -0.001 A 
HETATM   24  C   UNL     1      30.470  52.270  39.572  1.00  0.00     0.042 A 
HETATM   25  C   UNL     1      29.654  51.514  41.706  1.00  0.00     0.014 A 
HETATM   26  C   UNL     1      29.396  53.156  39.425  1.00  0.00     0.030 A 
HETATM   27  N   UNL     1      31.531  52.022  38.734  1.00  0.00    -0.365 N 
HETATM   28  C   UNL     1      28.450  53.206  40.452  1.00  0.00     0.002 A 
HETATM   29  C   UNL     1      28.574  52.395  41.577  1.00  0.00     0.001 A 
HETATM   30  H   UNL     1      31.677  52.482  37.846  1.00  0.00     0.165 HD
HETATM   31  C   UNL     1      32.355  51.076  39.278  1.00  0.00     0.097 A 
ENDBRANCH  21  22
BRANCH  21  32
HETATM   32  C   UNL     1      33.698  50.323  41.996  1.00  0.00    -0.048 A 
HETATM   33  C   UNL     1      33.625  51.320  42.982  1.00  0.00     0.011 A 
HETATM   34  C   UNL     1      34.785  51.907  43.496  1.00  0.00     0.037 A 
HETATM   35  C   UNL     1      36.043  51.511  43.046  1.00  0.00     0.068 A 
HETATM   36  C   UNL     1      36.132  50.543  42.048  1.00  0.00     0.037 A 
HETATM   37  C   UNL     1      34.971  49.958  41.528  1.00  0.00     0.011 A 
BRANCH  35  38
HETATM   38  O   UNL     1      37.097  52.147  43.643  1.00  0.00    -0.356 OA
HETATM   39  C   UNL     1      36.798  53.346  44.349  1.00  0.00     0.210 C 
ENDBRANCH  35  38
ENDBRANCH  21  32
ENDBRANCH   1  21
TORSDOF 7
ENDMDL
MODEL 6
REMARK VINA RESULT:      -9.1      4.671      8.835
REMARK  7 active torsions:
REMARK  status: ('A' for Active; 'I' for Inactive)
REMARK    1  A    between atoms: N_7  and  C_8 
REMARK    2  A    between atoms: C_8  and  C_9 
REMARK       I    between atoms: C_9  and  N_10 
REMARK    3  A    between atoms: N_10  and  C_11 
REMARK    4  A    between atoms: C_11  and  C_12 
REMARK    5  A    between atoms: C_12  and  C_13 
REMARK    6  A    between atoms: C_12  and  C_23 
REMARK    7  A    between atoms: C_26  and  O_27 
ROOT
HETATM    1  C   UNL     1      24.183  45.019  50.190  1.00  0.00     0.136 C 
ENDROOT
BRANCH   1   2
HETATM    2  N   UNL     1      23.526  45.196  48.905  1.00  0.00    -0.359 N 
HETATM    3  C   UNL     1      22.249  44.721  48.689  1.00  0.00     0.236 C 
HETATM    4  O   UNL     1      21.599  44.138  49.553  1.00  0.00    -0.272 OA
HETATM    5  H   UNL     1      23.986  45.746  48.177  1.00  0.00     0.162 HD
BRANCH   3   6
HETATM    6  C   UNL     1      21.717  44.948  47.279  1.00  0.00     0.239 C 
BRANCH   6   7
HETATM    7  N   UNL     1      20.515  45.750  47.317  1.00  0.00    -0.259 N 
HETATM    8  C   UNL     1      19.279  45.254  47.575  1.00  0.00     0.326 A 
HETATM    9  N   UNL     1      18.384  46.294  47.599  1.00  0.00    -0.324 N 
HETATM   10  O   UNL     1      18.981  44.083  47.738  1.00  0.00    -0.247 OA
HETATM   11  C   UNL     1      19.005  47.578  47.315  1.00  0.00     0.119 A 
HETATM   12  H   UNL     1      17.398  46.133  47.754  1.00  0.00     0.165 HD
HETATM   13  C   UNL     1      18.825  48.556  48.500  1.00  0.00     0.019 C 
HETATM   14  C   UNL     1      20.468  47.103  47.132  1.00  0.00     0.257 A 
HETATM   15  C   UNL     1      18.446  48.131  45.996  1.00  0.00     0.041 C 
HETATM   16  C   UNL     1      19.507  48.094  49.795  1.00  0.00     0.013 C 
HETATM   17  C   UNL     1      19.291  49.979  48.151  1.00  0.00     0.007 C 
HETATM   18  C   UNL     1      18.637  50.492  46.872  1.00  0.00     0.001 C 
HETATM   19  C   UNL     1      18.898  49.558  45.698  1.00  0.00     0.003 C 
HETATM   20  O   UNL     1      21.421  47.828  46.887  1.00  0.00    -0.270 OA
ENDBRANCH   6   7
ENDBRANCH   3   6
ENDBRANCH   1   2
BRANCH   1  21
HETATM   21  C   UNL     1      24.514  46.339  50.914  1.00  0.00     0.071 C 
BRANCH  21  22
HETATM   22  C   UNL     1      25.169  47.381  50.037  1.00  0.00    -0.020 A 
HETATM   23  C   UNL     1      24.514  48.504  49.420  1.00  0.00    -0.001 A 
HETATM   24  C   UNL     1      25.479  49.221  48.711  1.00  0.00     0.042 A 
HETATM   25  C   UNL     1      23.188  48.984  49.408  1.00  0.00     0.014 A 
HETATM   26  C   UNL     1      25.189  50.390  47.999  1.00  0.00     0.030 A 
HETATM   27  N   UNL     1      26.673  48.559  48.874  1.00  0.00    -0.365 N 
HETATM   28  C   UNL     1      23.868  50.846  48.011  1.00  0.00     0.002 A 
HETATM   29  C   UNL     1      22.879  50.153  48.703  1.00  0.00     0.001 A 
HETATM   30  H   UNL     1      27.550  48.857  48.471  1.00  0.00     0.165 HD
HETATM   31  C   UNL     1      26.500  47.453  49.659  1.00  0.00     0.097 A 
ENDBRANCH  21  22
BRANCH  21  32
HETATM   32  C   UNL     1      25.450  46.180  52.107  1.00  0.00    -0.048 A 
HETATM   33  C   UNL     1      25.563  47.221  53.044  1.00  0.00     0.011 A 
HETATM   34  C   UNL     1      26.395  47.095  54.160  1.00  0.00     0.037 A 
HETATM   35  C   UNL     1      27.129  45.929  54.373  1.00  0.00     0.068 A 
HETATM   36  C   UNL     1      27.050  44.899  53.439  1.00  0.00     0.037 A 
HETATM   37  C   UNL     1      26.221  45.025  52.317  1.00  0.00     0.011 A 
BRANCH  35  38
HETATM   38  O   UNL     1      27.888  45.924  55.511  1.00  0.00    -0.356 OA
HETATM   39  C   UNL     1      29.184  45.349  55.408  1.00  0.00     0.210 C 
ENDBRANCH  35  38
ENDBRANCH  21  32
ENDBRANCH   1  21
TORSDOF 7
ENDMDL
MODEL 7
REMARK VINA RESULT:      -9.1      1.743      2.748
REMARK  7 active torsions:
REMARK  status: ('A' for Active; 'I' for Inactive)
REMARK    1  A    between atoms: N_7  and  C_8 
REMARK    2  A    between atoms: C_8  and  C_9 
REMARK       I    between atoms: C_9  and  N_10 
REMARK    3  A    between atoms: N_10  and  C_11 
REMARK    4  A    between atoms: C_11  and  C_12 
REMARK    5  A    between atoms: C_12  and  C_13 
REMARK    6  A    between atoms: C_12  and  C_23 
REMARK    7  A    between atoms: C_26  and  O_27 
ROOT
HETATM    1  C   UNL     1      26.263  43.146  50.217  1.00  0.00     0.136 C 
ENDROOT
BRANCH   1   2
HETATM    2  N   UNL     1      27.175  42.171  49.640  1.00  0.00    -0.359 N 
HETATM    3  C   UNL     1      27.141  40.849  50.033  1.00  0.00     0.236 C 
HETATM    4  O   UNL     1      26.351  40.422  50.871  1.00  0.00    -0.272 OA
HETATM    5  H   UNL     1      27.796  42.453  48.879  1.00  0.00     0.162 HD
BRANCH   3   6
HETATM    6  C   UNL     1      28.187  39.963  49.367  1.00  0.00     0.239 C 
BRANCH   6   7
HETATM    7  N   UNL     1      27.749  39.573  48.045  1.00  0.00    -0.259 N 
HETATM    8  C   UNL     1      27.040  38.448  47.780  1.00  0.00     0.326 A 
HETATM    9  N   UNL     1      26.736  38.423  46.443  1.00  0.00    -0.324 N 
HETATM   10  O   UNL     1      26.730  37.575  48.575  1.00  0.00    -0.247 OA
HETATM   11  C   UNL     1      27.280  39.562  45.721  1.00  0.00     0.119 A 
HETATM   12  H   UNL     1      26.227  37.650  46.036  1.00  0.00     0.165 HD
HETATM   13  C   UNL     1      26.152  40.389  45.059  1.00  0.00     0.019 C 
HETATM   14  C   UNL     1      27.960  40.294  46.904  1.00  0.00     0.257 A 
HETATM   15  C   UNL     1      28.328  39.071  44.712  1.00  0.00     0.041 C 
HETATM   16  C   UNL     1      25.174  41.019  46.062  1.00  0.00     0.013 C 
HETATM   17  C   UNL     1      26.705  41.478  44.125  1.00  0.00     0.007 C 
HETATM   18  C   UNL     1      27.680  40.906  43.102  1.00  0.00     0.001 C 
HETATM   19  C   UNL     1      28.829  40.168  43.777  1.00  0.00     0.003 C 
HETATM   20  O   UNL     1      28.565  41.354  46.826  1.00  0.00    -0.270 OA
ENDBRANCH   6   7
ENDBRANCH   3   6
ENDBRANCH   1   2
BRANCH   1  21
HETATM   21  C   UNL     1      26.930  44.482  50.600  1.00  0.00     0.071 C 
BRANCH  21  22
HETATM   22  C   UNL     1      27.249  44.617  52.071  1.00  0.00    -0.020 A 
HETATM   23  C   UNL     1      28.358  44.008  52.759  1.00  0.00    -0.001 A 
HETATM   24  C   UNL     1      28.292  44.399  54.097  1.00  0.00     0.042 A 
HETATM   25  C   UNL     1      29.418  43.167  52.362  1.00  0.00     0.014 A 
HETATM   26  C   UNL     1      29.232  43.998  55.053  1.00  0.00     0.030 A 
HETATM   27  N   UNL     1      27.184  45.201  54.229  1.00  0.00    -0.365 N 
HETATM   28  C   UNL     1      30.277  43.171  54.631  1.00  0.00     0.002 A 
HETATM   29  C   UNL     1      30.370  42.758  53.305  1.00  0.00     0.001 A 
HETATM   30  H   UNL     1      26.891  45.632  55.095  1.00  0.00     0.165 HD
HETATM   31  C   UNL     1      26.547  45.334  53.026  1.00  0.00     0.097 A 
ENDBRANCH  21  22
BRANCH  21  32
HETATM   32  C   UNL     1      26.102  45.716  50.259  1.00  0.00    -0.048 A 
HETATM   33  C   UNL     1      26.747  46.941  50.023  1.00  0.00     0.011 A 
HETATM   34  C   UNL     1      26.016  48.084  49.686  1.00  0.00     0.037 A 
HETATM   35  C   UNL     1      24.628  48.033  49.570  1.00  0.00     0.068 A 
HETATM   36  C   UNL     1      23.971  46.832  49.828  1.00  0.00     0.037 A 
HETATM   37  C   UNL     1      24.700  45.687  50.171  1.00  0.00     0.011 A 
BRANCH  35  38
HETATM   38  O   UNL     1      24.035  49.213  49.215  1.00  0.00    -0.356 OA
HETATM   39  C   UNL     1      22.613  49.216  49.154  1.00  0.00     0.210 C 
ENDBRANCH  35  38
ENDBRANCH  21  32
ENDBRANCH   1  21
TORSDOF 7
ENDMDL
MODEL 8
REMARK VINA RESULT:      -9.0     10.916     13.059
REMARK  7 active torsions:
REMARK  status: ('A' for Active; 'I' for Inactive)
REMARK    1  A    between atoms: N_7  and  C_8 
REMARK    2  A    between atoms: C_8  and  C_9 
REMARK       I    between atoms: C_9  and  N_10 
REMARK    3  A    between atoms: N_10  and  C_11 
REMARK    4  A    between atoms: C_11  and  C_12 
REMARK    5  A    between atoms: C_12  and  C_13 
REMARK    6  A    between atoms: C_12  and  C_23 
REMARK    7  A    between atoms: C_26  and  O_27 
ROOT
HETATM    1  C   UNL     1      31.789  47.887  40.425  1.00  0.00     0.136 C 
ENDROOT
BRANCH   1   2
HETATM    2  N   UNL     1      30.790  47.919  39.369  1.00  0.00    -0.359 N 
HETATM    3  C   UNL     1      29.995  46.822  39.110  1.00  0.00     0.236 C 
HETATM    4  O   UNL     1      30.076  45.775  39.746  1.00  0.00    -0.272 OA
HETATM    5  H   UNL     1      30.622  48.791  38.864  1.00  0.00     0.162 HD
BRANCH   3   6
HETATM    6  C   UNL     1      29.027  47.000  37.947  1.00  0.00     0.239 C 
BRANCH   6   7
HETATM    7  N   UNL     1      27.755  47.497  38.421  1.00  0.00    -0.259 N 
HETATM    8  C   UNL     1      27.375  48.797  38.357  1.00  0.00     0.326 A 
HETATM    9  N   UNL     1      26.092  48.904  38.831  1.00  0.00    -0.324 N 
HETATM   10  O   UNL     1      28.049  49.737  37.969  1.00  0.00    -0.247 OA
HETATM   11  C   UNL     1      25.549  47.633  39.281  1.00  0.00     0.119 A 
HETATM   12  H   UNL     1      25.628  49.801  38.888  1.00  0.00     0.165 HD
HETATM   13  C   UNL     1      24.281  47.255  38.479  1.00  0.00     0.019 C 
HETATM   14  C   UNL     1      26.765  46.727  38.962  1.00  0.00     0.257 A 
HETATM   15  C   UNL     1      25.300  47.694  40.794  1.00  0.00     0.041 C 
HETATM   16  C   UNL     1      24.535  47.040  36.981  1.00  0.00     0.013 C 
HETATM   17  C   UNL     1      23.572  46.023  39.065  1.00  0.00     0.007 C 
HETATM   18  C   UNL     1      23.289  46.186  40.554  1.00  0.00     0.001 C 
HETATM   19  C   UNL     1      24.562  46.473  41.337  1.00  0.00     0.003 C 
HETATM   20  O   UNL     1      26.813  45.519  39.146  1.00  0.00    -0.270 OA
ENDBRANCH   6   7
ENDBRANCH   3   6
ENDBRANCH   1   2
BRANCH   1  21
HETATM   21  C   UNL     1      31.358  48.599  41.722  1.00  0.00     0.071 C 
BRANCH  21  22
HETATM   22  C   UNL     1      30.045  49.339  41.617  1.00  0.00    -0.020 A 
HETATM   23  C   UNL     1      29.829  50.596  40.948  1.00  0.00    -0.001 A 
HETATM   24  C   UNL     1      28.478  50.917  41.075  1.00  0.00     0.042 A 
HETATM   25  C   UNL     1      30.661  51.485  40.235  1.00  0.00     0.014 A 
HETATM   26  C   UNL     1      27.915  52.075  40.524  1.00  0.00     0.030 A 
HETATM   27  N   UNL     1      27.890  49.911  41.803  1.00  0.00    -0.365 N 
HETATM   28  C   UNL     1      28.761  52.934  39.817  1.00  0.00     0.002 A 
HETATM   29  C   UNL     1      30.116  52.646  39.675  1.00  0.00     0.001 A 
HETATM   30  H   UNL     1      26.910  49.879  42.047  1.00  0.00     0.165 HD
HETATM   31  C   UNL     1      28.818  48.964  42.140  1.00  0.00     0.097 A 
ENDBRANCH  21  22
BRANCH  21  32
HETATM   32  C   UNL     1      32.356  49.634  42.229  1.00  0.00    -0.048 A 
HETATM   33  C   UNL     1      32.024  50.434  43.335  1.00  0.00     0.011 A 
HETATM   34  C   UNL     1      32.928  51.375  43.837  1.00  0.00     0.037 A 
HETATM   35  C   UNL     1      34.184  51.536  43.255  1.00  0.00     0.068 A 
HETATM   36  C   UNL     1      34.518  50.770  42.141  1.00  0.00     0.037 A 
HETATM   37  C   UNL     1      33.612  49.831  41.633  1.00  0.00     0.011 A 
BRANCH  35  38
HETATM   38  O   UNL     1      34.981  52.474  43.853  1.00  0.00    -0.356 OA
HETATM   39  C   UNL     1      36.385  52.302  43.705  1.00  0.00     0.210 C 
ENDBRANCH  35  38
ENDBRANCH  21  32
ENDBRANCH   1  21
TORSDOF 7
ENDMDL
MODEL 9
REMARK VINA RESULT:      -9.0      2.257      5.044
REMARK  7 active torsions:
REMARK  status: ('A' for Active; 'I' for Inactive)
REMARK    1  A    between atoms: N_7  and  C_8 
REMARK    2  A    between atoms: C_8  and  C_9 
REMARK       I    between atoms: C_9  and  N_10 
REMARK    3  A    between atoms: N_10  and  C_11 
REMARK    4  A    between atoms: C_11  and  C_12 
REMARK    5  A    between atoms: C_12  and  C_13 
REMARK    6  A    between atoms: C_12  and  C_23 
REMARK    7  A    between atoms: C_26  and  O_27 
ROOT
HETATM    1  C   UNL     1      25.871  44.545  49.849  1.00  0.00     0.136 C 
ENDROOT
BRANCH   1   2
HETATM    2  N   UNL     1      25.275  43.221  49.754  1.00  0.00    -0.359 N 
HETATM    3  C   UNL     1      24.423  42.900  48.718  1.00  0.00     0.236 C 
HETATM    4  O   UNL     1      24.128  43.692  47.827  1.00  0.00    -0.272 OA
HETATM    5  H   UNL     1      25.551  42.497  50.420  1.00  0.00     0.162 HD
BRANCH   3   6
HETATM    6  C   UNL     1      23.850  41.490  48.782  1.00  0.00     0.239 C 
BRANCH   6   7
HETATM    7  N   UNL     1      24.786  40.539  48.227  1.00  0.00    -0.259 N 
HETATM    8  C   UNL     1      24.734  40.076  46.953  1.00  0.00     0.326 A 
HETATM    9  N   UNL     1      25.806  39.246  46.743  1.00  0.00    -0.324 N 
HETATM   10  O   UNL     1      23.877  40.322  46.121  1.00  0.00    -0.247 OA
HETATM   11  C   UNL     1      26.637  39.087  47.925  1.00  0.00     0.119 A 
HETATM   12  H   UNL     1      25.939  38.777  45.856  1.00  0.00     0.165 HD
HETATM   13  C   UNL     1      28.083  39.568  47.657  1.00  0.00     0.019 C 
HETATM   14  C   UNL     1      25.856  40.011  48.893  1.00  0.00     0.257 A 
HETATM   15  C   UNL     1      26.574  37.628  48.398  1.00  0.00     0.041 C 
HETATM   16  C   UNL     1      28.188  41.064  47.329  1.00  0.00     0.013 C 
HETATM   17  C   UNL     1      29.031  39.227  48.818  1.00  0.00     0.007 C 
HETATM   18  C   UNL     1      28.971  37.748  49.183  1.00  0.00     0.001 C 
HETATM   19  C   UNL     1      27.553  37.314  49.526  1.00  0.00     0.003 C 
HETATM   20  O   UNL     1      26.165  40.241  50.053  1.00  0.00    -0.270 OA
ENDBRANCH   6   7
ENDBRANCH   3   6
ENDBRANCH   1   2
BRANCH   1  21
HETATM   21  C   UNL     1      25.054  45.544  50.692  1.00  0.00     0.071 C 
BRANCH  21  22
HETATM   22  C   UNL     1      24.752  46.847  49.988  1.00  0.00    -0.020 A 
HETATM   23  C   UNL     1      25.717  47.829  49.570  1.00  0.00    -0.001 A 
HETATM   24  C   UNL     1      25.022  48.869  48.950  1.00  0.00     0.042 A 
HETATM   25  C   UNL     1      27.122  47.924  49.652  1.00  0.00     0.014 A 
HETATM   26  C   UNL     1      25.658  49.991  48.405  1.00  0.00     0.030 A 
HETATM   27  N   UNL     1      23.687  48.547  48.999  1.00  0.00    -0.365 N 
HETATM   28  C   UNL     1      27.051  50.055  48.495  1.00  0.00     0.002 A 
HETATM   29  C   UNL     1      27.776  49.038  49.111  1.00  0.00     0.001 A 
HETATM   30  H   UNL     1      22.947  49.122  48.620  1.00  0.00     0.165 HD
HETATM   31  C   UNL     1      23.511  47.344  49.623  1.00  0.00     0.097 A 
ENDBRANCH  21  22
BRANCH  21  32
HETATM   32  C   UNL     1      25.717  45.946  52.004  1.00  0.00    -0.048 A 
HETATM   33  C   UNL     1      26.749  45.153  52.531  1.00  0.00     0.011 A 
HETATM   34  C   UNL     1      27.392  45.509  53.720  1.00  0.00     0.037 A 
HETATM   35  C   UNL     1      27.027  46.665  54.408  1.00  0.00     0.068 A 
HETATM   36  C   UNL     1      25.987  47.448  53.913  1.00  0.00     0.037 A 
HETATM   37  C   UNL     1      25.338  47.090  52.725  1.00  0.00     0.011 A 
BRANCH  35  38
HETATM   38  O   UNL     1      27.747  46.911  55.545  1.00  0.00    -0.356 OA
HETATM   39  C   UNL     1      28.516  45.830  56.057  1.00  0.00     0.210 C 
ENDBRANCH  35  38
ENDBRANCH  21  32
ENDBRANCH   1  21
TORSDOF 7
ENDMDL
MODEL 10
REMARK VINA RESULT:      -9.0      1.829      2.765
REMARK  7 active torsions:
REMARK  status: ('A' for Active; 'I' for Inactive)
REMARK    1  A    between atoms: N_7  and  C_8 
REMARK    2  A    between atoms: C_8  and  C_9 
REMARK       I    between atoms: C_9  and  N_10 
REMARK    3  A    between atoms: N_10  and  C_11 
REMARK    4  A    between atoms: C_11  and  C_12 
REMARK    5  A    between atoms: C_12  and  C_13 
REMARK    6  A    between atoms: C_12  and  C_23 
REMARK    7  A    between atoms: C_26  and  O_27 
ROOT
HETATM    1  C   UNL     1      24.807  43.901  51.592  1.00  0.00     0.136 C 
ENDROOT
BRANCH   1   2
HETATM    2  N   UNL     1      24.488  42.686  50.860  1.00  0.00    -0.359 N 
HETATM    3  C   UNL     1      24.282  42.713  49.496  1.00  0.00     0.236 C 
HETATM    4  O   UNL     1      24.362  43.741  48.830  1.00  0.00    -0.272 OA
HETATM    5  H   UNL     1      24.492  41.789  51.350  1.00  0.00     0.162 HD
BRANCH   3   6
HETATM    6  C   UNL     1      23.916  41.366  48.884  1.00  0.00     0.239 C 
BRANCH   6   7
HETATM    7  N   UNL     1      25.108  40.659  48.474  1.00  0.00    -0.259 N 
HETATM    8  C   UNL     1      25.607  40.676  47.212  1.00  0.00     0.326 A 
HETATM    9  N   UNL     1      26.775  39.958  47.191  1.00  0.00    -0.324 N 
HETATM   10  O   UNL     1      25.108  41.214  46.237  1.00  0.00    -0.247 OA
HETATM   11  C   UNL     1      27.104  39.378  48.483  1.00  0.00     0.119 A 
HETATM   12  H   UNL     1      27.296  39.830  46.333  1.00  0.00     0.165 HD
HETATM   13  C   UNL     1      28.467  39.899  48.995  1.00  0.00     0.019 C 
HETATM   14  C   UNL     1      25.900  39.911  49.299  1.00  0.00     0.257 A 
HETATM   15  C   UNL     1      27.053  37.847  48.380  1.00  0.00     0.041 C 
HETATM   16  C   UNL     1      28.496  41.413  49.251  1.00  0.00     0.013 C 
HETATM   17  C   UNL     1      28.935  39.154  50.256  1.00  0.00     0.007 C 
HETATM   18  C   UNL     1      28.931  37.642  50.056  1.00  0.00     0.001 C 
HETATM   19  C   UNL     1      27.558  37.138  49.634  1.00  0.00     0.003 C 
HETATM   20  O   UNL     1      25.710  39.712  50.490  1.00  0.00    -0.270 OA
ENDBRANCH   6   7
ENDBRANCH   3   6
ENDBRANCH   1   2
BRANCH   1  21
HETATM   21  C   UNL     1      26.273  44.357  51.448  1.00  0.00     0.071 C 
BRANCH  21  22
HETATM   22  C   UNL     1      26.989  44.573  52.761  1.00  0.00    -0.020 A 
HETATM   23  C   UNL     1      28.229  43.963  53.162  1.00  0.00    -0.001 A 
HETATM   24  C   UNL     1      28.545  44.440  54.435  1.00  0.00     0.042 A 
HETATM   25  C   UNL     1      29.120  43.054  52.553  1.00  0.00     0.014 A 
HETATM   26  C   UNL     1      29.703  44.063  55.124  1.00  0.00     0.030 A 
HETATM   27  N   UNL     1      27.535  45.295  54.806  1.00  0.00    -0.365 N 
HETATM   28  C   UNL     1      30.571  43.167  54.493  1.00  0.00     0.002 A 
HETATM   29  C   UNL     1      30.285  42.667  53.227  1.00  0.00     0.001 A 
HETATM   30  H   UNL     1      27.502  45.792  55.686  1.00  0.00     0.165 HD
HETATM   31  C   UNL     1      26.594  45.378  53.818  1.00  0.00     0.097 A 
ENDBRANCH  21  22
BRANCH  21  32
HETATM   32  C   UNL     1      26.449  45.663  50.682  1.00  0.00    -0.048 A 
HETATM   33  C   UNL     1      25.489  46.679  50.813  1.00  0.00     0.011 A 
HETATM   34  C   UNL     1      25.635  47.896  50.141  1.00  0.00     0.037 A 
HETATM   35  C   UNL     1      26.743  48.133  49.329  1.00  0.00     0.068 A 
HETATM   36  C   UNL     1      27.691  47.125  49.167  1.00  0.00     0.037 A 
HETATM   37  C   UNL     1      27.543  45.903  49.834  1.00  0.00     0.011 A 
BRANCH  35  38
HETATM   38  O   UNL     1      26.778  49.369  48.746  1.00  0.00    -0.356 OA
HETATM   39  C   UNL     1      25.557  49.846  48.193  1.00  0.00     0.210 C 
ENDBRANCH  35  38
ENDBRANCH  21  32
ENDBRANCH   1  21
TORSDOF 7
ENDMDL
