MODEL 1
REMARK VINA RESULT:     -10.6      0.000      0.000
REMARK  9 active torsions:
REMARK  status: ('A' for Active; 'I' for Inactive)
REMARK    1  A    between atoms: C_9  and  O_10 
REMARK    2  A    between atoms: O_10  and  C_11 
REMARK    3  A    between atoms: C_22  and  C_23 
REMARK    4  A    between atoms: N_30  and  C_31 
REMARK    5  A    between atoms: C_31  and  C_32 
REMARK    6  A    between atoms: C_32  and  O_33 
REMARK    7  A    between atoms: O_33  and  C_34 
REMARK    8  A    between atoms: C_35  and  C_36 
REMARK    9  A    between atoms: C_36  and  C_37 
ROOT
HETATM    1  H   UNL     1      21.117  43.951  50.183  1.00  0.00     0.188 HD
HETATM    2  N   UNL     1      21.996  43.446  50.332  1.00  0.00    -0.282 NA
HETATM    3  C   UNL     1      22.988  44.251  50.083  1.00  0.00     0.155 C 
HETATM    4  N   UNL     1      22.825  45.534  49.611  1.00  0.00    -0.230 N 
HETATM    5  C   UNL     1      23.910  46.370  49.413  1.00  0.00     0.195 A 
HETATM    6  N   UNL     1      25.143  46.137  49.695  1.00  0.00    -0.183 NA
HETATM    7  N   UNL     1      21.606  46.059  49.174  1.00  0.00    -0.186 NA
HETATM    8  C   UNL     1      21.758  47.298  48.554  1.00  0.00     0.094 A 
HETATM    9  C   UNL     1      20.810  47.973  47.889  1.00  0.00     0.175 C 
HETATM   10  S   UNL     1      23.423  47.895  48.650  1.00  0.00    -0.035 SA
HETATM   11  C   UNL     1      24.422  43.841  50.285  1.00  0.00     0.082 C 
HETATM   12  C   UNL     1      25.456  44.943  50.320  1.00  0.00     0.283 C 
HETATM   13  O   UNL     1      26.522  44.805  50.906  1.00  0.00    -0.265 OA
HETATM   14  C   UNL     1      24.684  42.523  50.386  1.00  0.00     0.034 C 
HETATM   15  H   UNL     1      21.036  45.430  48.610  1.00  0.00     0.154 HD
ENDROOT
BRANCH  14  16
HETATM   16  C   UNL     1      25.945  41.853  50.434  1.00  0.00    -0.007 A 
HETATM   17  C   UNL     1      26.676  41.336  49.325  1.00  0.00     0.002 A 
HETATM   18  C   UNL     1      27.902  40.860  49.815  1.00  0.00     0.045 A 
HETATM   19  C   UNL     1      26.409  41.244  47.940  1.00  0.00     0.014 A 
HETATM   20  C   UNL     1      28.860  40.309  48.946  1.00  0.00     0.030 A 
HETATM   21  N   UNL     1      27.898  41.066  51.181  1.00  0.00    -0.353 N 
HETATM   22  C   UNL     1      28.568  40.224  47.581  1.00  0.00     0.002 A 
HETATM   23  C   UNL     1      27.357  40.684  47.081  1.00  0.00     0.001 A 
HETATM   24  C   UNL     1      26.731  41.697  51.550  1.00  0.00     0.103 A 
BRANCH  21  25
HETATM   25  C   UNL     1      28.968  40.816  52.141  1.00  0.00     0.155 C 
BRANCH  25  26
HETATM   26  C   UNL     1      29.665  42.038  52.738  1.00  0.00     0.196 C 
BRANCH  26  27
HETATM   27  O   UNL     1      29.066  42.291  54.011  1.00  0.00    -0.349 OA
BRANCH  27  28
HETATM   28  C   UNL     1      29.568  43.285  54.800  1.00  0.00     0.075 A 
HETATM   29  C   UNL     1      28.813  44.475  54.830  1.00  0.00    -0.021 A 
HETATM   30  C   UNL     1      29.238  45.539  55.642  1.00  0.00     0.010 A 
HETATM   31  C   UNL     1      30.403  45.431  56.400  1.00  0.00     0.001 A 
HETATM   32  C   UNL     1      31.151  44.259  56.356  1.00  0.00     0.003 A 
HETATM   33  C   UNL     1      30.737  43.187  55.559  1.00  0.00     0.037 A 
BRANCH  29  34
HETATM   34  C   UNL     1      27.547  44.630  54.011  1.00  0.00     0.067 C 
BRANCH  34  35
HETATM   35  C   UNL     1      26.254  44.222  54.668  1.00  0.00    -0.032 C 
HETATM   36  C   UNL     1      25.007  44.371  54.199  1.00  0.00     0.007 C 
ENDBRANCH  34  35
ENDBRANCH  29  34
ENDBRANCH  27  28
ENDBRANCH  26  27
ENDBRANCH  25  26
ENDBRANCH  21  25
ENDBRANCH  14  16
BRANCH   9  37
HETATM   37  O   UNL     1      21.045  49.172  47.256  1.00  0.00    -0.320 OA
BRANCH  37  38
HETATM   38  C   UNL     1      20.134  50.193  47.405  1.00  0.00     0.081 A 
HETATM   39  C   UNL     1      20.432  51.190  48.347  1.00  0.00    -0.028 A 
HETATM   40  C   UNL     1      21.686  51.125  49.172  1.00  0.00     0.051 C 
HETATM   41  C   UNL     1      19.566  52.284  48.474  1.00  0.00     0.009 A 
HETATM   42  C   UNL     1      18.421  52.379  47.680  1.00  0.00     0.001 A 
HETATM   43  C   UNL     1      18.141  51.391  46.738  1.00  0.00     0.003 A 
HETATM   44  C   UNL     1      19.003  50.304  46.590  1.00  0.00     0.038 A 
ENDBRANCH  37  38
ENDBRANCH   9  37
TORSDOF 9
ENDMDL
MODEL 2
REMARK VINA RESULT:     -10.4      2.837     10.820
REMARK  9 active torsions:
REMARK  status: ('A' for Active; 'I' for Inactive)
REMARK    1  A    between atoms: C_9  and  O_10 
REMARK    2  A    between atoms: O_10  and  C_11 
REMARK    3  A    between atoms: C_22  and  C_23 
REMARK    4  A    between atoms: N_30  and  C_31 
REMARK    5  A    between atoms: C_31  and  C_32 
REMARK    6  A    between atoms: C_32  and  O_33 
REMARK    7  A    between atoms: O_33  and  C_34 
REMARK    8  A    between atoms: C_35  and  C_36 
REMARK    9  A    between atoms: C_36  and  C_37 
ROOT
HETATM    1  H   UNL     1      24.313  42.442  49.956  1.00  0.00     0.188 HD
HETATM    2  N   UNL     1      23.617  42.976  49.425  1.00  0.00    -0.282 NA
HETATM    3  C   UNL     1      23.795  44.243  49.661  1.00  0.00     0.155 C 
HETATM    4  N   UNL     1      24.721  44.727  50.557  1.00  0.00    -0.230 N 
HETATM    5  C   UNL     1      24.909  46.087  50.733  1.00  0.00     0.195 A 
HETATM    6  N   UNL     1      24.356  47.047  50.080  1.00  0.00    -0.183 NA
HETATM    7  N   UNL     1      25.446  43.926  51.443  1.00  0.00    -0.186 NA
HETATM    8  C   UNL     1      26.154  44.680  52.377  1.00  0.00     0.094 A 
HETATM    9  C   UNL     1      26.803  44.207  53.450  1.00  0.00     0.175 C 
HETATM   10  S   UNL     1      26.041  46.419  52.057  1.00  0.00    -0.035 SA
HETATM   11  C   UNL     1      22.985  45.307  48.971  1.00  0.00     0.082 C 
HETATM   12  C   UNL     1      23.508  46.725  49.036  1.00  0.00     0.283 C 
HETATM   13  O   UNL     1      23.223  47.555  48.183  1.00  0.00    -0.265 OA
HETATM   14  C   UNL     1      21.838  44.927  48.373  1.00  0.00     0.034 C 
HETATM   15  H   UNL     1      24.915  43.181  51.894  1.00  0.00     0.154 HD
ENDROOT
BRANCH  14  16
HETATM   16  C   UNL     1      20.817  45.732  47.781  1.00  0.00    -0.007 A 
HETATM   17  C   UNL     1      20.591  45.929  46.388  1.00  0.00     0.002 A 
HETATM   18  C   UNL     1      19.425  46.699  46.255  1.00  0.00     0.045 A 
HETATM   19  C   UNL     1      21.270  45.508  45.221  1.00  0.00     0.014 A 
HETATM   20  C   UNL     1      18.926  47.041  44.986  1.00  0.00     0.030 A 
HETATM   21  N   UNL     1      18.975  46.973  47.533  1.00  0.00    -0.353 N 
HETATM   22  C   UNL     1      19.621  46.616  43.849  1.00  0.00     0.002 A 
HETATM   23  C   UNL     1      20.780  45.860  43.962  1.00  0.00     0.001 A 
HETATM   24  C   UNL     1      19.796  46.360  48.453  1.00  0.00     0.103 A 
BRANCH  21  25
HETATM   25  C   UNL     1      17.761  47.672  47.938  1.00  0.00     0.155 C 
BRANCH  25  26
HETATM   26  C   UNL     1      17.567  47.917  49.435  1.00  0.00     0.196 C 
BRANCH  26  27
HETATM   27  O   UNL     1      18.556  48.866  49.843  1.00  0.00    -0.349 OA
BRANCH  27  28
HETATM   28  C   UNL     1      18.443  50.164  49.436  1.00  0.00     0.075 A 
HETATM   29  C   UNL     1      19.632  50.757  48.965  1.00  0.00    -0.021 A 
HETATM   30  C   UNL     1      19.601  52.079  48.495  1.00  0.00     0.010 A 
HETATM   31  C   UNL     1      18.414  52.809  48.505  1.00  0.00     0.001 A 
HETATM   32  C   UNL     1      17.246  52.222  48.983  1.00  0.00     0.003 A 
HETATM   33  C   UNL     1      17.257  50.904  49.447  1.00  0.00     0.037 A 
BRANCH  29  34
HETATM   34  C   UNL     1      20.943  49.996  48.948  1.00  0.00     0.067 C 
BRANCH  34  35
HETATM   35  C   UNL     1      22.186  50.767  49.309  1.00  0.00    -0.032 C 
HETATM   36  C   UNL     1      23.201  51.119  48.508  1.00  0.00     0.007 C 
ENDBRANCH  34  35
ENDBRANCH  29  34
ENDBRANCH  27  28
ENDBRANCH  26  27
ENDBRANCH  25  26
ENDBRANCH  21  25
ENDBRANCH  14  16
BRANCH   9  37
HETATM   37  O   UNL     1      27.440  45.018  54.362  1.00  0.00    -0.320 OA
BRANCH  37  38
HETATM   38  C   UNL     1      28.679  44.647  54.830  1.00  0.00     0.081 A 
HETATM   39  C   UNL     1      29.204  45.373  55.911  1.00  0.00    -0.028 A 
HETATM   40  C   UNL     1      28.446  46.523  56.512  1.00  0.00     0.051 C 
HETATM   41  C   UNL     1      30.430  44.977  56.463  1.00  0.00     0.009 A 
HETATM   42  C   UNL     1      31.121  43.881  55.944  1.00  0.00     0.001 A 
HETATM   43  C   UNL     1      30.586  43.158  54.879  1.00  0.00     0.003 A 
HETATM   44  C   UNL     1      29.359  43.531  54.329  1.00  0.00     0.038 A 
ENDBRANCH  37  38
ENDBRANCH   9  37
TORSDOF 9
ENDMDL
MODEL 3
REMARK VINA RESULT:     -10.3      0.697      2.173
REMARK  9 active torsions:
REMARK  status: ('A' for Active; 'I' for Inactive)
REMARK    1  A    between atoms: C_9  and  O_10 
REMARK    2  A    between atoms: O_10  and  C_11 
REMARK    3  A    between atoms: C_22  and  C_23 
REMARK    4  A    between atoms: N_30  and  C_31 
REMARK    5  A    between atoms: C_31  and  C_32 
REMARK    6  A    between atoms: C_32  and  O_33 
REMARK    7  A    between atoms: O_33  and  C_34 
REMARK    8  A    between atoms: C_35  and  C_36 
REMARK    9  A    between atoms: C_36  and  C_37 
ROOT
HETATM    1  H   UNL     1      20.958  43.829  50.191  1.00  0.00     0.188 HD
HETATM    2  N   UNL     1      21.843  43.327  50.312  1.00  0.00    -0.282 NA
HETATM    3  C   UNL     1      22.823  44.130  50.015  1.00  0.00     0.155 C 
HETATM    4  N   UNL     1      22.640  45.407  49.533  1.00  0.00    -0.230 N 
HETATM    5  C   UNL     1      23.715  46.242  49.284  1.00  0.00     0.195 A 
HETATM    6  N   UNL     1      24.958  46.013  49.521  1.00  0.00    -0.183 NA
HETATM    7  N   UNL     1      21.404  45.925  49.138  1.00  0.00    -0.186 NA
HETATM    8  C   UNL     1      21.530  47.156  48.497  1.00  0.00     0.094 A 
HETATM    9  C   UNL     1      20.555  47.821  47.861  1.00  0.00     0.175 C 
HETATM   10  S   UNL     1      23.196  47.757  48.521  1.00  0.00    -0.035 SA
HETATM   11  C   UNL     1      24.264  43.724  50.166  1.00  0.00     0.082 C 
HETATM   12  C   UNL     1      25.298  44.828  50.148  1.00  0.00     0.283 C 
HETATM   13  O   UNL     1      26.386  44.699  50.693  1.00  0.00    -0.265 OA
HETATM   14  C   UNL     1      24.533  42.408  50.273  1.00  0.00     0.034 C 
HETATM   15  H   UNL     1      20.813  45.288  48.604  1.00  0.00     0.154 HD
ENDROOT
BRANCH  14  16
HETATM   16  C   UNL     1      25.795  41.740  50.280  1.00  0.00    -0.007 A 
HETATM   17  C   UNL     1      26.517  41.273  49.144  1.00  0.00     0.002 A 
HETATM   18  C   UNL     1      27.749  40.780  49.601  1.00  0.00     0.045 A 
HETATM   19  C   UNL     1      26.237  41.239  47.758  1.00  0.00     0.014 A 
HETATM   20  C   UNL     1      28.700  40.269  48.700  1.00  0.00     0.030 A 
HETATM   21  N   UNL     1      27.758  40.927  50.974  1.00  0.00    -0.353 N 
HETATM   22  C   UNL     1      28.395  40.242  47.336  1.00  0.00     0.002 A 
HETATM   23  C   UNL     1      27.179  40.720  46.867  1.00  0.00     0.001 A 
HETATM   24  C   UNL     1      26.592  41.538  51.381  1.00  0.00     0.103 A 
BRANCH  21  25
HETATM   25  C   UNL     1      28.837  40.639  51.912  1.00  0.00     0.155 C 
BRANCH  25  26
HETATM   26  C   UNL     1      28.594  40.990  53.380  1.00  0.00     0.196 C 
BRANCH  26  27
HETATM   27  O   UNL     1      29.400  42.130  53.685  1.00  0.00    -0.349 OA
BRANCH  27  28
HETATM   28  C   UNL     1      28.805  43.259  54.169  1.00  0.00     0.075 A 
HETATM   29  C   UNL     1      29.619  44.074  54.980  1.00  0.00    -0.021 A 
HETATM   30  C   UNL     1      29.098  45.273  55.493  1.00  0.00     0.010 A 
HETATM   31  C   UNL     1      27.786  45.650  55.219  1.00  0.00     0.001 A 
HETATM   32  C   UNL     1      26.982  44.835  54.427  1.00  0.00     0.003 A 
HETATM   33  C   UNL     1      27.487  43.642  53.902  1.00  0.00     0.037 A 
BRANCH  29  34
HETATM   34  C   UNL     1      31.049  43.689  55.306  1.00  0.00     0.067 C 
BRANCH  34  35
HETATM   35  C   UNL     1      31.341  43.286  56.728  1.00  0.00    -0.032 C 
HETATM   36  C   UNL     1      31.423  44.074  57.809  1.00  0.00     0.007 C 
ENDBRANCH  34  35
ENDBRANCH  29  34
ENDBRANCH  27  28
ENDBRANCH  26  27
ENDBRANCH  25  26
ENDBRANCH  21  25
ENDBRANCH  14  16
BRANCH   9  37
HETATM   37  O   UNL     1      20.764  49.013  47.204  1.00  0.00    -0.320 OA
BRANCH  37  38
HETATM   38  C   UNL     1      20.147  50.149  47.675  1.00  0.00     0.081 A 
HETATM   39  C   UNL     1      19.101  50.682  46.905  1.00  0.00    -0.028 A 
HETATM   40  C   UNL     1      18.694  50.044  45.607  1.00  0.00     0.051 C 
HETATM   41  C   UNL     1      18.400  51.795  47.389  1.00  0.00     0.009 A 
HETATM   42  C   UNL     1      18.739  52.368  48.616  1.00  0.00     0.001 A 
HETATM   43  C   UNL     1      19.769  51.824  49.380  1.00  0.00     0.003 A 
HETATM   44  C   UNL     1      20.466  50.707  48.918  1.00  0.00     0.038 A 
ENDBRANCH  37  38
ENDBRANCH   9  37
TORSDOF 9
ENDMDL
MODEL 4
REMARK VINA RESULT:     -10.2      2.722     11.101
REMARK  9 active torsions:
REMARK  status: ('A' for Active; 'I' for Inactive)
REMARK    1  A    between atoms: C_9  and  O_10 
REMARK    2  A    between atoms: O_10  and  C_11 
REMARK    3  A    between atoms: C_22  and  C_23 
REMARK    4  A    between atoms: N_30  and  C_31 
REMARK    5  A    between atoms: C_31  and  C_32 
REMARK    6  A    between atoms: C_32  and  O_33 
REMARK    7  A    between atoms: O_33  and  C_34 
REMARK    8  A    between atoms: C_35  and  C_36 
REMARK    9  A    between atoms: C_36  and  C_37 
ROOT
HETATM    1  H   UNL     1      25.283  42.879  48.724  1.00  0.00     0.188 HD
HETATM    2  N   UNL     1      24.448  43.301  48.307  1.00  0.00    -0.282 NA
HETATM    3  C   UNL     1      24.246  44.461  48.860  1.00  0.00     0.155 C 
HETATM    4  N   UNL     1      25.008  44.952  49.897  1.00  0.00    -0.230 N 
HETATM    5  C   UNL     1      24.787  46.216  50.416  1.00  0.00     0.195 A 
HETATM    6  N   UNL     1      23.958  47.104  49.994  1.00  0.00    -0.183 NA
HETATM    7  N   UNL     1      25.959  44.202  50.593  1.00  0.00    -0.186 NA
HETATM    8  C   UNL     1      26.433  44.867  51.722  1.00  0.00     0.094 A 
HETATM    9  C   UNL     1      27.219  44.349  52.676  1.00  0.00     0.175 C 
HETATM   10  S   UNL     1      25.801  46.518  51.840  1.00  0.00    -0.035 SA
HETATM   11  C   UNL     1      23.140  45.379  48.415  1.00  0.00     0.082 C 
HETATM   12  C   UNL     1      23.219  46.823  48.859  1.00  0.00     0.283 C 
HETATM   13  O   UNL     1      22.680  47.721  48.226  1.00  0.00    -0.265 OA
HETATM   14  C   UNL     1      22.144  44.844  47.682  1.00  0.00     0.034 C 
HETATM   15  H   UNL     1      25.685  43.245  50.815  1.00  0.00     0.154 HD
ENDROOT
BRANCH  14  16
HETATM   16  C   UNL     1      20.916  45.436  47.255  1.00  0.00    -0.007 A 
HETATM   17  C   UNL     1      20.564  45.798  45.922  1.00  0.00     0.002 A 
HETATM   18  C   UNL     1      19.233  46.241  45.943  1.00  0.00     0.045 A 
HETATM   19  C   UNL     1      21.259  45.775  44.690  1.00  0.00     0.014 A 
HETATM   20  C   UNL     1      18.589  46.646  44.761  1.00  0.00     0.030 A 
HETATM   21  N   UNL     1      18.804  46.167  47.255  1.00  0.00    -0.353 N 
HETATM   22  C   UNL     1      19.301  46.619  43.558  1.00  0.00     0.002 A 
HETATM   23  C   UNL     1      20.620  46.190  43.520  1.00  0.00     0.001 A 
HETATM   24  C   UNL     1      19.809  45.648  48.041  1.00  0.00     0.103 A 
BRANCH  21  25
HETATM   25  C   UNL     1      17.476  46.440  47.793  1.00  0.00     0.155 C 
BRANCH  25  26
HETATM   26  C   UNL     1      17.288  47.762  48.538  1.00  0.00     0.196 C 
BRANCH  26  27
HETATM   27  O   UNL     1      17.461  48.816  47.588  1.00  0.00    -0.349 OA
BRANCH  27  28
HETATM   28  C   UNL     1      18.356  49.812  47.850  1.00  0.00     0.075 A 
HETATM   29  C   UNL     1      17.792  51.070  48.142  1.00  0.00    -0.021 A 
HETATM   30  C   UNL     1      18.638  52.146  48.458  1.00  0.00     0.010 A 
HETATM   31  C   UNL     1      20.022  51.980  48.468  1.00  0.00     0.001 A 
HETATM   32  C   UNL     1      20.572  50.739  48.166  1.00  0.00     0.003 A 
HETATM   33  C   UNL     1      19.744  49.656  47.858  1.00  0.00     0.037 A 
BRANCH  29  34
HETATM   34  C   UNL     1      16.292  51.288  48.132  1.00  0.00     0.067 C 
BRANCH  34  35
HETATM   35  C   UNL     1      15.659  51.747  49.420  1.00  0.00    -0.032 C 
HETATM   36  C   UNL     1      15.392  53.002  49.807  1.00  0.00     0.007 C 
ENDBRANCH  34  35
ENDBRANCH  29  34
ENDBRANCH  27  28
ENDBRANCH  26  27
ENDBRANCH  25  26
ENDBRANCH  21  25
ENDBRANCH  14  16
BRANCH   9  37
HETATM   37  O   UNL     1      27.608  45.053  53.793  1.00  0.00    -0.320 OA
BRANCH  37  38
HETATM   38  C   UNL     1      28.752  44.671  54.455  1.00  0.00     0.081 A 
HETATM   39  C   UNL     1      29.143  45.439  55.563  1.00  0.00    -0.028 A 
HETATM   40  C   UNL     1      28.350  46.642  55.990  1.00  0.00     0.051 C 
HETATM   41  C   UNL     1      30.261  45.038  56.306  1.00  0.00     0.009 A 
HETATM   42  C   UNL     1      30.979  43.895  55.947  1.00  0.00     0.001 A 
HETATM   43  C   UNL     1      30.575  43.132  54.854  1.00  0.00     0.003 A 
HETATM   44  C   UNL     1      29.455  43.510  54.114  1.00  0.00     0.038 A 
ENDBRANCH  37  38
ENDBRANCH   9  37
TORSDOF 9
ENDMDL
MODEL 5
REMARK VINA RESULT:     -10.2      2.784     12.374
REMARK  9 active torsions:
REMARK  status: ('A' for Active; 'I' for Inactive)
REMARK    1  A    between atoms: C_9  and  O_10 
REMARK    2  A    between atoms: O_10  and  C_11 
REMARK    3  A    between atoms: C_22  and  C_23 
REMARK    4  A    between atoms: N_30  and  C_31 
REMARK    5  A    between atoms: C_31  and  C_32 
REMARK    6  A    between atoms: C_32  and  O_33 
REMARK    7  A    between atoms: O_33  and  C_34 
REMARK    8  A    between atoms: C_35  and  C_36 
REMARK    9  A    between atoms: C_36  and  C_37 
ROOT
HETATM    1  H   UNL     1      22.602  43.979  49.602  1.00  0.00     0.188 HD
HETATM    2  N   UNL     1      22.064  44.716  49.136  1.00  0.00    -0.282 NA
HETATM    3  C   UNL     1      22.715  45.838  49.242  1.00  0.00     0.155 C 
HETATM    4  N   UNL     1      23.886  45.973  49.954  1.00  0.00    -0.230 N 
HETATM    5  C   UNL     1      24.570  47.175  49.992  1.00  0.00     0.195 A 
HETATM    6  N   UNL     1      24.294  48.256  49.352  1.00  0.00    -0.183 NA
HETATM    7  N   UNL     1      24.414  44.983  50.787  1.00  0.00    -0.186 NA
HETATM    8  C   UNL     1      25.485  45.450  51.547  1.00  0.00     0.094 A 
HETATM    9  C   UNL     1      26.090  44.798  52.549  1.00  0.00     0.175 C 
HETATM   10  S   UNL     1      25.946  47.104  51.109  1.00  0.00    -0.035 SA
HETATM   11  C   UNL     1      22.234  47.107  48.593  1.00  0.00     0.082 C 
HETATM   12  C   UNL     1      23.229  48.240  48.469  1.00  0.00     0.283 C 
HETATM   13  O   UNL     1      23.122  49.098  47.603  1.00  0.00    -0.265 OA
HETATM   14  C   UNL     1      20.946  47.156  48.199  1.00  0.00     0.034 C 
HETATM   15  H   UNL     1      23.734  44.492  51.368  1.00  0.00     0.154 HD
ENDROOT
BRANCH  14  16
HETATM   16  C   UNL     1      20.195  48.262  47.698  1.00  0.00    -0.007 A 
HETATM   17  C   UNL     1      19.922  49.484  48.379  1.00  0.00     0.002 A 
HETATM   18  C   UNL     1      19.249  50.327  47.480  1.00  0.00     0.045 A 
HETATM   19  C   UNL     1      20.203  49.957  49.682  1.00  0.00     0.014 A 
HETATM   20  C   UNL     1      18.866  51.625  47.858  1.00  0.00     0.030 A 
HETATM   21  N   UNL     1      19.103  49.622  46.300  1.00  0.00    -0.353 N 
HETATM   22  C   UNL     1      19.150  52.065  49.155  1.00  0.00     0.002 A 
HETATM   23  C   UNL     1      19.810  51.243  50.058  1.00  0.00     0.001 A 
HETATM   24  C   UNL     1      19.705  48.389  46.420  1.00  0.00     0.103 A 
BRANCH  21  25
HETATM   25  C   UNL     1      18.540  50.079  45.034  1.00  0.00     0.155 C 
BRANCH  25  26
HETATM   26  C   UNL     1      17.689  49.078  44.252  1.00  0.00     0.196 C 
BRANCH  26  27
HETATM   27  O   UNL     1      16.321  49.341  44.571  1.00  0.00    -0.349 OA
BRANCH  27  28
HETATM   28  C   UNL     1      16.010  50.432  45.330  1.00  0.00     0.075 A 
HETATM   29  C   UNL     1      15.619  50.156  46.656  1.00  0.00    -0.021 A 
HETATM   30  C   UNL     1      15.315  51.221  47.519  1.00  0.00     0.010 A 
HETATM   31  C   UNL     1      15.380  52.539  47.070  1.00  0.00     0.001 A 
HETATM   32  C   UNL     1      15.755  52.804  45.756  1.00  0.00     0.003 A 
HETATM   33  C   UNL     1      16.069  51.756  44.887  1.00  0.00     0.037 A 
BRANCH  29  34
HETATM   34  C   UNL     1      15.528  48.734  47.175  1.00  0.00     0.067 C 
BRANCH  34  35
HETATM   35  C   UNL     1      16.182  48.448  48.502  1.00  0.00    -0.032 C 
HETATM   36  C   UNL     1      16.839  47.341  48.876  1.00  0.00     0.007 C 
ENDBRANCH  34  35
ENDBRANCH  29  34
ENDBRANCH  27  28
ENDBRANCH  26  27
ENDBRANCH  25  26
ENDBRANCH  21  25
ENDBRANCH  14  16
BRANCH   9  37
HETATM   37  O   UNL     1      27.112  45.343  53.292  1.00  0.00    -0.320 OA
BRANCH  37  38
HETATM   38  C   UNL     1      28.231  44.582  53.544  1.00  0.00     0.081 A 
HETATM   39  C   UNL     1      28.854  44.745  54.791  1.00  0.00    -0.028 A 
HETATM   40  C   UNL     1      28.329  45.730  55.797  1.00  0.00     0.051 C 
HETATM   41  C   UNL     1      29.951  43.934  55.113  1.00  0.00     0.009 A 
HETATM   42  C   UNL     1      30.420  42.982  54.205  1.00  0.00     0.001 A 
HETATM   43  C   UNL     1      29.786  42.818  52.975  1.00  0.00     0.003 A 
HETATM   44  C   UNL     1      28.683  43.608  52.647  1.00  0.00     0.038 A 
ENDBRANCH  37  38
ENDBRANCH   9  37
TORSDOF 9
ENDMDL
MODEL 6
REMARK VINA RESULT:      -9.7      2.962     13.423
REMARK  9 active torsions:
REMARK  status: ('A' for Active; 'I' for Inactive)
REMARK    1  A    between atoms: C_9  and  O_10 
REMARK    2  A    between atoms: O_10  and  C_11 
REMARK    3  A    between atoms: C_22  and  C_23 
REMARK    4  A    between atoms: N_30  and  C_31 
REMARK    5  A    between atoms: C_31  and  C_32 
REMARK    6  A    between atoms: C_32  and  O_33 
REMARK    7  A    between atoms: O_33  and  C_34 
REMARK    8  A    between atoms: C_35  and  C_36 
REMARK    9  A    between atoms: C_36  and  C_37 
ROOT
HETATM    1  H   UNL     1      22.639  44.127  49.481  1.00  0.00     0.188 HD
HETATM    2  N   UNL     1      22.099  44.877  49.040  1.00  0.00    -0.282 NA
HETATM    3  C   UNL     1      22.737  46.000  49.201  1.00  0.00     0.155 C 
HETATM    4  N   UNL     1      23.898  46.117  49.932  1.00  0.00    -0.230 N 
HETATM    5  C   UNL     1      24.569  47.324  50.028  1.00  0.00     0.195 A 
HETATM    6  N   UNL     1      24.289  48.427  49.430  1.00  0.00    -0.183 NA
HETATM    7  N   UNL     1      24.426  45.100  50.730  1.00  0.00    -0.186 NA
HETATM    8  C   UNL     1      25.483  45.545  51.522  1.00  0.00     0.094 A 
HETATM    9  C   UNL     1      26.082  44.857  52.504  1.00  0.00     0.175 C 
HETATM   10  S   UNL     1      25.932  47.220  51.158  1.00  0.00    -0.035 SA
HETATM   11  C   UNL     1      22.250  47.291  48.599  1.00  0.00     0.082 C 
HETATM   12  C   UNL     1      23.235  48.437  48.535  1.00  0.00     0.283 C 
HETATM   13  O   UNL     1      23.129  49.329  47.703  1.00  0.00    -0.265 OA
HETATM   14  C   UNL     1      20.967  47.343  48.192  1.00  0.00     0.034 C 
HETATM   15  H   UNL     1      23.745  44.577  51.281  1.00  0.00     0.154 HD
ENDROOT
BRANCH  14  16
HETATM   16  C   UNL     1      20.210  48.462  47.727  1.00  0.00    -0.007 A 
HETATM   17  C   UNL     1      19.888  49.637  48.466  1.00  0.00     0.002 A 
HETATM   18  C   UNL     1      19.229  50.517  47.594  1.00  0.00     0.045 A 
HETATM   19  C   UNL     1      20.113  50.040  49.804  1.00  0.00     0.014 A 
HETATM   20  C   UNL     1      18.805  51.784  48.031  1.00  0.00     0.030 A 
HETATM   21  N   UNL     1      19.139  49.879  46.371  1.00  0.00    -0.353 N 
HETATM   22  C   UNL     1      19.035  52.154  49.359  1.00  0.00     0.002 A 
HETATM   23  C   UNL     1      19.680  51.294  50.238  1.00  0.00     0.001 A 
HETATM   24  C   UNL     1      19.762  48.653  46.442  1.00  0.00     0.103 A 
BRANCH  21  25
HETATM   25  C   UNL     1      18.611  50.396  45.114  1.00  0.00     0.155 C 
BRANCH  25  26
HETATM   26  C   UNL     1      17.194  50.971  45.140  1.00  0.00     0.196 C 
BRANCH  26  27
HETATM   27  O   UNL     1      17.310  52.394  45.076  1.00  0.00    -0.349 OA
BRANCH  27  28
HETATM   28  C   UNL     1      16.187  53.147  44.888  1.00  0.00     0.075 A 
HETATM   29  C   UNL     1      16.158  53.904  43.699  1.00  0.00    -0.021 A 
HETATM   30  C   UNL     1      15.026  54.682  43.407  1.00  0.00     0.010 A 
HETATM   31  C   UNL     1      13.947  54.723  44.287  1.00  0.00     0.001 A 
HETATM   32  C   UNL     1      13.987  53.983  45.466  1.00  0.00     0.003 A 
HETATM   33  C   UNL     1      15.102  53.197  45.767  1.00  0.00     0.037 A 
BRANCH  29  34
HETATM   34  C   UNL     1      17.318  53.891  42.723  1.00  0.00     0.067 C 
BRANCH  34  35
HETATM   35  C   UNL     1      17.031  53.406  41.326  1.00  0.00    -0.032 C 
HETATM   36  C   UNL     1      17.757  52.562  40.580  1.00  0.00     0.007 C 
ENDBRANCH  34  35
ENDBRANCH  29  34
ENDBRANCH  27  28
ENDBRANCH  26  27
ENDBRANCH  25  26
ENDBRANCH  21  25
ENDBRANCH  14  16
BRANCH   9  37
HETATM   37  O   UNL     1      27.091  45.381  53.281  1.00  0.00    -0.320 OA
BRANCH  37  38
HETATM   38  C   UNL     1      28.206  44.615  53.530  1.00  0.00     0.081 A 
HETATM   39  C   UNL     1      28.843  44.785  54.769  1.00  0.00    -0.028 A 
HETATM   40  C   UNL     1      28.335  45.785  55.769  1.00  0.00     0.051 C 
HETATM   41  C   UNL     1      29.937  43.970  55.087  1.00  0.00     0.009 A 
HETATM   42  C   UNL     1      30.390  43.006  54.185  1.00  0.00     0.001 A 
HETATM   43  C   UNL     1      29.743  42.834  52.963  1.00  0.00     0.003 A 
HETATM   44  C   UNL     1      28.643  43.628  52.638  1.00  0.00     0.038 A 
ENDBRANCH  37  38
ENDBRANCH   9  37
TORSDOF 9
ENDMDL
MODEL 7
REMARK VINA RESULT:      -9.6      2.956     12.916
REMARK  9 active torsions:
REMARK  status: ('A' for Active; 'I' for Inactive)
REMARK    1  A    between atoms: C_9  and  O_10 
REMARK    2  A    between atoms: O_10  and  C_11 
REMARK    3  A    between atoms: C_22  and  C_23 
REMARK    4  A    between atoms: N_30  and  C_31 
REMARK    5  A    between atoms: C_31  and  C_32 
REMARK    6  A    between atoms: C_32  and  O_33 
REMARK    7  A    between atoms: O_33  and  C_34 
REMARK    8  A    between atoms: C_35  and  C_36 
REMARK    9  A    between atoms: C_36  and  C_37 
ROOT
HETATM    1  H   UNL     1      22.411  43.968  49.663  1.00  0.00     0.188 HD
HETATM    2  N   UNL     1      21.870  44.704  49.199  1.00  0.00    -0.282 NA
HETATM    3  C   UNL     1      22.538  45.819  49.269  1.00  0.00     0.155 C 
HETATM    4  N   UNL     1      23.729  45.950  49.948  1.00  0.00    -0.230 N 
HETATM    5  C   UNL     1      24.429  47.144  49.948  1.00  0.00     0.195 A 
HETATM    6  N   UNL     1      24.150  48.217  49.296  1.00  0.00    -0.183 NA
HETATM    7  N   UNL     1      24.266  44.968  50.784  1.00  0.00    -0.186 NA
HETATM    8  C   UNL     1      25.362  45.433  51.507  1.00  0.00     0.094 A 
HETATM    9  C   UNL     1      25.985  44.789  52.504  1.00  0.00     0.175 C 
HETATM   10  S   UNL     1      25.832  47.073  51.029  1.00  0.00    -0.035 SA
HETATM   11  C   UNL     1      22.056  47.084  48.612  1.00  0.00     0.082 C 
HETATM   12  C   UNL     1      23.062  48.201  48.443  1.00  0.00     0.283 C 
HETATM   13  O   UNL     1      22.943  49.045  47.565  1.00  0.00    -0.265 OA
HETATM   14  C   UNL     1      20.759  47.143  48.251  1.00  0.00     0.034 C 
HETATM   15  H   UNL     1      23.596  44.495  51.390  1.00  0.00     0.154 HD
ENDROOT
BRANCH  14  16
HETATM   16  C   UNL     1      20.009  48.251  47.750  1.00  0.00    -0.007 A 
HETATM   17  C   UNL     1      19.797  49.499  48.404  1.00  0.00     0.002 A 
HETATM   18  C   UNL     1      19.100  50.329  47.512  1.00  0.00     0.045 A 
HETATM   19  C   UNL     1      20.151  50.006  49.676  1.00  0.00     0.014 A 
HETATM   20  C   UNL     1      18.765  51.648  47.865  1.00  0.00     0.030 A 
HETATM   21  N   UNL     1      18.881  49.592  46.364  1.00  0.00    -0.353 N 
HETATM   22  C   UNL     1      19.122  52.121  49.132  1.00  0.00     0.002 A 
HETATM   23  C   UNL     1      19.806  51.312  50.029  1.00  0.00     0.001 A 
HETATM   24  C   UNL     1      19.460  48.349  46.494  1.00  0.00     0.103 A 
BRANCH  21  25
HETATM   25  C   UNL     1      18.267  50.022  45.112  1.00  0.00     0.155 C 
BRANCH  25  26
HETATM   26  C   UNL     1      17.794  48.924  44.158  1.00  0.00     0.196 C 
BRANCH  26  27
HETATM   27  O   UNL     1      17.240  49.567  43.009  1.00  0.00    -0.349 OA
BRANCH  27  28
HETATM   28  C   UNL     1      18.051  50.319  42.208  1.00  0.00     0.075 A 
HETATM   29  C   UNL     1      17.546  51.585  41.852  1.00  0.00    -0.021 A 
HETATM   30  C   UNL     1      18.328  52.439  41.058  1.00  0.00     0.010 A 
HETATM   31  C   UNL     1      19.586  52.038  40.611  1.00  0.00     0.001 A 
HETATM   32  C   UNL     1      20.074  50.781  40.956  1.00  0.00     0.003 A 
HETATM   33  C   UNL     1      19.311  49.922  41.752  1.00  0.00     0.037 A 
BRANCH  29  34
HETATM   34  C   UNL     1      16.178  52.050  42.312  1.00  0.00     0.067 C 
BRANCH  34  35
HETATM   35  C   UNL     1      16.141  53.098  43.394  1.00  0.00    -0.032 C 
HETATM   36  C   UNL     1      17.010  53.277  44.399  1.00  0.00     0.007 C 
ENDBRANCH  34  35
ENDBRANCH  29  34
ENDBRANCH  27  28
ENDBRANCH  26  27
ENDBRANCH  25  26
ENDBRANCH  21  25
ENDBRANCH  14  16
BRANCH   9  37
HETATM   37  O   UNL     1      27.034  45.333  53.211  1.00  0.00    -0.320 OA
BRANCH  37  38
HETATM   38  C   UNL     1      28.153  44.565  53.436  1.00  0.00     0.081 A 
HETATM   39  C   UNL     1      28.790  44.703  54.680  1.00  0.00    -0.028 A 
HETATM   40  C   UNL     1      28.277  45.670  55.710  1.00  0.00     0.051 C 
HETATM   41  C   UNL     1      29.888  43.884  54.974  1.00  0.00     0.009 A 
HETATM   42  C   UNL     1      30.346  42.949  54.043  1.00  0.00     0.001 A 
HETATM   43  C   UNL     1      29.699  42.811  52.817  1.00  0.00     0.003 A 
HETATM   44  C   UNL     1      28.595  43.608  52.516  1.00  0.00     0.038 A 
ENDBRANCH  37  38
ENDBRANCH   9  37
TORSDOF 9
ENDMDL
MODEL 8
REMARK VINA RESULT:      -9.5      2.477      5.519
REMARK  9 active torsions:
REMARK  status: ('A' for Active; 'I' for Inactive)
REMARK    1  A    between atoms: C_9  and  O_10 
REMARK    2  A    between atoms: O_10  and  C_11 
REMARK    3  A    between atoms: C_22  and  C_23 
REMARK    4  A    between atoms: N_30  and  C_31 
REMARK    5  A    between atoms: C_31  and  C_32 
REMARK    6  A    between atoms: C_32  and  O_33 
REMARK    7  A    between atoms: O_33  and  C_34 
REMARK    8  A    between atoms: C_35  and  C_36 
REMARK    9  A    between atoms: C_36  and  C_37 
ROOT
HETATM    1  H   UNL     1      23.437  51.356  48.919  1.00  0.00     0.188 HD
HETATM    2  N   UNL     1      23.986  50.527  49.165  1.00  0.00    -0.282 NA
HETATM    3  C   UNL     1      23.207  49.485  49.125  1.00  0.00     0.155 C 
HETATM    4  N   UNL     1      21.854  49.555  48.878  1.00  0.00    -0.230 N 
HETATM    5  C   UNL     1      21.079  48.412  48.792  1.00  0.00     0.195 A 
HETATM    6  N   UNL     1      21.474  47.190  48.840  1.00  0.00    -0.183 NA
HETATM    7  N   UNL     1      21.130  50.749  48.821  1.00  0.00    -0.186 NA
HETATM    8  C   UNL     1      19.756  50.529  48.767  1.00  0.00     0.094 A 
HETATM    9  C   UNL     1      18.799  51.462  48.872  1.00  0.00     0.175 C 
HETATM   10  S   UNL     1      19.357  48.808  48.629  1.00  0.00    -0.035 SA
HETATM   11  C   UNL     1      23.723  48.090  49.358  1.00  0.00     0.082 C 
HETATM   12  C   UNL     1      22.832  46.944  48.934  1.00  0.00     0.283 C 
HETATM   13  O   UNL     1      23.290  45.845  48.650  1.00  0.00    -0.265 OA
HETATM   14  C   UNL     1      24.924  47.962  49.955  1.00  0.00     0.034 C 
HETATM   15  H   UNL     1      21.368  51.439  49.533  1.00  0.00     0.154 HD
ENDROOT
BRANCH  14  16
HETATM   16  C   UNL     1      25.581  46.783  50.423  1.00  0.00    -0.007 A 
HETATM   17  C   UNL     1      25.857  46.445  51.780  1.00  0.00     0.002 A 
HETATM   18  C   UNL     1      26.414  45.156  51.788  1.00  0.00     0.045 A 
HETATM   19  C   UNL     1      25.669  47.117  53.010  1.00  0.00     0.014 A 
HETATM   20  C   UNL     1      26.770  44.532  52.996  1.00  0.00     0.030 A 
HETATM   21  N   UNL     1      26.489  44.742  50.472  1.00  0.00    -0.353 N 
HETATM   22  C   UNL     1      26.579  45.222  54.197  1.00  0.00     0.002 A 
HETATM   23  C   UNL     1      26.036  46.500  54.207  1.00  0.00     0.001 A 
HETATM   24  C   UNL     1      25.954  45.710  49.651  1.00  0.00     0.103 A 
BRANCH  21  25
HETATM   25  C   UNL     1      26.921  43.450  49.950  1.00  0.00     0.155 C 
BRANCH  25  26
HETATM   26  C   UNL     1      25.889  42.321  49.949  1.00  0.00     0.196 C 
BRANCH  26  27
HETATM   27  O   UNL     1      26.282  41.383  50.952  1.00  0.00    -0.349 OA
BRANCH  27  28
HETATM   28  C   UNL     1      27.233  40.449  50.657  1.00  0.00     0.075 A 
HETATM   29  C   UNL     1      28.327  40.398  51.544  1.00  0.00    -0.021 A 
HETATM   30  C   UNL     1      29.336  39.444  51.336  1.00  0.00     0.010 A 
HETATM   31  C   UNL     1      29.269  38.565  50.257  1.00  0.00     0.001 A 
HETATM   32  C   UNL     1      28.193  38.629  49.377  1.00  0.00     0.003 A 
HETATM   33  C   UNL     1      27.176  39.567  49.575  1.00  0.00     0.037 A 
BRANCH  29  34
HETATM   34  C   UNL     1      28.436  41.344  52.723  1.00  0.00     0.067 C 
BRANCH  34  35
HETATM   35  C   UNL     1      29.695  42.166  52.826  1.00  0.00    -0.032 C 
HETATM   36  C   UNL     1      30.100  42.930  53.850  1.00  0.00     0.007 C 
ENDBRANCH  34  35
ENDBRANCH  29  34
ENDBRANCH  27  28
ENDBRANCH  26  27
ENDBRANCH  25  26
ENDBRANCH  21  25
ENDBRANCH  14  16
BRANCH   9  37
HETATM   37  O   UNL     1      17.455  51.165  48.861  1.00  0.00    -0.320 OA
BRANCH  37  38
HETATM   38  C   UNL     1      16.648  51.768  47.923  1.00  0.00     0.081 A 
HETATM   39  C   UNL     1      15.564  52.524  48.396  1.00  0.00    -0.028 A 
HETATM   40  C   UNL     1      15.288  52.646  49.868  1.00  0.00     0.051 C 
HETATM   41  C   UNL     1      14.764  53.213  47.474  1.00  0.00     0.009 A 
HETATM   42  C   UNL     1      15.038  53.145  46.107  1.00  0.00     0.001 A 
HETATM   43  C   UNL     1      16.125  52.403  45.648  1.00  0.00     0.003 A 
HETATM   44  C   UNL     1      16.939  51.724  46.555  1.00  0.00     0.038 A 
ENDBRANCH  37  38
ENDBRANCH   9  37
TORSDOF 9
ENDMDL
MODEL 9
REMARK VINA RESULT:      -9.2      1.924      2.849
REMARK  9 active torsions:
REMARK  status: ('A' for Active; 'I' for Inactive)
REMARK    1  A    between atoms: C_9  and  O_10 
REMARK    2  A    between atoms: O_10  and  C_11 
REMARK    3  A    between atoms: C_22  and  C_23 
REMARK    4  A    between atoms: N_30  and  C_31 
REMARK    5  A    between atoms: C_31  and  C_32 
REMARK    6  A    between atoms: C_32  and  O_33 
REMARK    7  A    between atoms: O_33  and  C_34 
REMARK    8  A    between atoms: C_35  and  C_36 
REMARK    9  A    between atoms: C_36  and  C_37 
ROOT
HETATM    1  H   UNL     1      24.629  48.808  48.945  1.00  0.00     0.188 HD
HETATM    2  N   UNL     1      25.095  47.958  49.277  1.00  0.00    -0.282 NA
HETATM    3  C   UNL     1      24.225  46.990  49.308  1.00  0.00     0.155 C 
HETATM    4  N   UNL     1      22.889  47.159  49.020  1.00  0.00    -0.230 N 
HETATM    5  C   UNL     1      22.014  46.087  49.014  1.00  0.00     0.195 A 
HETATM    6  N   UNL     1      22.295  44.843  49.180  1.00  0.00    -0.183 NA
HETATM    7  N   UNL     1      22.278  48.402  48.840  1.00  0.00    -0.186 NA
HETATM    8  C   UNL     1      20.890  48.303  48.770  1.00  0.00     0.094 A 
HETATM    9  C   UNL     1      20.021  49.323  48.768  1.00  0.00     0.175 C 
HETATM   10  S   UNL     1      20.339  46.619  48.773  1.00  0.00    -0.035 SA
HETATM   11  C   UNL     1      24.607  45.582  49.675  1.00  0.00     0.082 C 
HETATM   12  C   UNL     1      23.623  44.487  49.330  1.00  0.00     0.283 C 
HETATM   13  O   UNL     1      23.983  43.330  49.156  1.00  0.00    -0.265 OA
HETATM   14  C   UNL     1      25.781  45.401  50.312  1.00  0.00     0.034 C 
HETATM   15  H   UNL     1      22.565  49.130  49.496  1.00  0.00     0.154 HD
ENDROOT
BRANCH  14  16
HETATM   16  C   UNL     1      26.318  44.214  50.899  1.00  0.00    -0.007 A 
HETATM   17  C   UNL     1      26.801  43.066  50.206  1.00  0.00     0.002 A 
HETATM   18  C   UNL     1      27.335  42.190  51.163  1.00  0.00     0.045 A 
HETATM   19  C   UNL     1      26.844  42.699  48.841  1.00  0.00     0.014 A 
HETATM   20  C   UNL     1      27.916  40.969  50.778  1.00  0.00     0.030 A 
HETATM   21  N   UNL     1      27.159  42.786  52.397  1.00  0.00    -0.353 N 
HETATM   22  C   UNL     1      27.940  40.628  49.422  1.00  0.00     0.002 A 
HETATM   23  C   UNL     1      27.411  41.480  48.463  1.00  0.00     0.001 A 
HETATM   24  C   UNL     1      26.577  44.023  52.235  1.00  0.00     0.103 A 
BRANCH  21  25
HETATM   25  C   UNL     1      27.610  42.318  53.704  1.00  0.00     0.155 C 
BRANCH  25  26
HETATM   26  C   UNL     1      27.750  43.369  54.806  1.00  0.00     0.196 C 
BRANCH  26  27
HETATM   27  O   UNL     1      29.005  44.024  54.613  1.00  0.00    -0.349 OA
BRANCH  27  28
HETATM   28  C   UNL     1      29.866  44.141  55.666  1.00  0.00     0.075 A 
HETATM   29  C   UNL     1      29.595  45.200  56.555  1.00  0.00    -0.021 A 
HETATM   30  C   UNL     1      30.410  45.375  57.686  1.00  0.00     0.010 A 
HETATM   31  C   UNL     1      31.486  44.522  57.923  1.00  0.00     0.001 A 
HETATM   32  C   UNL     1      31.756  43.486  57.034  1.00  0.00     0.003 A 
HETATM   33  C   UNL     1      30.950  43.293  55.909  1.00  0.00     0.037 A 
BRANCH  29  34
HETATM   34  C   UNL     1      28.438  46.152  56.324  1.00  0.00     0.067 C 
BRANCH  34  35
HETATM   35  C   UNL     1      28.524  47.053  55.118  1.00  0.00    -0.032 C 
HETATM   36  C   UNL     1      27.518  47.627  54.444  1.00  0.00     0.007 C 
ENDBRANCH  34  35
ENDBRANCH  29  34
ENDBRANCH  27  28
ENDBRANCH  26  27
ENDBRANCH  25  26
ENDBRANCH  21  25
ENDBRANCH  14  16
BRANCH   9  37
HETATM   37  O   UNL     1      18.656  49.148  48.748  1.00  0.00    -0.320 OA
BRANCH  37  38
HETATM   38  C   UNL     1      17.842  50.244  48.921  1.00  0.00     0.081 A 
HETATM   39  C   UNL     1      16.541  50.170  48.398  1.00  0.00    -0.028 A 
HETATM   40  C   UNL     1      16.072  48.949  47.660  1.00  0.00     0.051 C 
HETATM   41  C   UNL     1      15.660  51.237  48.619  1.00  0.00     0.009 A 
HETATM   42  C   UNL     1      16.069  52.358  49.344  1.00  0.00     0.001 A 
HETATM   43  C   UNL     1      17.358  52.416  49.871  1.00  0.00     0.003 A 
HETATM   44  C   UNL     1      18.242  51.355  49.672  1.00  0.00     0.038 A 
ENDBRANCH  37  38
ENDBRANCH   9  37
TORSDOF 9
ENDMDL
MODEL 10
REMARK VINA RESULT:      -9.2      2.956     12.914
REMARK  9 active torsions:
REMARK  status: ('A' for Active; 'I' for Inactive)
REMARK    1  A    between atoms: C_9  and  O_10 
REMARK    2  A    between atoms: O_10  and  C_11 
REMARK    3  A    between atoms: C_22  and  C_23 
REMARK    4  A    between atoms: N_30  and  C_31 
REMARK    5  A    between atoms: C_31  and  C_32 
REMARK    6  A    between atoms: C_32  and  O_33 
REMARK    7  A    between atoms: O_33  and  C_34 
REMARK    8  A    between atoms: C_35  and  C_36 
REMARK    9  A    between atoms: C_36  and  C_37 
ROOT
HETATM    1  H   UNL     1      21.972  43.907  49.442  1.00  0.00     0.188 HD
HETATM    2  N   UNL     1      21.499  44.685  48.973  1.00  0.00    -0.282 NA
HETATM    3  C   UNL     1      22.224  45.757  49.109  1.00  0.00     0.155 C 
HETATM    4  N   UNL     1      23.382  45.803  49.852  1.00  0.00    -0.230 N 
HETATM    5  C   UNL     1      24.147  46.954  49.922  1.00  0.00     0.195 A 
HETATM    6  N   UNL     1      23.963  48.058  49.288  1.00  0.00    -0.183 NA
HETATM    7  N   UNL     1      23.819  44.770  50.685  1.00  0.00    -0.186 NA
HETATM    8  C   UNL     1      24.900  45.152  51.477  1.00  0.00     0.094 A 
HETATM    9  C   UNL     1      25.432  44.448  52.486  1.00  0.00     0.175 C 
HETATM   10  S   UNL     1      25.486  46.774  51.072  1.00  0.00    -0.035 SA
HETATM   11  C   UNL     1      21.849  47.065  48.465  1.00  0.00     0.082 C 
HETATM   12  C   UNL     1      22.923  48.126  48.380  1.00  0.00     0.283 C 
HETATM   13  O   UNL     1      22.897  48.999  47.522  1.00  0.00    -0.265 OA
HETATM   14  C   UNL     1      20.578  47.207  48.040  1.00  0.00     0.034 C 
HETATM   15  H   UNL     1      23.092  44.320  51.242  1.00  0.00     0.154 HD
ENDROOT
BRANCH  14  16
HETATM   16  C   UNL     1      19.918  48.369  47.534  1.00  0.00    -0.007 A 
HETATM   17  C   UNL     1      19.661  49.578  48.244  1.00  0.00     0.002 A 
HETATM   18  C   UNL     1      19.093  50.487  47.337  1.00  0.00     0.045 A 
HETATM   19  C   UNL     1      19.875  49.988  49.580  1.00  0.00     0.014 A 
HETATM   20  C   UNL     1      18.751  51.789  47.739  1.00  0.00     0.030 A 
HETATM   21  N   UNL     1      18.993  49.834  46.123  1.00  0.00    -0.353 N 
HETATM   22  C   UNL     1      18.967  52.166  49.068  1.00  0.00     0.002 A 
HETATM   23  C   UNL     1      19.522  51.278  49.980  1.00  0.00     0.001 A 
HETATM   24  C   UNL     1      19.523  48.568  46.233  1.00  0.00     0.103 A 
BRANCH  21  25
HETATM   25  C   UNL     1      18.541  50.365  44.841  1.00  0.00     0.155 C 
BRANCH  25  26
HETATM   26  C   UNL     1      17.850  49.387  43.890  1.00  0.00     0.196 C 
BRANCH  26  27
HETATM   27  O   UNL     1      16.501  49.829  43.730  1.00  0.00    -0.349 OA
BRANCH  27  28
HETATM   28  C   UNL     1      15.482  49.038  44.176  1.00  0.00     0.075 A 
HETATM   29  C   UNL     1      14.781  49.527  45.296  1.00  0.00    -0.021 A 
HETATM   30  C   UNL     1      13.695  48.794  45.803  1.00  0.00     0.010 A 
HETATM   31  C   UNL     1      13.321  47.587  45.217  1.00  0.00     0.001 A 
HETATM   32  C   UNL     1      14.025  47.102  44.119  1.00  0.00     0.003 A 
HETATM   33  C   UNL     1      15.103  47.823  43.598  1.00  0.00     0.037 A 
BRANCH  29  34
HETATM   34  C   UNL     1      15.167  50.833  45.964  1.00  0.00     0.067 C 
BRANCH  34  35
HETATM   35  C   UNL     1      14.450  52.075  45.502  1.00  0.00    -0.032 C 
HETATM   36  C   UNL     1      13.829  52.282  44.332  1.00  0.00     0.007 C 
ENDBRANCH  34  35
ENDBRANCH  29  34
ENDBRANCH  27  28
ENDBRANCH  26  27
ENDBRANCH  25  26
ENDBRANCH  21  25
ENDBRANCH  14  16
BRANCH   9  37
HETATM   37  O   UNL     1      26.471  44.912  53.260  1.00  0.00    -0.320 OA
BRANCH  37  38
HETATM   38  C   UNL     1      27.661  44.222  53.259  1.00  0.00     0.081 A 
HETATM   39  C   UNL     1      28.527  44.429  54.345  1.00  0.00    -0.028 A 
HETATM   40  C   UNL     1      28.171  45.384  55.449  1.00  0.00     0.051 C 
HETATM   41  C   UNL     1      29.715  43.688  54.416  1.00  0.00     0.009 A 
HETATM   42  C   UNL     1      30.035  42.763  53.420  1.00  0.00     0.001 A 
HETATM   43  C   UNL     1      29.163  42.556  52.353  1.00  0.00     0.003 A 
HETATM   44  C   UNL     1      27.969  43.275  52.277  1.00  0.00     0.038 A 
ENDBRANCH  37  38
ENDBRANCH   9  37
TORSDOF 9
ENDMDL
