MODEL 1
REMARK VINA RESULT:      -8.2      0.000      0.000
REMARK  3 active torsions:
REMARK  status: ('A' for Active; 'I' for Inactive)
REMARK    1  A    between atoms: C_9  and  C_10 
REMARK    2  A    between atoms: C_16  and  C_17 
REMARK       I    between atoms: C_17  and  N_18 
REMARK    3  A    between atoms: N_18  and  C_19 
ROOT
HETATM    1  C   UNL     1      25.023  46.857  51.742  1.00  0.00     0.070 C 
HETATM    2  C   UNL     1      24.659  45.537  51.109  1.00  0.00     0.037 C 
HETATM    3  N   UNL     1      23.814  45.612  50.006  1.00  0.00    -0.191 N 
HETATM    4  C   UNL     1      23.208  44.530  49.475  1.00  0.00     0.735 A 
HETATM    5  N   UNL     1      23.534  43.285  49.938  1.00  0.00    -0.092 N 
HETATM    6  N   UNL     1      22.770  42.355  49.343  1.00  0.00     0.012 NA
HETATM    7  N   UNL     1      22.018  43.039  48.486  1.00  0.00     0.033 NA
HETATM    8  N   UNL     1      22.281  44.395  48.559  1.00  0.00     0.030 NA
HETATM    9  C   UNL     1      24.530  43.020  50.974  1.00  0.00     0.198 C 
HETATM   10  C   UNL     1      25.040  44.323  51.582  1.00  0.00     0.062 C 
HETATM   11  H   UNL     1      23.474  46.534  49.736  1.00  0.00     0.184 HD
ENDROOT
BRANCH  10  12
HETATM   12  C   UNL     1      25.879  44.131  52.796  1.00  0.00     0.257 C 
HETATM   13  N   UNL     1      27.226  44.226  52.535  1.00  0.00    -0.308 N 
HETATM   14  H   UNL     1      27.519  44.369  51.581  1.00  0.00     0.170 HD
HETATM   15  O   UNL     1      25.315  43.874  53.851  1.00  0.00    -0.267 OA
BRANCH  13  16
HETATM   16  C   UNL     1      28.242  44.143  53.496  1.00  0.00     0.129 A 
HETATM   17  N   UNL     1      28.321  45.039  54.493  1.00  0.00    -0.243 NA
HETATM   18  C   UNL     1      29.330  44.915  55.381  1.00  0.00     0.119 A 
HETATM   19  C   UNL     1      30.296  43.928  55.314  1.00  0.00     0.019 A 
HETATM   20  C   UNL     1      30.214  43.010  54.276  1.00  0.00     0.005 A 
HETATM   21  C   UNL     1      29.171  43.114  53.356  1.00  0.00     0.050 A 
ENDBRANCH  13  16
ENDBRANCH  10  12
BRANCH   9  22
HETATM   22  C   UNL     1      25.665  42.167  50.413  1.00  0.00    -0.029 A 
HETATM   23  C   UNL     1      26.127  41.014  51.074  1.00  0.00     0.009 A 
HETATM   24  C   UNL     1      27.168  40.256  50.535  1.00  0.00     0.001 A 
HETATM   25  C   UNL     1      27.755  40.632  49.329  1.00  0.00     0.000 A 
HETATM   26  C   UNL     1      27.298  41.761  48.655  1.00  0.00     0.001 A 
HETATM   27  C   UNL     1      26.258  42.522  49.190  1.00  0.00     0.009 A 
ENDBRANCH   9  22
TORSDOF 3
ENDMDL
MODEL 2
REMARK VINA RESULT:      -8.0      0.632      1.382
REMARK  3 active torsions:
REMARK  status: ('A' for Active; 'I' for Inactive)
REMARK    1  A    between atoms: C_9  and  C_10 
REMARK    2  A    between atoms: C_16  and  C_17 
REMARK       I    between atoms: C_17  and  N_18 
REMARK    3  A    between atoms: N_18  and  C_19 
ROOT
HETATM    1  C   UNL     1      25.356  46.888  51.836  1.00  0.00     0.070 C 
HETATM    2  C   UNL     1      24.870  45.619  51.182  1.00  0.00     0.037 C 
HETATM    3  N   UNL     1      23.966  45.788  50.138  1.00  0.00    -0.191 N 
HETATM    4  C   UNL     1      23.261  44.767  49.609  1.00  0.00     0.735 A 
HETATM    5  N   UNL     1      23.533  43.488  50.006  1.00  0.00    -0.092 N 
HETATM    6  N   UNL     1      22.676  42.630  49.429  1.00  0.00     0.012 NA
HETATM    7  N   UNL     1      21.920  43.393  48.645  1.00  0.00     0.033 NA
HETATM    8  N   UNL     1      22.273  44.726  48.749  1.00  0.00     0.030 NA
HETATM    9  C   UNL     1      24.572  43.121  50.968  1.00  0.00     0.198 C 
HETATM   10  C   UNL     1      25.199  44.365  51.588  1.00  0.00     0.062 C 
HETATM   11  H   UNL     1      23.671  46.739  49.923  1.00  0.00     0.184 HD
ENDROOT
BRANCH  10  12
HETATM   12  C   UNL     1      26.097  44.075  52.739  1.00  0.00     0.257 C 
HETATM   13  N   UNL     1      27.430  44.138  52.408  1.00  0.00    -0.308 N 
HETATM   14  H   UNL     1      27.675  44.325  51.447  1.00  0.00     0.170 HD
HETATM   15  O   UNL     1      25.583  43.778  53.809  1.00  0.00    -0.267 OA
BRANCH  13  16
HETATM   16  C   UNL     1      28.494  43.964  53.302  1.00  0.00     0.129 A 
HETATM   17  N   UNL     1      29.423  43.018  53.091  1.00  0.00    -0.243 NA
HETATM   18  C   UNL     1      30.417  42.890  53.996  1.00  0.00     0.119 A 
HETATM   19  C   UNL     1      30.526  43.669  55.133  1.00  0.00     0.019 A 
HETATM   20  C   UNL     1      29.558  44.640  55.350  1.00  0.00     0.005 A 
HETATM   21  C   UNL     1      28.530  44.795  54.420  1.00  0.00     0.050 A 
ENDBRANCH  13  16
ENDBRANCH  10  12
BRANCH   9  22
HETATM   22  C   UNL     1      25.613  42.221  50.308  1.00  0.00    -0.029 A 
HETATM   23  C   UNL     1      26.344  42.633  49.178  1.00  0.00     0.009 A 
HETATM   24  C   UNL     1      27.288  41.784  48.596  1.00  0.00     0.001 A 
HETATM   25  C   UNL     1      27.521  40.523  49.137  1.00  0.00     0.000 A 
HETATM   26  C   UNL     1      26.817  40.107  50.264  1.00  0.00     0.001 A 
HETATM   27  C   UNL     1      25.872  40.951  50.849  1.00  0.00     0.009 A 
ENDBRANCH   9  22
TORSDOF 3
ENDMDL
MODEL 3
REMARK VINA RESULT:      -7.8      2.965      7.578
REMARK  3 active torsions:
REMARK  status: ('A' for Active; 'I' for Inactive)
REMARK    1  A    between atoms: C_9  and  C_10 
REMARK    2  A    between atoms: C_16  and  C_17 
REMARK       I    between atoms: C_17  and  N_18 
REMARK    3  A    between atoms: N_18  and  C_19 
ROOT
HETATM    1  C   UNL     1      25.571  42.787  50.828  1.00  0.00     0.070 C 
HETATM    2  C   UNL     1      25.555  44.235  51.251  1.00  0.00     0.037 C 
HETATM    3  N   UNL     1      26.208  44.519  52.447  1.00  0.00    -0.191 N 
HETATM    4  C   UNL     1      26.087  45.703  53.082  1.00  0.00     0.735 A 
HETATM    5  N   UNL     1      25.414  46.725  52.472  1.00  0.00    -0.092 N 
HETATM    6  N   UNL     1      25.336  47.784  53.294  1.00  0.00     0.012 NA
HETATM    7  N   UNL     1      26.007  47.413  54.380  1.00  0.00     0.033 NA
HETATM    8  N   UNL     1      26.480  46.119  54.261  1.00  0.00     0.030 NA
HETATM    9  C   UNL     1      24.816  46.647  51.140  1.00  0.00     0.198 C 
HETATM   10  C   UNL     1      24.904  45.226  50.590  1.00  0.00     0.062 C 
HETATM   11  H   UNL     1      26.605  43.735  52.962  1.00  0.00     0.184 HD
ENDROOT
BRANCH  10  12
HETATM   12  C   UNL     1      24.115  45.015  49.346  1.00  0.00     0.257 C 
HETATM   13  N   UNL     1      22.830  45.494  49.439  1.00  0.00    -0.308 N 
HETATM   14  H   UNL     1      22.531  45.892  50.317  1.00  0.00     0.170 HD
HETATM   15  O   UNL     1      24.650  44.422  48.419  1.00  0.00    -0.267 OA
BRANCH  13  16
HETATM   16  C   UNL     1      21.885  45.481  48.405  1.00  0.00     0.129 A 
HETATM   17  N   UNL     1      21.082  44.422  48.220  1.00  0.00    -0.243 NA
HETATM   18  C   UNL     1      20.201  44.462  47.198  1.00  0.00     0.119 A 
HETATM   19  C   UNL     1      20.088  45.526  46.322  1.00  0.00     0.019 A 
HETATM   20  C   UNL     1      20.927  46.615  46.513  1.00  0.00     0.005 A 
HETATM   21  C   UNL     1      21.835  46.597  47.572  1.00  0.00     0.050 A 
ENDBRANCH  13  16
ENDBRANCH  10  12
BRANCH   9  22
HETATM   22  C   UNL     1      25.466  47.664  50.207  1.00  0.00    -0.029 A 
HETATM   23  C   UNL     1      26.859  47.720  50.019  1.00  0.00     0.009 A 
HETATM   24  C   UNL     1      27.422  48.665  49.158  1.00  0.00     0.001 A 
HETATM   25  C   UNL     1      26.605  49.558  48.470  1.00  0.00     0.000 A 
HETATM   26  C   UNL     1      25.223  49.505  48.633  1.00  0.00     0.001 A 
HETATM   27  C   UNL     1      24.656  48.563  49.492  1.00  0.00     0.009 A 
ENDBRANCH   9  22
TORSDOF 3
ENDMDL
MODEL 4
REMARK VINA RESULT:      -7.7      5.493      8.119
REMARK  3 active torsions:
REMARK  status: ('A' for Active; 'I' for Inactive)
REMARK    1  A    between atoms: C_9  and  C_10 
REMARK    2  A    between atoms: C_16  and  C_17 
REMARK       I    between atoms: C_17  and  N_18 
REMARK    3  A    between atoms: N_18  and  C_19 
ROOT
HETATM    1  C   UNL     1      23.147  51.148  48.154  1.00  0.00     0.070 C 
HETATM    2  C   UNL     1      21.788  50.620  48.542  1.00  0.00     0.037 C 
HETATM    3  N   UNL     1      20.821  51.586  48.803  1.00  0.00    -0.191 N 
HETATM    4  C   UNL     1      19.638  51.296  49.384  1.00  0.00     0.735 A 
HETATM    5  N   UNL     1      19.302  49.990  49.606  1.00  0.00    -0.092 N 
HETATM    6  N   UNL     1      18.132  49.917  50.261  1.00  0.00     0.012 NA
HETATM    7  N   UNL     1      17.743  51.182  50.389  1.00  0.00     0.033 NA
HETATM    8  N   UNL     1      18.672  52.051  49.848  1.00  0.00     0.030 NA
HETATM    9  C   UNL     1      20.131  48.845  49.233  1.00  0.00     0.198 C 
HETATM   10  C   UNL     1      21.489  49.307  48.712  1.00  0.00     0.062 C 
HETATM   11  H   UNL     1      21.107  52.562  48.755  1.00  0.00     0.184 HD
ENDROOT
BRANCH  10  12
HETATM   12  C   UNL     1      22.470  48.202  48.532  1.00  0.00     0.257 C 
HETATM   13  N   UNL     1      23.205  47.949  49.666  1.00  0.00    -0.308 N 
HETATM   14  H   UNL     1      23.054  48.534  50.474  1.00  0.00     0.170 HD
HETATM   15  O   UNL     1      22.553  47.681  47.428  1.00  0.00    -0.267 OA
BRANCH  13  16
HETATM   16  C   UNL     1      24.158  46.931  49.801  1.00  0.00     0.129 A 
HETATM   17  N   UNL     1      23.782  45.647  49.907  1.00  0.00    -0.243 NA
HETATM   18  C   UNL     1      24.746  44.712  50.047  1.00  0.00     0.119 A 
HETATM   19  C   UNL     1      26.097  45.002  50.102  1.00  0.00     0.019 A 
HETATM   20  C   UNL     1      26.478  46.333  49.999  1.00  0.00     0.005 A 
HETATM   21  C   UNL     1      25.497  47.312  49.841  1.00  0.00     0.050 A 
ENDBRANCH  13  16
ENDBRANCH  10  12
BRANCH   9  22
HETATM   22  C   UNL     1      19.399  47.966  48.223  1.00  0.00    -0.029 A 
HETATM   23  C   UNL     1      19.077  48.423  46.932  1.00  0.00     0.009 A 
HETATM   24  C   UNL     1      18.404  47.594  46.033  1.00  0.00     0.001 A 
HETATM   25  C   UNL     1      18.052  46.299  46.405  1.00  0.00     0.000 A 
HETATM   26  C   UNL     1      18.378  45.826  47.674  1.00  0.00     0.001 A 
HETATM   27  C   UNL     1      19.050  46.651  48.576  1.00  0.00     0.009 A 
ENDBRANCH   9  22
TORSDOF 3
ENDMDL
MODEL 5
REMARK VINA RESULT:      -7.6     11.529     13.529
REMARK  3 active torsions:
REMARK  status: ('A' for Active; 'I' for Inactive)
REMARK    1  A    between atoms: C_9  and  C_10 
REMARK    2  A    between atoms: C_16  and  C_17 
REMARK       I    between atoms: C_17  and  N_18 
REMARK    3  A    between atoms: N_18  and  C_19 
ROOT
HETATM    1  C   UNL     1      25.091  49.079  39.350  1.00  0.00     0.070 C 
HETATM    2  C   UNL     1      26.533  49.449  39.108  1.00  0.00     0.037 C 
HETATM    3  N   UNL     1      26.772  50.794  38.839  1.00  0.00    -0.191 N 
HETATM    4  C   UNL     1      27.953  51.247  38.372  1.00  0.00     0.735 A 
HETATM    5  N   UNL     1      29.013  50.388  38.284  1.00  0.00    -0.092 N 
HETATM    6  N   UNL     1      30.066  51.006  37.725  1.00  0.00     0.012 NA
HETATM    7  N   UNL     1      29.651  52.253  37.522  1.00  0.00     0.033 NA
HETATM    8  N   UNL     1      28.336  52.415  37.919  1.00  0.00     0.030 NA
HETATM    9  C   UNL     1      28.979  48.984  38.690  1.00  0.00     0.198 C 
HETATM   10  C   UNL     1      27.562  48.564  39.070  1.00  0.00     0.062 C 
HETATM   11  H   UNL     1      25.964  51.412  38.784  1.00  0.00     0.184 HD
ENDROOT
BRANCH  10  12
HETATM   12  C   UNL     1      27.404  47.098  39.269  1.00  0.00     0.257 C 
HETATM   13  N   UNL     1      27.391  46.737  40.596  1.00  0.00    -0.308 N 
HETATM   14  H   UNL     1      27.526  47.458  41.288  1.00  0.00     0.170 HD
HETATM   15  O   UNL     1      27.349  46.385  38.277  1.00  0.00    -0.267 OA
BRANCH  13  16
HETATM   16  C   UNL     1      27.200  45.435  41.077  1.00  0.00     0.129 A 
HETATM   17  N   UNL     1      27.900  44.406  40.573  1.00  0.00    -0.243 NA
HETATM   18  C   UNL     1      27.663  43.173  41.068  1.00  0.00     0.119 A 
HETATM   19  C   UNL     1      26.732  42.906  42.054  1.00  0.00     0.019 A 
HETATM   20  C   UNL     1      26.005  43.973  42.565  1.00  0.00     0.005 A 
HETATM   21  C   UNL     1      26.245  45.257  42.075  1.00  0.00     0.050 A 
ENDBRANCH  13  16
ENDBRANCH  10  12
BRANCH   9  22
HETATM   22  C   UNL     1      29.974  48.733  39.820  1.00  0.00    -0.029 A 
HETATM   23  C   UNL     1      31.100  47.906  39.652  1.00  0.00     0.009 A 
HETATM   24  C   UNL     1      31.990  47.696  40.707  1.00  0.00     0.001 A 
HETATM   25  C   UNL     1      31.775  48.313  41.936  1.00  0.00     0.000 A 
HETATM   26  C   UNL     1      30.674  49.147  42.114  1.00  0.00     0.001 A 
HETATM   27  C   UNL     1      29.782  49.360  41.063  1.00  0.00     0.009 A 
ENDBRANCH   9  22
TORSDOF 3
ENDMDL
MODEL 6
REMARK VINA RESULT:      -7.5      2.239      5.393
REMARK  3 active torsions:
REMARK  status: ('A' for Active; 'I' for Inactive)
REMARK    1  A    between atoms: C_9  and  C_10 
REMARK    2  A    between atoms: C_16  and  C_17 
REMARK       I    between atoms: C_17  and  N_18 
REMARK    3  A    between atoms: N_18  and  C_19 
ROOT
HETATM    1  C   UNL     1      22.768  43.404  48.851  1.00  0.00     0.070 C 
HETATM    2  C   UNL     1      23.842  44.259  49.477  1.00  0.00     0.037 C 
HETATM    3  N   UNL     1      23.525  45.605  49.631  1.00  0.00    -0.191 N 
HETATM    4  C   UNL     1      24.444  46.539  49.949  1.00  0.00     0.735 A 
HETATM    5  N   UNL     1      25.713  46.148  50.273  1.00  0.00    -0.092 N 
HETATM    6  N   UNL     1      26.492  47.223  50.478  1.00  0.00     0.012 NA
HETATM    7  N   UNL     1      25.674  48.260  50.324  1.00  0.00     0.033 NA
HETATM    8  N   UNL     1      24.397  47.848  49.994  1.00  0.00     0.030 NA
HETATM    9  C   UNL     1      26.165  44.759  50.329  1.00  0.00     0.198 C 
HETATM   10  C   UNL     1      25.078  43.816  49.821  1.00  0.00     0.062 C 
HETATM   11  H   UNL     1      22.623  45.918  49.277  1.00  0.00     0.184 HD
ENDROOT
BRANCH  10  12
HETATM   12  C   UNL     1      25.542  42.415  49.628  1.00  0.00     0.257 C 
HETATM   13  N   UNL     1      26.455  42.289  48.607  1.00  0.00    -0.308 N 
HETATM   14  H   UNL     1      26.690  43.111  48.073  1.00  0.00     0.170 HD
HETATM   15  O   UNL     1      25.053  41.545  50.335  1.00  0.00    -0.267 OA
BRANCH  13  16
HETATM   16  C   UNL     1      27.098  41.100  48.242  1.00  0.00     0.129 A 
HETATM   17  N   UNL     1      26.723  40.423  47.145  1.00  0.00    -0.243 NA
HETATM   18  C   UNL     1      27.372  39.277  46.851  1.00  0.00     0.119 A 
HETATM   19  C   UNL     1      28.393  38.752  47.622  1.00  0.00     0.019 A 
HETATM   20  C   UNL     1      28.771  39.452  48.759  1.00  0.00     0.005 A 
HETATM   21  C   UNL     1      28.120  40.645  49.072  1.00  0.00     0.050 A 
ENDBRANCH  13  16
ENDBRANCH  10  12
BRANCH   9  22
HETATM   22  C   UNL     1      26.618  44.404  51.742  1.00  0.00    -0.029 A 
HETATM   23  C   UNL     1      27.944  44.033  52.029  1.00  0.00     0.009 A 
HETATM   24  C   UNL     1      28.325  43.712  53.333  1.00  0.00     0.001 A 
HETATM   25  C   UNL     1      27.394  43.765  54.367  1.00  0.00     0.000 A 
HETATM   26  C   UNL     1      26.081  44.146  54.102  1.00  0.00     0.001 A 
HETATM   27  C   UNL     1      25.695  44.468  52.800  1.00  0.00     0.009 A 
ENDBRANCH   9  22
TORSDOF 3
ENDMDL
MODEL 7
REMARK VINA RESULT:      -7.2     12.346     14.592
REMARK  3 active torsions:
REMARK  status: ('A' for Active; 'I' for Inactive)
REMARK    1  A    between atoms: C_9  and  C_10 
REMARK    2  A    between atoms: C_16  and  C_17 
REMARK       I    between atoms: C_17  and  N_18 
REMARK    3  A    between atoms: N_18  and  C_19 
ROOT
HETATM    1  C   UNL     1      32.125  47.149  40.637  1.00  0.00     0.070 C 
HETATM    2  C   UNL     1      32.127  48.547  41.204  1.00  0.00     0.037 C 
HETATM    3  N   UNL     1      33.382  49.115  41.401  1.00  0.00    -0.191 N 
HETATM    4  C   UNL     1      33.568  50.247  42.111  1.00  0.00     0.735 A 
HETATM    5  N   UNL     1      32.481  50.955  42.541  1.00  0.00    -0.092 N 
HETATM    6  N   UNL     1      32.873  51.997  43.292  1.00  0.00     0.012 NA
HETATM    7  N   UNL     1      34.201  51.941  43.270  1.00  0.00     0.033 NA
HETATM    8  N   UNL     1      34.647  50.856  42.539  1.00  0.00     0.030 NA
HETATM    9  C   UNL     1      31.092  50.589  42.269  1.00  0.00     0.198 C 
HETATM   10  C   UNL     1      31.015  49.229  41.581  1.00  0.00     0.062 C 
HETATM   11  H   UNL     1      34.195  48.538  41.193  1.00  0.00     0.184 HD
ENDROOT
BRANCH  10  12
HETATM   12  C   UNL     1      29.634  48.685  41.481  1.00  0.00     0.257 C 
HETATM   13  N   UNL     1      29.140  48.710  40.197  1.00  0.00    -0.308 N 
HETATM   14  H   UNL     1      29.713  49.116  39.473  1.00  0.00     0.170 HD
HETATM   15  O   UNL     1      29.080  48.325  42.511  1.00  0.00    -0.267 OA
BRANCH  13  16
HETATM   16  C   UNL     1      27.893  48.211  39.801  1.00  0.00     0.129 A 
HETATM   17  N   UNL     1      27.788  47.012  39.208  1.00  0.00    -0.243 NA
HETATM   18  C   UNL     1      26.561  46.590  38.837  1.00  0.00     0.119 A 
HETATM   19  C   UNL     1      25.406  47.329  39.021  1.00  0.00     0.019 A 
HETATM   20  C   UNL     1      25.521  48.572  39.627  1.00  0.00     0.005 A 
HETATM   21  C   UNL     1      26.780  49.019  40.029  1.00  0.00     0.050 A 
ENDBRANCH  13  16
ENDBRANCH  10  12
BRANCH   9  22
HETATM   22  C   UNL     1      30.404  51.683  41.456  1.00  0.00    -0.029 A 
HETATM   23  C   UNL     1      29.136  52.184  41.803  1.00  0.00     0.009 A 
HETATM   24  C   UNL     1      28.534  53.183  41.037  1.00  0.00     0.001 A 
HETATM   25  C   UNL     1      29.190  53.701  39.923  1.00  0.00     0.000 A 
HETATM   26  C   UNL     1      30.453  53.227  39.575  1.00  0.00     0.001 A 
HETATM   27  C   UNL     1      31.059  52.228  40.338  1.00  0.00     0.009 A 
ENDBRANCH   9  22
TORSDOF 3
ENDMDL
MODEL 8
REMARK VINA RESULT:      -7.2     12.418     14.196
REMARK  3 active torsions:
REMARK  status: ('A' for Active; 'I' for Inactive)
REMARK    1  A    between atoms: C_9  and  C_10 
REMARK    2  A    between atoms: C_16  and  C_17 
REMARK       I    between atoms: C_17  and  N_18 
REMARK    3  A    between atoms: N_18  and  C_19 
ROOT
HETATM    1  C   UNL     1      25.184  48.991  39.476  1.00  0.00     0.070 C 
HETATM    2  C   UNL     1      26.618  49.391  39.229  1.00  0.00     0.037 C 
HETATM    3  N   UNL     1      26.819  50.721  38.873  1.00  0.00    -0.191 N 
HETATM    4  C   UNL     1      27.994  51.179  38.393  1.00  0.00     0.735 A 
HETATM    5  N   UNL     1      29.081  50.351  38.380  1.00  0.00    -0.092 N 
HETATM    6  N   UNL     1      30.123  50.963  37.795  1.00  0.00     0.012 NA
HETATM    7  N   UNL     1      29.673  52.179  37.501  1.00  0.00     0.033 NA
HETATM    8  N   UNL     1      28.347  52.326  37.868  1.00  0.00     0.030 NA
HETATM    9  C   UNL     1      29.084  48.977  38.880  1.00  0.00     0.198 C 
HETATM   10  C   UNL     1      27.674  48.539  39.267  1.00  0.00     0.062 C 
HETATM   11  H   UNL     1      25.993  51.307  38.765  1.00  0.00     0.184 HD
ENDROOT
BRANCH  10  12
HETATM   12  C   UNL     1      27.558  47.085  39.563  1.00  0.00     0.257 C 
HETATM   13  N   UNL     1      27.663  46.300  38.439  1.00  0.00    -0.308 N 
HETATM   14  H   UNL     1      27.764  46.756  37.545  1.00  0.00     0.170 HD
HETATM   15  O   UNL     1      27.345  46.749  40.720  1.00  0.00    -0.267 OA
BRANCH  13  16
HETATM   16  C   UNL     1      27.647  44.899  38.428  1.00  0.00     0.129 A 
HETATM   17  N   UNL     1      26.492  44.226  38.302  1.00  0.00    -0.243 NA
HETATM   18  C   UNL     1      26.538  42.876  38.312  1.00  0.00     0.119 A 
HETATM   19  C   UNL     1      27.704  42.148  38.457  1.00  0.00     0.019 A 
HETATM   20  C   UNL     1      28.894  42.850  38.594  1.00  0.00     0.005 A 
HETATM   21  C   UNL     1      28.868  44.244  38.575  1.00  0.00     0.050 A 
ENDBRANCH  13  16
ENDBRANCH  10  12
BRANCH   9  22
HETATM   22  C   UNL     1      30.067  48.835  40.038  1.00  0.00    -0.029 A 
HETATM   23  C   UNL     1      29.870  49.491  41.267  1.00  0.00     0.009 A 
HETATM   24  C   UNL     1      30.790  49.342  42.307  1.00  0.00     0.001 A 
HETATM   25  C   UNL     1      31.910  48.533  42.138  1.00  0.00     0.000 A 
HETATM   26  C   UNL     1      32.111  47.864  40.933  1.00  0.00     0.001 A 
HETATM   27  C   UNL     1      31.195  48.010  39.891  1.00  0.00     0.009 A 
ENDBRANCH   9  22
TORSDOF 3
ENDMDL
MODEL 9
REMARK VINA RESULT:      -7.2     17.359     20.041
REMARK  3 active torsions:
REMARK  status: ('A' for Active; 'I' for Inactive)
REMARK    1  A    between atoms: C_9  and  C_10 
REMARK    2  A    between atoms: C_16  and  C_17 
REMARK       I    between atoms: C_17  and  N_18 
REMARK    3  A    between atoms: N_18  and  C_19 
ROOT
HETATM    1  C   UNL     1      35.313  47.581  67.032  1.00  0.00     0.070 C 
HETATM    2  C   UNL     1      36.565  48.378  66.758  1.00  0.00     0.037 C 
HETATM    3  N   UNL     1      36.745  49.505  67.553  1.00  0.00    -0.191 N 
HETATM    4  C   UNL     1      37.674  50.447  67.286  1.00  0.00     0.735 A 
HETATM    5  N   UNL     1      38.574  50.233  66.279  1.00  0.00    -0.092 N 
HETATM    6  N   UNL     1      39.356  51.313  66.120  1.00  0.00     0.012 NA
HETATM    7  N   UNL     1      38.955  52.157  67.066  1.00  0.00     0.033 NA
HETATM    8  N   UNL     1      37.908  51.629  67.799  1.00  0.00     0.030 NA
HETATM    9  C   UNL     1      38.631  49.024  65.460  1.00  0.00     0.198 C 
HETATM   10  C   UNL     1      37.454  48.104  65.769  1.00  0.00     0.062 C 
HETATM   11  H   UNL     1      36.011  49.730  68.222  1.00  0.00     0.184 HD
ENDROOT
BRANCH  10  12
HETATM   12  C   UNL     1      37.314  46.968  64.818  1.00  0.00     0.257 C 
HETATM   13  N   UNL     1      37.945  45.826  65.253  1.00  0.00    -0.308 N 
HETATM   14  H   UNL     1      38.460  45.865  66.119  1.00  0.00     0.170 HD
HETATM   15  O   UNL     1      36.717  47.166  63.769  1.00  0.00    -0.267 OA
BRANCH  13  16
HETATM   16  C   UNL     1      37.930  44.593  64.588  1.00  0.00     0.129 A 
HETATM   17  N   UNL     1      37.053  43.636  64.932  1.00  0.00    -0.243 NA
HETATM   18  C   UNL     1      37.096  42.464  64.264  1.00  0.00     0.119 A 
HETATM   19  C   UNL     1      38.001  42.186  63.256  1.00  0.00     0.019 A 
HETATM   20  C   UNL     1      38.911  43.176  62.911  1.00  0.00     0.005 A 
HETATM   21  C   UNL     1      38.873  44.399  63.581  1.00  0.00     0.050 A 
ENDBRANCH  13  16
ENDBRANCH  10  12
BRANCH   9  22
HETATM   22  C   UNL     1      39.973  48.321  65.645  1.00  0.00    -0.029 A 
HETATM   23  C   UNL     1      40.655  47.721  64.570  1.00  0.00     0.009 A 
HETATM   24  C   UNL     1      41.880  47.084  64.774  1.00  0.00     0.001 A 
HETATM   25  C   UNL     1      42.444  47.043  66.046  1.00  0.00     0.000 A 
HETATM   26  C   UNL     1      41.790  47.646  67.118  1.00  0.00     0.001 A 
HETATM   27  C   UNL     1      40.564  48.284  66.919  1.00  0.00     0.009 A 
ENDBRANCH   9  22
TORSDOF 3
ENDMDL
MODEL 10
REMARK VINA RESULT:      -7.0     16.676     18.391
REMARK  3 active torsions:
REMARK  status: ('A' for Active; 'I' for Inactive)
REMARK    1  A    between atoms: C_9  and  C_10 
REMARK    2  A    between atoms: C_16  and  C_17 
REMARK       I    between atoms: C_17  and  N_18 
REMARK    3  A    between atoms: N_18  and  C_19 
ROOT
HETATM    1  C   UNL     1      36.671  46.617  65.173  1.00  0.00     0.070 C 
HETATM    2  C   UNL     1      36.486  45.121  65.223  1.00  0.00     0.037 C 
HETATM    3  N   UNL     1      35.185  44.669  65.028  1.00  0.00    -0.191 N 
HETATM    4  C   UNL     1      34.808  43.397  65.274  1.00  0.00     0.735 A 
HETATM    5  N   UNL     1      35.757  42.467  65.595  1.00  0.00    -0.092 N 
HETATM    6  N   UNL     1      35.176  41.291  65.880  1.00  0.00     0.012 NA
HETATM    7  N   UNL     1      33.879  41.503  65.681  1.00  0.00     0.033 NA
HETATM    8  N   UNL     1      33.636  42.812  65.305  1.00  0.00     0.030 NA
HETATM    9  C   UNL     1      37.192  42.739  65.672  1.00  0.00     0.198 C 
HETATM   10  C   UNL     1      37.470  44.230  65.507  1.00  0.00     0.062 C 
HETATM   11  H   UNL     1      34.457  45.372  64.910  1.00  0.00     0.184 HD
ENDROOT
BRANCH  10  12
HETATM   12  C   UNL     1      38.877  44.613  65.804  1.00  0.00     0.257 C 
HETATM   13  N   UNL     1      39.547  45.086  64.700  1.00  0.00    -0.308 N 
HETATM   14  H   UNL     1      39.064  45.092  63.815  1.00  0.00     0.170 HD
HETATM   15  O   UNL     1      39.294  44.437  66.940  1.00  0.00    -0.267 OA
BRANCH  13  16
HETATM   16  C   UNL     1      40.862  45.569  64.699  1.00  0.00     0.129 A 
HETATM   17  N   UNL     1      41.187  46.681  65.378  1.00  0.00    -0.243 NA
HETATM   18  C   UNL     1      42.468  47.105  65.328  1.00  0.00     0.119 A 
HETATM   19  C   UNL     1      43.461  46.469  64.607  1.00  0.00     0.019 A 
HETATM   20  C   UNL     1      43.117  45.325  63.900  1.00  0.00     0.005 A 
HETATM   21  C   UNL     1      41.801  44.864  63.949  1.00  0.00     0.050 A 
ENDBRANCH  13  16
ENDBRANCH  10  12
BRANCH   9  22
HETATM   22  C   UNL     1      37.947  41.897  64.648  1.00  0.00    -0.029 A 
HETATM   23  C   UNL     1      38.635  40.724  65.009  1.00  0.00     0.009 A 
HETATM   24  C   UNL     1      39.318  39.977  64.047  1.00  0.00     0.001 A 
HETATM   25  C   UNL     1      39.317  40.384  62.715  1.00  0.00     0.000 A 
HETATM   26  C   UNL     1      38.627  41.534  62.339  1.00  0.00     0.001 A 
HETATM   27  C   UNL     1      37.943  42.284  63.297  1.00  0.00     0.009 A 
ENDBRANCH   9  22
TORSDOF 3
ENDMDL
