MODEL 1
REMARK VINA RESULT:      -8.6      0.000      0.000
REMARK  6 active torsions:
REMARK  status: ('A' for Active; 'I' for Inactive)
REMARK    1  A    between atoms: C_2  and  C_3 
REMARK    2  A    between atoms: C_3  and  C_4 
REMARK    3  A    between atoms: C_4  and  C_5 
REMARK    4  A    between atoms: C_4  and  C_21 
REMARK       I    between atoms: C_5  and  N_6 
REMARK    5  A    between atoms: N_6  and  C_7 
REMARK    6  A    between atoms: C_14  and  C_15 
REMARK       I    between atoms: C_15  and  N_16 
ROOT
HETATM    1  C   UNL     1      27.135  41.302  51.384  1.00  0.00     0.035 A 
HETATM    2  C   UNL     1      28.077  40.296  51.130  1.00  0.00     0.046 A 
HETATM    3  C   UNL     1      28.058  39.628  49.886  1.00  0.00     0.030 A 
HETATM    4  C   UNL     1      27.070  39.955  48.965  1.00  0.00     0.063 A 
HETATM    5  N   UNL     1      27.286  39.131  47.897  1.00  0.00    -0.277 N 
HETATM    6  H   UNL     1      26.742  39.077  47.044  1.00  0.00     0.189 HD
HETATM    7  N   UNL     1      28.363  38.337  48.014  1.00  0.00    -0.168 NA
HETATM    8  C   UNL     1      28.857  38.640  49.236  1.00  0.00     0.156 A 
HETATM    9  C   UNL     1      26.113  40.946  49.191  1.00  0.00     0.034 A 
HETATM   10  C   UNL     1      26.185  41.632  50.410  1.00  0.00     0.032 A 
ENDROOT
BRANCH   1  11
HETATM   11  N   UNL     1      27.125  42.057  52.576  1.00  0.00    -0.327 N 
HETATM   12  C   UNL     1      27.868  43.201  52.830  1.00  0.00     0.231 C 
HETATM   13  O   UNL     1      28.710  43.655  52.058  1.00  0.00    -0.272 OA
HETATM   14  H   UNL     1      26.648  41.633  53.361  1.00  0.00     0.169 HD
BRANCH  12  15
HETATM   15  C   UNL     1      27.490  43.941  54.137  1.00  0.00     0.115 C 
BRANCH  15  16
HETATM   16  C   UNL     1      26.408  45.061  53.978  1.00  0.00    -0.001 C 
HETATM   17  C   UNL     1      25.027  44.566  54.433  1.00  0.00     0.011 C 
BRANCH  16  18
HETATM   18  C   UNL     1      26.356  45.684  52.564  1.00  0.00     0.001 C 
HETATM   19  C   UNL     1      25.057  45.409  51.815  1.00  0.00     0.005 C 
ENDBRANCH  16  18
ENDBRANCH  15  16
BRANCH  15  20
HETATM   20  C   UNL     1      28.669  44.422  54.989  1.00  0.00    -0.045 A 
HETATM   21  C   UNL     1      28.553  45.629  55.698  1.00  0.00     0.008 A 
HETATM   22  C   UNL     1      29.599  46.092  56.498  1.00  0.00     0.001 A 
HETATM   23  C   UNL     1      30.778  45.359  56.596  1.00  0.00     0.000 A 
HETATM   24  C   UNL     1      30.914  44.165  55.891  1.00  0.00     0.001 A 
HETATM   25  C   UNL     1      29.868  43.699  55.090  1.00  0.00     0.008 A 
ENDBRANCH  15  20
ENDBRANCH  12  15
ENDBRANCH   1  11
BRANCH   8  26
HETATM   26  C   UNL     1      30.088  38.012  49.736  1.00  0.00     0.270 C 
HETATM   27  N   UNL     1      31.238  38.559  49.233  1.00  0.00    -0.365 N 
HETATM   28  H   UNL     1      31.161  39.350  48.604  1.00  0.00     0.159 HD
HETATM   29  H   UNL     1      32.131  38.231  49.565  1.00  0.00     0.159 HD
HETATM   30  O   UNL     1      30.126  37.097  50.551  1.00  0.00    -0.266 OA
ENDBRANCH   8  26
TORSDOF 6
ENDMDL
MODEL 2
REMARK VINA RESULT:      -8.5      4.513      7.080
REMARK  6 active torsions:
REMARK  status: ('A' for Active; 'I' for Inactive)
REMARK    1  A    between atoms: C_2  and  C_3 
REMARK    2  A    between atoms: C_3  and  C_4 
REMARK    3  A    between atoms: C_4  and  C_5 
REMARK    4  A    between atoms: C_4  and  C_21 
REMARK       I    between atoms: C_5  and  N_6 
REMARK    5  A    between atoms: N_6  and  C_7 
REMARK    6  A    between atoms: C_14  and  C_15 
REMARK       I    between atoms: C_15  and  N_16 
ROOT
HETATM    1  C   UNL     1      25.445  45.801  51.311  1.00  0.00     0.035 A 
HETATM    2  C   UNL     1      25.274  47.034  50.666  1.00  0.00     0.046 A 
HETATM    3  C   UNL     1      24.272  47.166  49.680  1.00  0.00     0.030 A 
HETATM    4  C   UNL     1      23.515  46.052  49.340  1.00  0.00     0.063 A 
HETATM    5  N   UNL     1      22.672  46.476  48.351  1.00  0.00    -0.277 N 
HETATM    6  H   UNL     1      21.988  45.922  47.850  1.00  0.00     0.189 HD
HETATM    7  N   UNL     1      22.772  47.782  48.057  1.00  0.00    -0.168 NA
HETATM    8  C   UNL     1      23.751  48.226  48.878  1.00  0.00     0.156 A 
HETATM    9  C   UNL     1      23.666  44.809  49.958  1.00  0.00     0.034 A 
HETATM   10  C   UNL     1      24.629  44.715  50.970  1.00  0.00     0.032 A 
ENDROOT
BRANCH   1  11
HETATM   11  N   UNL     1      26.380  45.603  52.348  1.00  0.00    -0.327 N 
HETATM   12  C   UNL     1      26.098  45.517  53.703  1.00  0.00     0.231 C 
HETATM   13  O   UNL     1      24.980  45.693  54.182  1.00  0.00    -0.272 OA
HETATM   14  H   UNL     1      27.354  45.686  52.084  1.00  0.00     0.169 HD
BRANCH  12  15
HETATM   15  C   UNL     1      27.293  45.078  54.587  1.00  0.00     0.115 C 
BRANCH  15  16
HETATM   16  C   UNL     1      28.246  46.234  55.037  1.00  0.00    -0.001 C 
HETATM   17  C   UNL     1      28.583  46.125  56.532  1.00  0.00     0.011 C 
BRANCH  16  18
HETATM   18  C   UNL     1      27.736  47.646  54.667  1.00  0.00     0.001 C 
HETATM   19  C   UNL     1      26.833  48.274  55.723  1.00  0.00     0.005 C 
ENDBRANCH  16  18
ENDBRANCH  15  16
BRANCH  15  20
HETATM   20  C   UNL     1      28.084  43.870  54.076  1.00  0.00    -0.045 A 
HETATM   21  C   UNL     1      27.442  42.623  53.981  1.00  0.00     0.008 A 
HETATM   22  C   UNL     1      28.124  41.502  53.505  1.00  0.00     0.001 A 
HETATM   23  C   UNL     1      29.458  41.610  53.123  1.00  0.00     0.000 A 
HETATM   24  C   UNL     1      30.112  42.835  53.220  1.00  0.00     0.001 A 
HETATM   25  C   UNL     1      29.431  43.959  53.695  1.00  0.00     0.008 A 
ENDBRANCH  15  20
ENDBRANCH  12  15
ENDBRANCH   1  11
BRANCH   8  26
HETATM   26  C   UNL     1      24.139  49.643  48.903  1.00  0.00     0.270 C 
HETATM   27  N   UNL     1      25.244  49.932  48.148  1.00  0.00    -0.365 N 
HETATM   28  H   UNL     1      25.677  49.184  47.619  1.00  0.00     0.159 HD
HETATM   29  H   UNL     1      25.548  50.888  48.058  1.00  0.00     0.159 HD
HETATM   30  O   UNL     1      23.539  50.523  49.510  1.00  0.00    -0.266 OA
ENDBRANCH   8  26
TORSDOF 6
ENDMDL
MODEL 3
REMARK VINA RESULT:      -8.5      5.067      7.892
REMARK  6 active torsions:
REMARK  status: ('A' for Active; 'I' for Inactive)
REMARK    1  A    between atoms: C_2  and  C_3 
REMARK    2  A    between atoms: C_3  and  C_4 
REMARK    3  A    between atoms: C_4  and  C_5 
REMARK    4  A    between atoms: C_4  and  C_21 
REMARK       I    between atoms: C_5  and  N_6 
REMARK    5  A    between atoms: N_6  and  C_7 
REMARK    6  A    between atoms: C_14  and  C_15 
REMARK       I    between atoms: C_15  and  N_16 
ROOT
HETATM    1  C   UNL     1      26.006  47.647  49.976  1.00  0.00     0.035 A 
HETATM    2  C   UNL     1      24.646  47.755  49.658  1.00  0.00     0.046 A 
HETATM    3  C   UNL     1      24.217  48.778  48.785  1.00  0.00     0.030 A 
HETATM    4  C   UNL     1      25.155  49.684  48.303  1.00  0.00     0.063 A 
HETATM    5  N   UNL     1      24.446  50.559  47.529  1.00  0.00    -0.277 N 
HETATM    6  H   UNL     1      24.804  51.367  47.032  1.00  0.00     0.189 HD
HETATM    7  N   UNL     1      23.139  50.272  47.416  1.00  0.00    -0.168 NA
HETATM    8  C   UNL     1      22.984  49.166  48.180  1.00  0.00     0.156 A 
HETATM    9  C   UNL     1      26.516  49.608  48.606  1.00  0.00     0.034 A 
HETATM   10  C   UNL     1      26.924  48.553  49.431  1.00  0.00     0.032 A 
ENDROOT
BRANCH   1  11
HETATM   11  N   UNL     1      26.522  46.619  50.791  1.00  0.00    -0.327 N 
HETATM   12  C   UNL     1      26.319  46.472  52.155  1.00  0.00     0.231 C 
HETATM   13  O   UNL     1      25.722  47.291  52.850  1.00  0.00    -0.272 OA
HETATM   14  H   UNL     1      27.224  46.028  50.363  1.00  0.00     0.169 HD
BRANCH  12  15
HETATM   15  C   UNL     1      26.823  45.131  52.745  1.00  0.00     0.115 C 
BRANCH  15  16
HETATM   16  C   UNL     1      25.704  44.085  53.067  1.00  0.00    -0.001 C 
HETATM   17  C   UNL     1      24.703  43.968  51.907  1.00  0.00     0.011 C 
BRANCH  16  18
HETATM   18  C   UNL     1      24.991  44.328  54.417  1.00  0.00     0.001 C 
HETATM   19  C   UNL     1      25.434  43.383  55.528  1.00  0.00     0.005 C 
ENDBRANCH  16  18
ENDBRANCH  15  16
BRANCH  15  20
HETATM   20  C   UNL     1      27.824  45.250  53.898  1.00  0.00    -0.045 A 
HETATM   21  C   UNL     1      28.753  44.216  54.106  1.00  0.00     0.008 A 
HETATM   22  C   UNL     1      29.692  44.296  55.136  1.00  0.00     0.001 A 
HETATM   23  C   UNL     1      29.712  45.406  55.975  1.00  0.00     0.000 A 
HETATM   24  C   UNL     1      28.793  46.435  55.789  1.00  0.00     0.001 A 
HETATM   25  C   UNL     1      27.852  46.358  54.758  1.00  0.00     0.008 A 
ENDBRANCH  15  20
ENDBRANCH  12  15
ENDBRANCH   1  11
BRANCH   8  26
HETATM   26  C   UNL     1      21.683  48.491  48.285  1.00  0.00     0.270 C 
HETATM   27  N   UNL     1      21.109  48.578  49.525  1.00  0.00    -0.365 N 
HETATM   28  H   UNL     1      21.587  49.110  50.242  1.00  0.00     0.159 HD
HETATM   29  H   UNL     1      20.189  48.195  49.674  1.00  0.00     0.159 HD
HETATM   30  O   UNL     1      21.115  47.916  47.363  1.00  0.00    -0.266 OA
ENDBRANCH   8  26
TORSDOF 6
ENDMDL
MODEL 4
REMARK VINA RESULT:      -8.3      1.456      3.281
REMARK  6 active torsions:
REMARK  status: ('A' for Active; 'I' for Inactive)
REMARK    1  A    between atoms: C_2  and  C_3 
REMARK    2  A    between atoms: C_3  and  C_4 
REMARK    3  A    between atoms: C_4  and  C_5 
REMARK    4  A    between atoms: C_4  and  C_21 
REMARK       I    between atoms: C_5  and  N_6 
REMARK    5  A    between atoms: N_6  and  C_7 
REMARK    6  A    between atoms: C_14  and  C_15 
REMARK       I    between atoms: C_15  and  N_16 
ROOT
HETATM    1  C   UNL     1      27.640  42.039  51.589  1.00  0.00     0.035 A 
HETATM    2  C   UNL     1      28.491  40.943  51.393  1.00  0.00     0.046 A 
HETATM    3  C   UNL     1      28.051  39.856  50.607  1.00  0.00     0.030 A 
HETATM    4  C   UNL     1      26.761  39.884  50.088  1.00  0.00     0.063 A 
HETATM    5  N   UNL     1      26.617  38.701  49.418  1.00  0.00    -0.277 N 
HETATM    6  H   UNL     1      25.793  38.370  48.929  1.00  0.00     0.189 HD
HETATM    7  N   UNL     1      27.717  37.931  49.403  1.00  0.00    -0.168 NA
HETATM    8  C   UNL     1      28.616  38.636  50.127  1.00  0.00     0.156 A 
HETATM    9  C   UNL     1      25.887  40.957  50.271  1.00  0.00     0.034 A 
HETATM   10  C   UNL     1      26.366  42.046  51.010  1.00  0.00     0.032 A 
ENDROOT
BRANCH   1  11
HETATM   11  N   UNL     1      28.027  43.188  52.310  1.00  0.00    -0.327 N 
HETATM   12  C   UNL     1      27.862  43.398  53.671  1.00  0.00     0.231 C 
HETATM   13  O   UNL     1      27.266  42.622  54.416  1.00  0.00    -0.272 OA
HETATM   14  H   UNL     1      28.309  43.984  51.751  1.00  0.00     0.169 HD
BRANCH  12  15
HETATM   15  C   UNL     1      28.579  44.654  54.225  1.00  0.00     0.115 C 
BRANCH  15  16
HETATM   16  C   UNL     1      29.477  44.407  55.482  1.00  0.00    -0.001 C 
HETATM   17  C   UNL     1      30.207  45.691  55.905  1.00  0.00     0.011 C 
BRANCH  16  18
HETATM   18  C   UNL     1      30.453  43.217  55.331  1.00  0.00     0.001 C 
HETATM   19  C   UNL     1      31.437  43.074  56.486  1.00  0.00     0.005 C 
ENDBRANCH  16  18
ENDBRANCH  15  16
BRANCH  15  20
HETATM   20  C   UNL     1      27.697  45.894  54.403  1.00  0.00    -0.045 A 
HETATM   21  C   UNL     1      26.682  46.151  53.466  1.00  0.00     0.008 A 
HETATM   22  C   UNL     1      25.847  47.261  53.604  1.00  0.00     0.001 A 
HETATM   23  C   UNL     1      26.017  48.132  54.676  1.00  0.00     0.000 A 
HETATM   24  C   UNL     1      27.024  47.897  55.608  1.00  0.00     0.001 A 
HETATM   25  C   UNL     1      27.861  46.787  55.474  1.00  0.00     0.008 A 
ENDBRANCH  15  20
ENDBRANCH  12  15
ENDBRANCH   1  11
BRANCH   8  26
HETATM   26  C   UNL     1      29.991  38.152  50.312  1.00  0.00     0.270 C 
HETATM   27  N   UNL     1      30.865  38.570  49.345  1.00  0.00    -0.365 N 
HETATM   28  H   UNL     1      30.521  39.188  48.619  1.00  0.00     0.159 HD
HETATM   29  H   UNL     1      31.842  38.336  49.422  1.00  0.00     0.159 HD
HETATM   30  O   UNL     1      30.369  37.458  51.250  1.00  0.00    -0.266 OA
ENDBRANCH   8  26
TORSDOF 6
ENDMDL
MODEL 5
REMARK VINA RESULT:      -8.2      1.724      2.104
REMARK  6 active torsions:
REMARK  status: ('A' for Active; 'I' for Inactive)
REMARK    1  A    between atoms: C_2  and  C_3 
REMARK    2  A    between atoms: C_3  and  C_4 
REMARK    3  A    between atoms: C_4  and  C_5 
REMARK    4  A    between atoms: C_4  and  C_21 
REMARK       I    between atoms: C_5  and  N_6 
REMARK    5  A    between atoms: N_6  and  C_7 
REMARK    6  A    between atoms: C_14  and  C_15 
REMARK       I    between atoms: C_15  and  N_16 
ROOT
HETATM    1  C   UNL     1      26.398  42.991  51.670  1.00  0.00     0.035 A 
HETATM    2  C   UNL     1      27.241  41.904  51.404  1.00  0.00     0.046 A 
HETATM    3  C   UNL     1      26.836  40.927  50.469  1.00  0.00     0.030 A 
HETATM    4  C   UNL     1      25.586  41.046  49.874  1.00  0.00     0.063 A 
HETATM    5  N   UNL     1      25.467  39.953  49.062  1.00  0.00    -0.277 N 
HETATM    6  H   UNL     1      24.672  39.701  48.485  1.00  0.00     0.189 HD
HETATM    7  N   UNL     1      26.552  39.162  49.029  1.00  0.00    -0.168 NA
HETATM    8  C   UNL     1      27.412  39.757  49.888  1.00  0.00     0.156 A 
HETATM    9  C   UNL     1      24.720  42.113  50.123  1.00  0.00     0.034 A 
HETATM   10  C   UNL     1      25.166  43.097  51.014  1.00  0.00     0.032 A 
ENDROOT
BRANCH   1  11
HETATM   11  N   UNL     1      26.754  44.039  52.544  1.00  0.00    -0.327 N 
HETATM   12  C   UNL     1      26.131  44.358  53.742  1.00  0.00     0.231 C 
HETATM   13  O   UNL     1      25.113  43.804  54.153  1.00  0.00    -0.272 OA
HETATM   14  H   UNL     1      27.426  44.704  52.183  1.00  0.00     0.169 HD
BRANCH  12  15
HETATM   15  C   UNL     1      26.873  45.416  54.597  1.00  0.00     0.115 C 
BRANCH  15  16
HETATM   16  C   UNL     1      26.826  46.876  54.035  1.00  0.00    -0.001 C 
HETATM   17  C   UNL     1      26.764  47.907  55.172  1.00  0.00     0.011 C 
BRANCH  16  18
HETATM   18  C   UNL     1      25.710  47.108  52.990  1.00  0.00     0.001 C 
HETATM   19  C   UNL     1      26.226  47.313  51.571  1.00  0.00     0.005 C 
ENDBRANCH  16  18
ENDBRANCH  15  16
BRANCH  15  20
HETATM   20  C   UNL     1      28.288  45.033  55.040  1.00  0.00    -0.045 A 
HETATM   21  C   UNL     1      28.972  45.869  55.940  1.00  0.00     0.008 A 
HETATM   22  C   UNL     1      30.256  45.545  56.380  1.00  0.00     0.001 A 
HETATM   23  C   UNL     1      30.879  44.388  55.922  1.00  0.00     0.000 A 
HETATM   24  C   UNL     1      30.219  43.554  55.022  1.00  0.00     0.001 A 
HETATM   25  C   UNL     1      28.933  43.874  54.581  1.00  0.00     0.008 A 
ENDBRANCH  15  20
ENDBRANCH  12  15
ENDBRANCH   1  11
BRANCH   8  26
HETATM   26  C   UNL     1      28.763  39.221  50.105  1.00  0.00     0.270 C 
HETATM   27  N   UNL     1      29.177  39.263  51.409  1.00  0.00    -0.365 N 
HETATM   28  H   UNL     1      28.533  39.614  52.108  1.00  0.00     0.159 HD
HETATM   29  H   UNL     1      30.066  38.862  51.661  1.00  0.00     0.159 HD
HETATM   30  O   UNL     1      29.476  38.744  49.229  1.00  0.00    -0.266 OA
ENDBRANCH   8  26
TORSDOF 6
ENDMDL
MODEL 6
REMARK VINA RESULT:      -8.1      2.264      3.495
REMARK  6 active torsions:
REMARK  status: ('A' for Active; 'I' for Inactive)
REMARK    1  A    between atoms: C_2  and  C_3 
REMARK    2  A    between atoms: C_3  and  C_4 
REMARK    3  A    between atoms: C_4  and  C_5 
REMARK    4  A    between atoms: C_4  and  C_21 
REMARK       I    between atoms: C_5  and  N_6 
REMARK    5  A    between atoms: N_6  and  C_7 
REMARK    6  A    between atoms: C_14  and  C_15 
REMARK       I    between atoms: C_15  and  N_16 
ROOT
HETATM    1  C   UNL     1      26.713  41.471  51.020  1.00  0.00     0.035 A 
HETATM    2  C   UNL     1      25.555  41.657  50.253  1.00  0.00     0.046 A 
HETATM    3  C   UNL     1      25.443  41.014  49.001  1.00  0.00     0.030 A 
HETATM    4  C   UNL     1      26.510  40.252  48.541  1.00  0.00     0.063 A 
HETATM    5  N   UNL     1      26.125  39.798  47.311  1.00  0.00    -0.277 N 
HETATM    6  H   UNL     1      26.665  39.224  46.672  1.00  0.00     0.189 HD
HETATM    7  N   UNL     1      24.879  40.147  46.952  1.00  0.00    -0.168 NA
HETATM    8  C   UNL     1      24.440  40.892  47.992  1.00  0.00     0.156 A 
HETATM    9  C   UNL     1      27.680  40.053  49.277  1.00  0.00     0.034 A 
HETATM   10  C   UNL     1      27.746  40.657  50.538  1.00  0.00     0.032 A 
ENDROOT
BRANCH   1  11
HETATM   11  N   UNL     1      26.877  42.028  52.305  1.00  0.00    -0.327 N 
HETATM   12  C   UNL     1      27.634  43.147  52.624  1.00  0.00     0.231 C 
HETATM   13  O   UNL     1      28.339  43.749  51.818  1.00  0.00    -0.272 OA
HETATM   14  H   UNL     1      26.534  41.468  53.074  1.00  0.00     0.169 HD
BRANCH  12  15
HETATM   15  C   UNL     1      27.453  43.657  54.076  1.00  0.00     0.115 C 
BRANCH  15  16
HETATM   16  C   UNL     1      26.382  44.784  54.255  1.00  0.00    -0.001 C 
HETATM   17  C   UNL     1      25.048  44.208  54.754  1.00  0.00     0.011 C 
BRANCH  16  18
HETATM   18  C   UNL     1      26.190  45.670  53.002  1.00  0.00     0.001 C 
HETATM   19  C   UNL     1      26.435  47.154  53.251  1.00  0.00     0.005 C 
ENDBRANCH  16  18
ENDBRANCH  15  16
BRANCH  15  20
HETATM   20  C   UNL     1      28.747  43.993  54.824  1.00  0.00    -0.045 A 
HETATM   21  C   UNL     1      28.872  45.248  55.444  1.00  0.00     0.008 A 
HETATM   22  C   UNL     1      30.028  45.584  56.150  1.00  0.00     0.001 A 
HETATM   23  C   UNL     1      31.078  44.675  56.240  1.00  0.00     0.000 A 
HETATM   24  C   UNL     1      30.974  43.431  55.623  1.00  0.00     0.001 A 
HETATM   25  C   UNL     1      29.818  43.091  54.917  1.00  0.00     0.008 A 
ENDBRANCH  15  20
ENDBRANCH  12  15
ENDBRANCH   1  11
BRANCH   8  26
HETATM   26  C   UNL     1      23.075  41.436  48.016  1.00  0.00     0.270 C 
HETATM   27  N   UNL     1      23.007  42.783  47.786  1.00  0.00    -0.365 N 
HETATM   28  H   UNL     1      23.866  43.283  47.588  1.00  0.00     0.159 HD
HETATM   29  H   UNL     1      22.107  43.232  47.725  1.00  0.00     0.159 HD
HETATM   30  O   UNL     1      22.059  40.772  48.195  1.00  0.00    -0.266 OA
ENDBRANCH   8  26
TORSDOF 6
ENDMDL
MODEL 7
REMARK VINA RESULT:      -8.0      4.794      7.866
REMARK  6 active torsions:
REMARK  status: ('A' for Active; 'I' for Inactive)
REMARK    1  A    between atoms: C_2  and  C_3 
REMARK    2  A    between atoms: C_3  and  C_4 
REMARK    3  A    between atoms: C_4  and  C_5 
REMARK    4  A    between atoms: C_4  and  C_21 
REMARK       I    between atoms: C_5  and  N_6 
REMARK    5  A    between atoms: N_6  and  C_7 
REMARK    6  A    between atoms: C_14  and  C_15 
REMARK       I    between atoms: C_15  and  N_16 
ROOT
HETATM    1  C   UNL     1      26.028  47.114  49.723  1.00  0.00     0.035 A 
HETATM    2  C   UNL     1      24.637  47.254  49.625  1.00  0.00     0.046 A 
HETATM    3  C   UNL     1      24.096  48.449  49.103  1.00  0.00     0.030 A 
HETATM    4  C   UNL     1      24.962  49.476  48.746  1.00  0.00     0.063 A 
HETATM    5  N   UNL     1      24.156  50.494  48.319  1.00  0.00    -0.277 N 
HETATM    6  H   UNL     1      24.445  51.412  48.000  1.00  0.00     0.189 HD
HETATM    7  N   UNL     1      22.845  50.202  48.310  1.00  0.00    -0.168 NA
HETATM    8  C   UNL     1      22.793  48.936  48.784  1.00  0.00     0.156 A 
HETATM    9  C   UNL     1      26.351  49.372  48.839  1.00  0.00     0.034 A 
HETATM   10  C   UNL     1      26.866  48.157  49.309  1.00  0.00     0.032 A 
ENDROOT
BRANCH   1  11
HETATM   11  N   UNL     1      26.648  45.932  50.176  1.00  0.00    -0.327 N 
HETATM   12  C   UNL     1      26.534  45.378  51.443  1.00  0.00     0.231 C 
HETATM   13  O   UNL     1      25.932  45.912  52.372  1.00  0.00    -0.272 OA
HETATM   14  H   UNL     1      27.356  45.544  49.566  1.00  0.00     0.169 HD
BRANCH  12  15
HETATM   15  C   UNL     1      27.146  43.962  51.589  1.00  0.00     0.115 C 
BRANCH  15  16
HETATM   16  C   UNL     1      26.110  42.789  51.610  1.00  0.00    -0.001 C 
HETATM   17  C   UNL     1      26.638  41.567  50.844  1.00  0.00     0.011 C 
BRANCH  16  18
HETATM   18  C   UNL     1      24.695  43.195  51.135  1.00  0.00     0.001 C 
HETATM   19  C   UNL     1      24.422  42.881  49.669  1.00  0.00     0.005 C 
ENDBRANCH  16  18
ENDBRANCH  15  16
BRANCH  15  20
HETATM   20  C   UNL     1      28.190  43.805  52.699  1.00  0.00    -0.045 A 
HETATM   21  C   UNL     1      29.326  43.013  52.461  1.00  0.00     0.008 A 
HETATM   22  C   UNL     1      30.308  42.859  53.441  1.00  0.00     0.001 A 
HETATM   23  C   UNL     1      30.165  43.488  54.674  1.00  0.00     0.000 A 
HETATM   24  C   UNL     1      29.041  44.268  54.930  1.00  0.00     0.001 A 
HETATM   25  C   UNL     1      28.057  44.425  53.951  1.00  0.00     0.008 A 
ENDBRANCH  15  20
ENDBRANCH  12  15
ENDBRANCH   1  11
BRANCH   8  26
HETATM   26  C   UNL     1      21.517  48.214  48.886  1.00  0.00     0.270 C 
HETATM   27  N   UNL     1      20.630  48.771  49.768  1.00  0.00    -0.365 N 
HETATM   28  H   UNL     1      20.894  49.627  50.242  1.00  0.00     0.159 HD
HETATM   29  H   UNL     1      19.707  48.377  49.860  1.00  0.00     0.159 HD
HETATM   30  O   UNL     1      21.223  47.216  48.237  1.00  0.00    -0.266 OA
ENDBRANCH   8  26
TORSDOF 6
ENDMDL
MODEL 8
REMARK VINA RESULT:      -8.0      4.023      8.037
REMARK  6 active torsions:
REMARK  status: ('A' for Active; 'I' for Inactive)
REMARK    1  A    between atoms: C_2  and  C_3 
REMARK    2  A    between atoms: C_3  and  C_4 
REMARK    3  A    between atoms: C_4  and  C_5 
REMARK    4  A    between atoms: C_4  and  C_21 
REMARK       I    between atoms: C_5  and  N_6 
REMARK    5  A    between atoms: N_6  and  C_7 
REMARK    6  A    between atoms: C_14  and  C_15 
REMARK       I    between atoms: C_15  and  N_16 
ROOT
HETATM    1  C   UNL     1      26.233  46.563  53.375  1.00  0.00     0.035 A 
HETATM    2  C   UNL     1      27.175  45.528  53.453  1.00  0.00     0.046 A 
HETATM    3  C   UNL     1      28.083  45.499  54.533  1.00  0.00     0.030 A 
HETATM    4  C   UNL     1      28.049  46.529  55.466  1.00  0.00     0.063 A 
HETATM    5  N   UNL     1      29.051  46.247  56.352  1.00  0.00    -0.277 N 
HETATM    6  H   UNL     1      29.330  46.796  57.156  1.00  0.00     0.189 HD
HETATM    7  N   UNL     1      29.697  45.094  56.114  1.00  0.00    -0.168 NA
HETATM    8  C   UNL     1      29.104  44.614  54.997  1.00  0.00     0.156 A 
HETATM    9  C   UNL     1      27.128  47.577  55.412  1.00  0.00     0.034 A 
HETATM   10  C   UNL     1      26.203  47.556  54.361  1.00  0.00     0.032 A 
ENDROOT
BRANCH   1  11
HETATM   11  N   UNL     1      25.254  46.631  52.362  1.00  0.00    -0.327 N 
HETATM   12  C   UNL     1      25.388  47.255  51.131  1.00  0.00     0.231 C 
HETATM   13  O   UNL     1      26.371  47.915  50.802  1.00  0.00    -0.272 OA
HETATM   14  H   UNL     1      24.325  46.327  52.627  1.00  0.00     0.169 HD
BRANCH  12  15
HETATM   15  C   UNL     1      24.232  46.981  50.136  1.00  0.00     0.115 C 
BRANCH  15  16
HETATM   16  C   UNL     1      24.388  45.680  49.279  1.00  0.00    -0.001 C 
HETATM   17  C   UNL     1      23.246  44.691  49.557  1.00  0.00     0.011 C 
BRANCH  16  18
HETATM   18  C   UNL     1      25.774  45.006  49.411  1.00  0.00     0.001 C 
HETATM   19  C   UNL     1      25.747  43.683  50.167  1.00  0.00     0.005 C 
ENDBRANCH  16  18
ENDBRANCH  15  16
BRANCH  15  20
HETATM   20  C   UNL     1      23.808  48.172  49.271  1.00  0.00    -0.045 A 
HETATM   21  C   UNL     1      22.451  48.326  48.939  1.00  0.00     0.008 A 
HETATM   22  C   UNL     1      22.023  49.407  48.167  1.00  0.00     0.001 A 
HETATM   23  C   UNL     1      22.944  50.345  47.710  1.00  0.00     0.000 A 
HETATM   24  C   UNL     1      24.294  50.201  48.022  1.00  0.00     0.001 A 
HETATM   25  C   UNL     1      24.726  49.121  48.795  1.00  0.00     0.008 A 
ENDBRANCH  15  20
ENDBRANCH  12  15
ENDBRANCH   1  11
BRANCH   8  26
HETATM   26  C   UNL     1      29.495  43.319  54.424  1.00  0.00     0.270 C 
HETATM   27  N   UNL     1      28.461  42.430  54.297  1.00  0.00    -0.365 N 
HETATM   28  H   UNL     1      27.531  42.730  54.564  1.00  0.00     0.159 HD
HETATM   29  H   UNL     1      28.625  41.538  53.859  1.00  0.00     0.159 HD
HETATM   30  O   UNL     1      30.628  43.030  54.054  1.00  0.00    -0.266 OA
ENDBRANCH   8  26
TORSDOF 6
ENDMDL
MODEL 9
REMARK VINA RESULT:      -8.0      5.035      8.493
REMARK  6 active torsions:
REMARK  status: ('A' for Active; 'I' for Inactive)
REMARK    1  A    between atoms: C_2  and  C_3 
REMARK    2  A    between atoms: C_3  and  C_4 
REMARK    3  A    between atoms: C_4  and  C_5 
REMARK    4  A    between atoms: C_4  and  C_21 
REMARK       I    between atoms: C_5  and  N_6 
REMARK    5  A    between atoms: N_6  and  C_7 
REMARK    6  A    between atoms: C_14  and  C_15 
REMARK       I    between atoms: C_15  and  N_16 
ROOT
HETATM    1  C   UNL     1      25.834  47.591  50.107  1.00  0.00     0.035 A 
HETATM    2  C   UNL     1      24.496  47.803  49.748  1.00  0.00     0.046 A 
HETATM    3  C   UNL     1      24.177  48.833  48.837  1.00  0.00     0.030 A 
HETATM    4  C   UNL     1      25.200  49.642  48.357  1.00  0.00     0.063 A 
HETATM    5  N   UNL     1      24.587  50.551  47.541  1.00  0.00    -0.277 N 
HETATM    6  H   UNL     1      25.025  51.312  47.033  1.00  0.00     0.189 HD
HETATM    7  N   UNL     1      23.265  50.371  47.399  1.00  0.00    -0.168 NA
HETATM    8  C   UNL     1      22.997  49.304  48.187  1.00  0.00     0.156 A 
HETATM    9  C   UNL     1      26.541  49.462  48.700  1.00  0.00     0.034 A 
HETATM   10  C   UNL     1      26.839  48.401  49.564  1.00  0.00     0.032 A 
ENDROOT
BRANCH   1  11
HETATM   11  N   UNL     1      26.240  46.546  50.963  1.00  0.00    -0.327 N 
HETATM   12  C   UNL     1      25.968  46.443  52.319  1.00  0.00     0.231 C 
HETATM   13  O   UNL     1      25.399  47.316  52.971  1.00  0.00    -0.272 OA
HETATM   14  H   UNL     1      26.917  45.900  50.578  1.00  0.00     0.169 HD
BRANCH  12  15
HETATM   15  C   UNL     1      26.350  45.083  52.955  1.00  0.00     0.115 C 
BRANCH  15  16
HETATM   16  C   UNL     1      27.657  45.096  53.816  1.00  0.00    -0.001 C 
HETATM   17  C   UNL     1      27.763  43.833  54.683  1.00  0.00     0.011 C 
BRANCH  16  18
HETATM   18  C   UNL     1      27.843  46.383  54.653  1.00  0.00     0.001 C 
HETATM   19  C   UNL     1      29.000  46.314  55.643  1.00  0.00     0.005 C 
ENDBRANCH  16  18
ENDBRANCH  15  16
BRANCH  15  20
HETATM   20  C   UNL     1      26.316  43.879  52.009  1.00  0.00    -0.045 A 
HETATM   21  C   UNL     1      25.073  43.368  51.598  1.00  0.00     0.008 A 
HETATM   22  C   UNL     1      25.001  42.282  50.724  1.00  0.00     0.001 A 
HETATM   23  C   UNL     1      26.169  41.688  50.254  1.00  0.00     0.000 A 
HETATM   24  C   UNL     1      27.408  42.176  50.659  1.00  0.00     0.001 A 
HETATM   25  C   UNL     1      27.484  43.263  51.533  1.00  0.00     0.008 A 
ENDBRANCH  15  20
ENDBRANCH  12  15
ENDBRANCH   1  11
BRANCH   8  26
HETATM   26  C   UNL     1      21.641  48.744  48.274  1.00  0.00     0.270 C 
HETATM   27  N   UNL     1      21.111  48.759  49.536  1.00  0.00    -0.365 N 
HETATM   28  H   UNL     1      21.657  49.173  50.284  1.00  0.00     0.159 HD
HETATM   29  H   UNL     1      20.164  48.449  49.681  1.00  0.00     0.159 HD
HETATM   30  O   UNL     1      20.998  48.315  47.322  1.00  0.00    -0.266 OA
ENDBRANCH   8  26
TORSDOF 6
ENDMDL
MODEL 10
REMARK VINA RESULT:      -7.9      7.036     10.502
REMARK  6 active torsions:
REMARK  status: ('A' for Active; 'I' for Inactive)
REMARK    1  A    between atoms: C_2  and  C_3 
REMARK    2  A    between atoms: C_3  and  C_4 
REMARK    3  A    between atoms: C_4  and  C_5 
REMARK    4  A    between atoms: C_4  and  C_21 
REMARK       I    between atoms: C_5  and  N_6 
REMARK    5  A    between atoms: N_6  and  C_7 
REMARK    6  A    between atoms: C_14  and  C_15 
REMARK       I    between atoms: C_15  and  N_16 
ROOT
HETATM    1  C   UNL     1      23.782  48.844  49.288  1.00  0.00     0.035 A 
HETATM    2  C   UNL     1      24.463  47.651  49.567  1.00  0.00     0.046 A 
HETATM    3  C   UNL     1      25.857  47.583  49.354  1.00  0.00     0.030 A 
HETATM    4  C   UNL     1      26.508  48.691  48.826  1.00  0.00     0.063 A 
HETATM    5  N   UNL     1      27.817  48.315  48.702  1.00  0.00    -0.277 N 
HETATM    6  H   UNL     1      28.581  48.867  48.331  1.00  0.00     0.189 HD
HETATM    7  N   UNL     1      28.088  47.082  49.158  1.00  0.00    -0.168 NA
HETATM    8  C   UNL     1      26.886  46.619  49.574  1.00  0.00     0.156 A 
HETATM    9  C   UNL     1      25.858  49.891  48.531  1.00  0.00     0.034 A 
HETATM   10  C   UNL     1      24.485  49.952  48.800  1.00  0.00     0.032 A 
ENDROOT
BRANCH   1  11
HETATM   11  N   UNL     1      22.403  49.012  49.530  1.00  0.00    -0.327 N 
HETATM   12  C   UNL     1      21.376  48.773  48.628  1.00  0.00     0.231 C 
HETATM   13  O   UNL     1      21.556  48.461  47.453  1.00  0.00    -0.272 OA
HETATM   14  H   UNL     1      22.161  49.493  50.387  1.00  0.00     0.169 HD
BRANCH  12  15
HETATM   15  C   UNL     1      19.953  48.831  49.237  1.00  0.00     0.115 C 
BRANCH  15  16
HETATM   16  C   UNL     1      18.988  47.686  48.783  1.00  0.00    -0.001 C 
HETATM   17  C   UNL     1      19.704  46.327  48.775  1.00  0.00     0.011 C 
BRANCH  16  18
HETATM   18  C   UNL     1      18.275  47.964  47.439  1.00  0.00     0.001 C 
HETATM   19  C   UNL     1      16.755  47.891  47.520  1.00  0.00     0.005 C 
ENDBRANCH  16  18
ENDBRANCH  15  16
BRANCH  15  20
HETATM   20  C   UNL     1      19.263  50.198  49.177  1.00  0.00    -0.045 A 
HETATM   21  C   UNL     1      18.103  50.413  49.940  1.00  0.00     0.008 A 
HETATM   22  C   UNL     1      17.457  51.650  49.925  1.00  0.00     0.001 A 
HETATM   23  C   UNL     1      17.955  52.686  49.142  1.00  0.00     0.000 A 
HETATM   24  C   UNL     1      19.098  52.487  48.371  1.00  0.00     0.001 A 
HETATM   25  C   UNL     1      19.748  51.251  48.386  1.00  0.00     0.008 A 
ENDBRANCH  15  20
ENDBRANCH  12  15
ENDBRANCH   1  11
BRANCH   8  26
HETATM   26  C   UNL     1      26.755  45.295  50.198  1.00  0.00     0.270 C 
HETATM   27  N   UNL     1      26.350  44.310  49.337  1.00  0.00    -0.365 N 
HETATM   28  H   UNL     1      26.209  44.549  48.363  1.00  0.00     0.159 HD
HETATM   29  H   UNL     1      26.289  43.359  49.663  1.00  0.00     0.159 HD
HETATM   30  O   UNL     1      27.003  45.046  51.373  1.00  0.00    -0.266 OA
ENDBRANCH   8  26
TORSDOF 6
ENDMDL
