MODEL 1
REMARK VINA RESULT:      -8.5      0.000      0.000
REMARK  12 active torsions:
REMARK  status: ('A' for Active; 'I' for Inactive)
REMARK    1  A    between atoms: C_2  and  N_3 
REMARK    2  A    between atoms: N_3  and  C_5 
REMARK    3  A    between atoms: N_3  and  C_33 
REMARK    4  A    between atoms: C_5  and  C_6 
REMARK    5  A    between atoms: N_7  and  C_8 
REMARK    6  A    between atoms: C_12  and  N_13 
REMARK    7  A    between atoms: C_16  and  C_17 
REMARK       I    between atoms: C_17  and  N_18 
REMARK    8  A    between atoms: N_18  and  N_19 
REMARK    9  A    between atoms: C_20  and  C_21 
REMARK   10  A    between atoms: C_25  and  O_26 
REMARK   11  A    between atoms: C_27  and  O_28 
REMARK   12  A    between atoms: O_28  and  C_29 
ROOT
HETATM    1  C   UNL     1      28.481  45.079  54.824  1.00  0.00     0.096 A 
HETATM    2  N   UNL     1      29.268  45.321  55.946  1.00  0.00    -0.215 N 
HETATM    3  N   UNL     1      28.786  46.420  56.587  1.00  0.00     0.012 NA
HETATM    4  N   UNL     1      27.679  46.826  55.988  1.00  0.00    -0.152 NA
HETATM    5  C   UNL     1      27.462  46.019  54.910  1.00  0.00     0.170 A 
ENDROOT
BRANCH   5   6
HETATM    6  C   UNL     1      26.322  46.149  54.012  1.00  0.00     0.293 C 
HETATM    7  N   UNL     1      26.370  47.259  53.190  1.00  0.00    -0.242 N 
HETATM    8  H   UNL     1      27.154  47.904  53.238  1.00  0.00     0.192 HD
HETATM    9  O   UNL     1      25.414  45.321  54.049  1.00  0.00    -0.264 OA
BRANCH   7  10
HETATM   10  N   UNL     1      25.371  47.455  52.287  1.00  0.00    -0.184 NA
HETATM   11  C   UNL     1      25.570  46.994  51.094  1.00  0.00     0.150 C 
BRANCH  11  12
HETATM   12  C   UNL     1      24.538  47.134  50.046  1.00  0.00    -0.013 A 
HETATM   13  C   UNL     1      23.729  46.045  49.706  1.00  0.00     0.035 A 
HETATM   14  C   UNL     1      22.771  46.189  48.708  1.00  0.00     0.047 A 
HETATM   15 BR   UNL     1      21.691  44.699  48.254  1.00  0.00    -0.048 Br
HETATM   16  C   UNL     1      22.617  47.415  48.056  1.00  0.00     0.116 A 
HETATM   17  C   UNL     1      23.422  48.514  48.398  1.00  0.00     0.104 A 
HETATM   18  C   UNL     1      24.390  48.366  49.397  1.00  0.00     0.052 A 
BRANCH  16  19
HETATM   19  O   UNL     1      21.677  47.573  47.069  1.00  0.00    -0.357 OA
HETATM   20  H   UNL     1      21.550  48.527  46.918  1.00  0.00     0.218 HD
ENDBRANCH  16  19
BRANCH  17  21
HETATM   21  O   UNL     1      23.187  49.667  47.697  1.00  0.00    -0.349 OA
BRANCH  21  22
HETATM   22  C   UNL     1      22.999  50.875  48.426  1.00  0.00     0.171 C 
HETATM   23  C   UNL     1      21.505  51.096  48.584  1.00  0.00     0.034 C 
ENDBRANCH  21  22
ENDBRANCH  17  21
ENDBRANCH  11  12
ENDBRANCH   7  10
ENDBRANCH   5   6
BRANCH   1  24
HETATM   24  C   UNL     1      28.776  44.093  53.755  1.00  0.00     0.296 C 
BRANCH  24  25
HETATM   25  N   UNL     1      27.745  42.994  53.551  1.00  0.00    -0.066 N 
HETATM   26  H   UNL     1      26.976  43.193  54.208  1.00  0.00     0.280 HD
BRANCH  25  27
HETATM   27  C   UNL     1      28.320  41.633  53.923  1.00  0.00     0.231 C 
HETATM   28  C   UNL     1      28.855  40.905  52.702  1.00  0.00     0.034 C 
ENDBRANCH  25  27
BRANCH  25  29
HETATM   29  C   UNL     1      27.179  42.983  52.138  1.00  0.00     0.231 C 
HETATM   30  C   UNL     1      27.768  44.111  51.306  1.00  0.00     0.034 C 
ENDBRANCH  25  29
ENDBRANCH  24  25
ENDBRANCH   1  24
BRANCH   2  31
HETATM   31  C   UNL     1      30.360  44.568  56.437  1.00  0.00     0.225 A 
HETATM   32  N   UNL     1      30.843  43.550  55.718  1.00  0.00    -0.081 NA
HETATM   33  O   UNL     1      31.876  43.045  56.516  1.00  0.00    -0.103 OA
HETATM   34  N   UNL     1      31.978  43.748  57.707  1.00  0.00    -0.083 NA
HETATM   35  C   UNL     1      31.038  44.690  57.662  1.00  0.00     0.201 A 
BRANCH  35  36
HETATM   36  N   UNL     1      30.811  45.588  58.632  1.00  0.00    -0.379 N 
HETATM   37  H   UNL     1      31.589  46.013  59.130  1.00  0.00     0.158 HD
HETATM   38  H   UNL     1      29.896  45.770  59.039  1.00  0.00     0.158 HD
ENDBRANCH  35  36
ENDBRANCH   2  31
TORSDOF 12
ENDMDL
MODEL 2
REMARK VINA RESULT:      -7.9      4.183     10.289
REMARK  12 active torsions:
REMARK  status: ('A' for Active; 'I' for Inactive)
REMARK    1  A    between atoms: C_2  and  N_3 
REMARK    2  A    between atoms: N_3  and  C_5 
REMARK    3  A    between atoms: N_3  and  C_33 
REMARK    4  A    between atoms: C_5  and  C_6 
REMARK    5  A    between atoms: N_7  and  C_8 
REMARK    6  A    between atoms: C_12  and  N_13 
REMARK    7  A    between atoms: C_16  and  C_17 
REMARK       I    between atoms: C_17  and  N_18 
REMARK    8  A    between atoms: N_18  and  N_19 
REMARK    9  A    between atoms: C_20  and  C_21 
REMARK   10  A    between atoms: C_25  and  O_26 
REMARK   11  A    between atoms: C_27  and  O_28 
REMARK   12  A    between atoms: O_28  and  C_29 
ROOT
HETATM    1  C   UNL     1      22.629  47.319  49.046  1.00  0.00     0.096 A 
HETATM    2  N   UNL     1      21.359  47.383  48.479  1.00  0.00    -0.215 N 
HETATM    3  N   UNL     1      20.998  46.135  48.078  1.00  0.00     0.012 NA
HETATM    4  N   UNL     1      21.927  45.270  48.448  1.00  0.00    -0.152 NA
HETATM    5  C   UNL     1      22.935  45.964  49.051  1.00  0.00     0.170 A 
ENDROOT
BRANCH   5   6
HETATM    6  C   UNL     1      24.130  45.345  49.609  1.00  0.00     0.293 C 
HETATM    7  N   UNL     1      24.148  45.286  50.990  1.00  0.00    -0.242 N 
HETATM    8  H   UNL     1      23.371  45.653  51.532  1.00  0.00     0.192 HD
HETATM    9  O   UNL     1      25.022  44.951  48.861  1.00  0.00    -0.264 OA
BRANCH   7  10
HETATM   10  N   UNL     1      25.203  44.693  51.610  1.00  0.00    -0.184 NA
HETATM   11  C   UNL     1      25.939  45.453  52.357  1.00  0.00     0.150 C 
BRANCH  11  12
HETATM   12  C   UNL     1      27.096  44.901  53.093  1.00  0.00    -0.013 A 
HETATM   13  C   UNL     1      27.565  45.540  54.244  1.00  0.00     0.035 A 
HETATM   14  C   UNL     1      28.664  45.015  54.918  1.00  0.00     0.047 A 
HETATM   15 BR   UNL     1      29.292  45.900  56.472  1.00  0.00    -0.048 Br
HETATM   16  C   UNL     1      29.286  43.856  54.448  1.00  0.00     0.116 A 
HETATM   17  C   UNL     1      28.814  43.207  53.296  1.00  0.00     0.104 A 
HETATM   18  C   UNL     1      27.714  43.739  52.615  1.00  0.00     0.052 A 
BRANCH  16  19
HETATM   19  O   UNL     1      30.371  43.326  55.101  1.00  0.00    -0.357 OA
HETATM   20  H   UNL     1      30.087  43.050  55.990  1.00  0.00     0.218 HD
ENDBRANCH  16  19
BRANCH  17  21
HETATM   21  O   UNL     1      29.497  42.079  52.923  1.00  0.00    -0.349 OA
BRANCH  21  22
HETATM   22  C   UNL     1      28.783  40.850  52.845  1.00  0.00     0.171 C 
HETATM   23  C   UNL     1      28.604  40.507  51.377  1.00  0.00     0.034 C 
ENDBRANCH  21  22
ENDBRANCH  17  21
ENDBRANCH  11  12
ENDBRANCH   7  10
ENDBRANCH   5   6
BRANCH   1  24
HETATM   24  C   UNL     1      23.464  48.482  49.437  1.00  0.00     0.296 C 
BRANCH  24  25
HETATM   25  N   UNL     1      24.289  49.119  48.330  1.00  0.00    -0.066 N 
HETATM   26  H   UNL     1      24.315  48.436  47.559  1.00  0.00     0.280 HD
BRANCH  25  27
HETATM   27  C   UNL     1      25.725  49.347  48.785  1.00  0.00     0.231 C 
HETATM   28  C   UNL     1      26.201  48.234  49.701  1.00  0.00     0.034 C 
ENDBRANCH  25  27
BRANCH  25  29
HETATM   29  C   UNL     1      23.668  50.407  47.810  1.00  0.00     0.231 C 
HETATM   30  C   UNL     1      22.948  51.153  48.923  1.00  0.00     0.034 C 
ENDBRANCH  25  29
ENDBRANCH  24  25
ENDBRANCH   1  24
BRANCH   2  31
HETATM   31  C   UNL     1      20.502  48.503  48.360  1.00  0.00     0.225 A 
HETATM   32  N   UNL     1      20.467  49.194  47.217  1.00  0.00    -0.081 NA
HETATM   33  O   UNL     1      19.544  50.214  47.479  1.00  0.00    -0.103 OA
HETATM   34  N   UNL     1      19.065  50.134  48.778  1.00  0.00    -0.083 NA
HETATM   35  C   UNL     1      19.659  49.076  49.326  1.00  0.00     0.201 A 
BRANCH  35  36
HETATM   36  N   UNL     1      19.457  48.655  50.584  1.00  0.00    -0.379 N 
HETATM   37  H   UNL     1      18.548  48.293  50.864  1.00  0.00     0.158 HD
HETATM   38  H   UNL     1      20.104  48.818  51.351  1.00  0.00     0.158 HD
ENDBRANCH  35  36
ENDBRANCH   2  31
TORSDOF 12
ENDMDL
MODEL 3
REMARK VINA RESULT:      -7.8      4.119     10.226
REMARK  12 active torsions:
REMARK  status: ('A' for Active; 'I' for Inactive)
REMARK    1  A    between atoms: C_2  and  N_3 
REMARK    2  A    between atoms: N_3  and  C_5 
REMARK    3  A    between atoms: N_3  and  C_33 
REMARK    4  A    between atoms: C_5  and  C_6 
REMARK    5  A    between atoms: N_7  and  C_8 
REMARK    6  A    between atoms: C_12  and  N_13 
REMARK    7  A    between atoms: C_16  and  C_17 
REMARK       I    between atoms: C_17  and  N_18 
REMARK    8  A    between atoms: N_18  and  N_19 
REMARK    9  A    between atoms: C_20  and  C_21 
REMARK   10  A    between atoms: C_25  and  O_26 
REMARK   11  A    between atoms: C_27  and  O_28 
REMARK   12  A    between atoms: O_28  and  C_29 
ROOT
HETATM    1  C   UNL     1      22.273  47.111  48.960  1.00  0.00     0.096 A 
HETATM    2  N   UNL     1      20.999  47.148  48.400  1.00  0.00    -0.215 N 
HETATM    3  N   UNL     1      20.710  45.919  47.894  1.00  0.00     0.012 NA
HETATM    4  N   UNL     1      21.690  45.082  48.190  1.00  0.00    -0.152 NA
HETATM    5  C   UNL     1      22.658  45.781  48.850  1.00  0.00     0.170 A 
ENDROOT
BRANCH   5   6
HETATM    6  C   UNL     1      23.890  45.188  49.354  1.00  0.00     0.293 C 
HETATM    7  N   UNL     1      24.032  45.252  50.727  1.00  0.00    -0.242 N 
HETATM    8  H   UNL     1      23.312  45.684  51.301  1.00  0.00     0.192 HD
HETATM    9  O   UNL     1      24.705  44.709  48.569  1.00  0.00    -0.264 OA
BRANCH   7  10
HETATM   10  N   UNL     1      25.130  44.694  51.304  1.00  0.00    -0.184 NA
HETATM   11  C   UNL     1      25.547  45.237  52.403  1.00  0.00     0.150 C 
BRANCH  11  12
HETATM   12  C   UNL     1      26.718  44.691  53.120  1.00  0.00    -0.013 A 
HETATM   13  C   UNL     1      27.101  43.360  52.929  1.00  0.00     0.035 A 
HETATM   14  C   UNL     1      28.198  42.858  53.623  1.00  0.00     0.047 A 
HETATM   15 BR   UNL     1      28.696  41.048  53.359  1.00  0.00    -0.048 Br
HETATM   16  C   UNL     1      28.912  43.681  54.497  1.00  0.00     0.116 A 
HETATM   17  C   UNL     1      28.536  45.020  54.687  1.00  0.00     0.104 A 
HETATM   18  C   UNL     1      27.429  45.523  53.995  1.00  0.00     0.052 A 
BRANCH  16  19
HETATM   19  O   UNL     1      29.996  43.201  55.188  1.00  0.00    -0.357 OA
HETATM   20  H   UNL     1      30.803  43.464  54.712  1.00  0.00     0.218 HD
ENDBRANCH  16  19
BRANCH  17  21
HETATM   21  O   UNL     1      29.304  45.738  55.564  1.00  0.00    -0.349 OA
BRANCH  21  22
HETATM   22  C   UNL     1      28.746  46.084  56.827  1.00  0.00     0.171 C 
HETATM   23  C   UNL     1      29.825  45.901  57.880  1.00  0.00     0.034 C 
ENDBRANCH  21  22
ENDBRANCH  17  21
ENDBRANCH  11  12
ENDBRANCH   7  10
ENDBRANCH   5   6
BRANCH   1  24
HETATM   24  C   UNL     1      23.040  48.284  49.449  1.00  0.00     0.296 C 
BRANCH  24  25
HETATM   25  N   UNL     1      24.291  48.643  48.663  1.00  0.00    -0.066 N 
HETATM   26  H   UNL     1      24.273  48.066  47.810  1.00  0.00     0.280 HD
BRANCH  25  27
HETATM   27  C   UNL     1      25.548  48.269  49.439  1.00  0.00     0.231 C 
HETATM   28  C   UNL     1      26.761  49.024  48.927  1.00  0.00     0.034 C 
ENDBRANCH  25  27
BRANCH  25  29
HETATM   29  C   UNL     1      24.318  50.108  48.251  1.00  0.00     0.231 C 
HETATM   30  C   UNL     1      22.968  50.546  47.705  1.00  0.00     0.034 C 
ENDBRANCH  25  29
ENDBRANCH  24  25
ENDBRANCH   1  24
BRANCH   2  31
HETATM   31  C   UNL     1      20.078  48.221  48.376  1.00  0.00     0.225 A 
HETATM   32  N   UNL     1      19.973  48.983  47.283  1.00  0.00    -0.081 NA
HETATM   33  O   UNL     1      19.002  49.928  47.634  1.00  0.00    -0.103 OA
HETATM   34  N   UNL     1      18.562  49.735  48.934  1.00  0.00    -0.083 NA
HETATM   35  C   UNL     1      19.229  48.680  49.397  1.00  0.00     0.201 A 
BRANCH  35  36
HETATM   36  N   UNL     1      19.085  48.166  50.628  1.00  0.00    -0.379 N 
HETATM   37  H   UNL     1      19.789  48.338  51.341  1.00  0.00     0.158 HD
HETATM   38  H   UNL     1      18.391  47.464  50.875  1.00  0.00     0.158 HD
ENDBRANCH  35  36
ENDBRANCH   2  31
TORSDOF 12
ENDMDL
MODEL 4
REMARK VINA RESULT:      -7.8      5.179     10.482
REMARK  12 active torsions:
REMARK  status: ('A' for Active; 'I' for Inactive)
REMARK    1  A    between atoms: C_2  and  N_3 
REMARK    2  A    between atoms: N_3  and  C_5 
REMARK    3  A    between atoms: N_3  and  C_33 
REMARK    4  A    between atoms: C_5  and  C_6 
REMARK    5  A    between atoms: N_7  and  C_8 
REMARK    6  A    between atoms: C_12  and  N_13 
REMARK    7  A    between atoms: C_16  and  C_17 
REMARK       I    between atoms: C_17  and  N_18 
REMARK    8  A    between atoms: N_18  and  N_19 
REMARK    9  A    between atoms: C_20  and  C_21 
REMARK   10  A    between atoms: C_25  and  O_26 
REMARK   11  A    between atoms: C_27  and  O_28 
REMARK   12  A    between atoms: O_28  and  C_29 
ROOT
HETATM    1  C   UNL     1      21.193  46.679  48.536  1.00  0.00     0.096 A 
HETATM    2  N   UNL     1      19.849  46.988  48.723  1.00  0.00    -0.215 N 
HETATM    3  N   UNL     1      19.128  45.835  48.693  1.00  0.00     0.012 NA
HETATM    4  N   UNL     1      19.953  44.806  48.597  1.00  0.00    -0.152 NA
HETATM    5  C   UNL     1      21.225  45.291  48.508  1.00  0.00     0.170 A 
ENDROOT
BRANCH   5   6
HETATM    6  C   UNL     1      22.411  44.450  48.406  1.00  0.00     0.293 C 
HETATM    7  N   UNL     1      22.783  43.845  49.592  1.00  0.00    -0.242 N 
HETATM    8  H   UNL     1      22.244  43.999  50.440  1.00  0.00     0.192 HD
HETATM    9  O   UNL     1      23.000  44.350  47.332  1.00  0.00    -0.264 OA
BRANCH   7  10
HETATM   10  N   UNL     1      23.856  43.010  49.597  1.00  0.00    -0.184 NA
HETATM   11  C   UNL     1      24.593  43.020  50.662  1.00  0.00     0.150 C 
BRANCH  11  12
HETATM   12  C   UNL     1      25.769  42.133  50.778  1.00  0.00    -0.013 A 
HETATM   13  C   UNL     1      25.787  40.900  50.117  1.00  0.00     0.035 A 
HETATM   14  C   UNL     1      26.896  40.071  50.248  1.00  0.00     0.047 A 
HETATM   15 BR   UNL     1      26.898  38.399  49.353  1.00  0.00    -0.048 Br
HETATM   16  C   UNL     1      27.984  40.471  51.028  1.00  0.00     0.116 A 
HETATM   17  C   UNL     1      27.974  41.710  51.687  1.00  0.00     0.104 A 
HETATM   18  C   UNL     1      26.856  42.541  51.562  1.00  0.00     0.052 A 
BRANCH  16  19
HETATM   19  O   UNL     1      29.085  39.664  51.167  1.00  0.00    -0.357 OA
HETATM   20  H   UNL     1      29.863  40.230  51.313  1.00  0.00     0.218 HD
ENDBRANCH  16  19
BRANCH  17  21
HETATM   21  O   UNL     1      29.090  42.004  52.424  1.00  0.00    -0.349 OA
BRANCH  21  22
HETATM   22  C   UNL     1      28.961  42.107  53.838  1.00  0.00     0.171 C 
HETATM   23  C   UNL     1      29.611  43.409  54.272  1.00  0.00     0.034 C 
ENDBRANCH  21  22
ENDBRANCH  17  21
ENDBRANCH  11  12
ENDBRANCH   7  10
ENDBRANCH   5   6
BRANCH   1  24
HETATM   24  C   UNL     1      22.286  47.659  48.316  1.00  0.00     0.296 C 
BRANCH  24  25
HETATM   25  N   UNL     1      22.809  48.371  49.552  1.00  0.00    -0.066 N 
HETATM   26  H   UNL     1      22.290  47.981  50.353  1.00  0.00     0.280 HD
BRANCH  25  27
HETATM   27  C   UNL     1      22.500  49.862  49.493  1.00  0.00     0.231 C 
HETATM   28  C   UNL     1      22.920  50.463  48.164  1.00  0.00     0.034 C 
ENDBRANCH  25  27
BRANCH  25  29
HETATM   29  C   UNL     1      24.294  48.128  49.779  1.00  0.00     0.231 C 
HETATM   30  C   UNL     1      24.528  46.804  50.488  1.00  0.00     0.034 C 
ENDBRANCH  25  29
ENDBRANCH  24  25
ENDBRANCH   1  24
BRANCH   2  31
HETATM   31  C   UNL     1      19.260  48.251  48.969  1.00  0.00     0.225 A 
HETATM   32  N   UNL     1      19.147  49.137  47.975  1.00  0.00    -0.081 NA
HETATM   33  O   UNL     1      18.553  50.245  48.590  1.00  0.00    -0.103 OA
HETATM   34  N   UNL     1      18.344  50.017  49.941  1.00  0.00    -0.083 NA
HETATM   35  C   UNL     1      18.784  48.783  50.179  1.00  0.00     0.201 A 
BRANCH  35  36
HETATM   36  N   UNL     1      18.755  48.181  51.378  1.00  0.00    -0.379 N 
HETATM   37  H   UNL     1      18.682  48.734  52.228  1.00  0.00     0.158 HD
HETATM   38  H   UNL     1      18.969  47.198  51.528  1.00  0.00     0.158 HD
ENDBRANCH  35  36
ENDBRANCH   2  31
TORSDOF 12
ENDMDL
MODEL 5
REMARK VINA RESULT:      -7.5     13.305     16.308
REMARK  12 active torsions:
REMARK  status: ('A' for Active; 'I' for Inactive)
REMARK    1  A    between atoms: C_2  and  N_3 
REMARK    2  A    between atoms: N_3  and  C_5 
REMARK    3  A    between atoms: N_3  and  C_33 
REMARK    4  A    between atoms: C_5  and  C_6 
REMARK    5  A    between atoms: N_7  and  C_8 
REMARK    6  A    between atoms: C_12  and  N_13 
REMARK    7  A    between atoms: C_16  and  C_17 
REMARK       I    between atoms: C_17  and  N_18 
REMARK    8  A    between atoms: N_18  and  N_19 
REMARK    9  A    between atoms: C_20  and  C_21 
REMARK   10  A    between atoms: C_25  and  O_26 
REMARK   11  A    between atoms: C_27  and  O_28 
REMARK   12  A    between atoms: O_28  and  C_29 
ROOT
HETATM    1  C   UNL     1      31.040  51.225  41.395  1.00  0.00     0.096 A 
HETATM    2  N   UNL     1      29.897  51.840  40.889  1.00  0.00    -0.215 N 
HETATM    3  N   UNL     1      29.477  52.777  41.781  1.00  0.00     0.012 NA
HETATM    4  N   UNL     1      30.345  52.856  42.775  1.00  0.00    -0.152 NA
HETATM    5  C   UNL     1      31.318  51.924  42.562  1.00  0.00     0.170 A 
ENDROOT
BRANCH   5   6
HETATM    6  C   UNL     1      32.462  51.725  43.442  1.00  0.00     0.293 C 
HETATM    7  N   UNL     1      33.679  52.056  42.876  1.00  0.00    -0.242 N 
HETATM    8  H   UNL     1      33.727  52.408  41.923  1.00  0.00     0.192 HD
HETATM    9  O   UNL     1      32.295  51.275  44.573  1.00  0.00    -0.264 OA
BRANCH   7  10
HETATM   10  N   UNL     1      34.808  51.943  43.626  1.00  0.00    -0.184 NA
HETATM   11  C   UNL     1      35.933  52.132  43.014  1.00  0.00     0.150 C 
BRANCH  11  12
HETATM   12  C   UNL     1      37.215  52.054  43.744  1.00  0.00    -0.013 A 
HETATM   13  C   UNL     1      38.046  50.940  43.589  1.00  0.00     0.035 A 
HETATM   14  C   UNL     1      39.243  50.875  44.294  1.00  0.00     0.047 A 
HETATM   15 BR   UNL     1      40.351  49.352  44.078  1.00  0.00    -0.048 Br
HETATM   16  C   UNL     1      39.612  51.920  45.145  1.00  0.00     0.116 A 
HETATM   17  C   UNL     1      38.786  53.044  45.300  1.00  0.00     0.104 A 
HETATM   18  C   UNL     1      37.578  53.105  44.595  1.00  0.00     0.052 A 
BRANCH  16  19
HETATM   19  O   UNL     1      40.790  51.871  45.848  1.00  0.00    -0.357 OA
HETATM   20  H   UNL     1      41.526  51.969  45.218  1.00  0.00     0.218 HD
ENDBRANCH  16  19
BRANCH  17  21
HETATM   21  O   UNL     1      39.243  54.009  46.157  1.00  0.00    -0.349 OA
BRANCH  21  22
HETATM   22  C   UNL     1      38.352  54.515  47.145  1.00  0.00     0.171 C 
HETATM   23  C   UNL     1      38.661  53.814  48.455  1.00  0.00     0.034 C 
ENDBRANCH  21  22
ENDBRANCH  17  21
ENDBRANCH  11  12
ENDBRANCH   7  10
ENDBRANCH   5   6
BRANCH   1  24
HETATM   24  C   UNL     1      31.703  50.026  40.825  1.00  0.00     0.296 C 
BRANCH  24  25
HETATM   25  N   UNL     1      31.038  48.690  41.115  1.00  0.00    -0.066 N 
HETATM   26  H   UNL     1      31.799  48.001  41.206  1.00  0.00     0.280 HD
BRANCH  25  27
HETATM   27  C   UNL     1      30.165  48.251  39.946  1.00  0.00     0.231 C 
HETATM   28  C   UNL     1      30.473  46.824  39.528  1.00  0.00     0.034 C 
ENDBRANCH  25  27
BRANCH  25  29
HETATM   29  C   UNL     1      30.246  48.705  42.415  1.00  0.00     0.231 C 
HETATM   30  C   UNL     1      28.757  48.556  42.148  1.00  0.00     0.034 C 
ENDBRANCH  25  29
ENDBRANCH  24  25
ENDBRANCH   1  24
BRANCH   2  31
HETATM   31  C   UNL     1      29.258  51.628  39.645  1.00  0.00     0.225 A 
HETATM   32  N   UNL     1      29.944  51.786  38.509  1.00  0.00    -0.081 NA
HETATM   33  O   UNL     1      28.997  51.517  37.514  1.00  0.00    -0.103 OA
HETATM   34  N   UNL     1      27.758  51.232  38.066  1.00  0.00    -0.083 NA
HETATM   35  C   UNL     1      27.917  51.302  39.386  1.00  0.00     0.201 A 
BRANCH  35  36
HETATM   36  N   UNL     1      26.943  51.085  40.284  1.00  0.00    -0.379 N 
HETATM   37  H   UNL     1      26.060  51.586  40.214  1.00  0.00     0.158 HD
HETATM   38  H   UNL     1      27.070  50.566  41.149  1.00  0.00     0.158 HD
ENDBRANCH  35  36
ENDBRANCH   2  31
TORSDOF 12
ENDMDL
MODEL 6
REMARK VINA RESULT:      -7.5      5.406     10.749
REMARK  12 active torsions:
REMARK  status: ('A' for Active; 'I' for Inactive)
REMARK    1  A    between atoms: C_2  and  N_3 
REMARK    2  A    between atoms: N_3  and  C_5 
REMARK    3  A    between atoms: N_3  and  C_33 
REMARK    4  A    between atoms: C_5  and  C_6 
REMARK    5  A    between atoms: N_7  and  C_8 
REMARK    6  A    between atoms: C_12  and  N_13 
REMARK    7  A    between atoms: C_16  and  C_17 
REMARK       I    between atoms: C_17  and  N_18 
REMARK    8  A    between atoms: N_18  and  N_19 
REMARK    9  A    between atoms: C_20  and  C_21 
REMARK   10  A    between atoms: C_25  and  O_26 
REMARK   11  A    between atoms: C_27  and  O_28 
REMARK   12  A    between atoms: O_28  and  C_29 
ROOT
HETATM    1  C   UNL     1      20.894  46.761  48.468  1.00  0.00     0.096 A 
HETATM    2  N   UNL     1      19.529  47.028  48.539  1.00  0.00    -0.215 N 
HETATM    3  N   UNL     1      18.853  45.849  48.507  1.00  0.00     0.012 NA
HETATM    4  N   UNL     1      19.717  44.848  48.520  1.00  0.00    -0.152 NA
HETATM    5  C   UNL     1      20.974  45.375  48.505  1.00  0.00     0.170 A 
ENDROOT
BRANCH   5   6
HETATM    6  C   UNL     1      22.193  44.575  48.531  1.00  0.00     0.293 C 
HETATM    7  N   UNL     1      22.682  44.325  49.799  1.00  0.00    -0.242 N 
HETATM    8  H   UNL     1      22.199  44.685  50.619  1.00  0.00     0.192 HD
HETATM    9  O   UNL     1      22.706  44.207  47.477  1.00  0.00    -0.264 OA
BRANCH   7  10
HETATM   10  N   UNL     1      23.795  43.556  49.937  1.00  0.00    -0.184 NA
HETATM   11  C   UNL     1      24.548  43.804  50.961  1.00  0.00     0.150 C 
BRANCH  11  12
HETATM   12  C   UNL     1      25.768  43.009  51.213  1.00  0.00    -0.013 A 
HETATM   13  C   UNL     1      26.568  43.285  52.326  1.00  0.00     0.035 A 
HETATM   14  C   UNL     1      27.721  42.538  52.542  1.00  0.00     0.047 A 
HETATM   15 BR   UNL     1      28.799  42.933  54.051  1.00  0.00    -0.048 Br
HETATM   16  C   UNL     1      28.071  41.516  51.655  1.00  0.00     0.116 A 
HETATM   17  C   UNL     1      27.267  41.230  50.540  1.00  0.00     0.104 A 
HETATM   18  C   UNL     1      26.112  41.987  50.319  1.00  0.00     0.052 A 
BRANCH  16  19
HETATM   19  O   UNL     1      29.205  40.770  51.854  1.00  0.00    -0.357 OA
HETATM   20  H   UNL     1      29.976  41.360  51.780  1.00  0.00     0.218 HD
ENDBRANCH  16  19
BRANCH  17  21
HETATM   21  O   UNL     1      27.701  40.210  49.736  1.00  0.00    -0.349 OA
BRANCH  21  22
HETATM   22  C   UNL     1      26.924  39.018  49.675  1.00  0.00     0.171 C 
HETATM   23  C   UNL     1      27.880  37.843  49.577  1.00  0.00     0.034 C 
ENDBRANCH  21  22
ENDBRANCH  17  21
ENDBRANCH  11  12
ENDBRANCH   7  10
ENDBRANCH   5   6
BRANCH   1  24
HETATM   24  C   UNL     1      21.967  47.770  48.287  1.00  0.00     0.296 C 
BRANCH  24  25
HETATM   25  N   UNL     1      22.539  48.378  49.557  1.00  0.00    -0.066 N 
HETATM   26  H   UNL     1      21.933  48.062  50.328  1.00  0.00     0.280 HD
BRANCH  25  27
HETATM   27  C   UNL     1      22.464  49.899  49.514  1.00  0.00     0.231 C 
HETATM   28  C   UNL     1      21.854  50.389  48.213  1.00  0.00     0.034 C 
ENDBRANCH  25  27
BRANCH  25  29
HETATM   29  C   UNL     1      23.958  47.907  49.838  1.00  0.00     0.231 C 
HETATM   30  C   UNL     1      24.975  48.781  49.122  1.00  0.00     0.034 C 
ENDBRANCH  25  29
ENDBRANCH  24  25
ENDBRANCH   1  24
BRANCH   2  31
HETATM   31  C   UNL     1      18.881  48.278  48.683  1.00  0.00     0.225 A 
HETATM   32  N   UNL     1      18.377  48.892  47.609  1.00  0.00    -0.081 NA
HETATM   33  O   UNL     1      17.848  50.080  48.129  1.00  0.00    -0.103 OA
HETATM   34  N   UNL     1      18.068  50.170  49.495  1.00  0.00    -0.083 NA
HETATM   35  C   UNL     1      18.710  49.056  49.840  1.00  0.00     0.201 A 
BRANCH  35  36
HETATM   36  N   UNL     1      19.103  48.757  51.087  1.00  0.00    -0.379 N 
HETATM   37  H   UNL     1      18.579  48.086  51.644  1.00  0.00     0.158 HD
HETATM   38  H   UNL     1      19.808  49.278  51.603  1.00  0.00     0.158 HD
ENDBRANCH  35  36
ENDBRANCH   2  31
TORSDOF 12
ENDMDL
MODEL 7
REMARK VINA RESULT:      -7.5      4.603     11.018
REMARK  12 active torsions:
REMARK  status: ('A' for Active; 'I' for Inactive)
REMARK    1  A    between atoms: C_2  and  N_3 
REMARK    2  A    between atoms: N_3  and  C_5 
REMARK    3  A    between atoms: N_3  and  C_33 
REMARK    4  A    between atoms: C_5  and  C_6 
REMARK    5  A    between atoms: N_7  and  C_8 
REMARK    6  A    between atoms: C_12  and  N_13 
REMARK    7  A    between atoms: C_16  and  C_17 
REMARK       I    between atoms: C_17  and  N_18 
REMARK    8  A    between atoms: N_18  and  N_19 
REMARK    9  A    between atoms: C_20  and  C_21 
REMARK   10  A    between atoms: C_25  and  O_26 
REMARK   11  A    between atoms: C_27  and  O_28 
REMARK   12  A    between atoms: O_28  and  C_29 
ROOT
HETATM    1  C   UNL     1      20.890  47.594  48.489  1.00  0.00     0.096 A 
HETATM    2  N   UNL     1      19.949  47.055  47.616  1.00  0.00    -0.215 N 
HETATM    3  N   UNL     1      20.530  46.039  46.924  1.00  0.00     0.012 NA
HETATM    4  N   UNL     1      21.755  45.842  47.382  1.00  0.00    -0.152 NA
HETATM    5  C   UNL     1      22.001  46.773  48.347  1.00  0.00     0.170 A 
ENDROOT
BRANCH   5   6
HETATM    6  C   UNL     1      23.247  46.860  49.097  1.00  0.00     0.293 C 
HETATM    7  N   UNL     1      23.452  45.817  49.982  1.00  0.00    -0.242 N 
HETATM    8  H   UNL     1      22.766  45.071  50.068  1.00  0.00     0.192 HD
HETATM    9  O   UNL     1      23.999  47.818  48.930  1.00  0.00    -0.264 OA
BRANCH   7  10
HETATM   10  N   UNL     1      24.603  45.782  50.705  1.00  0.00    -0.184 NA
HETATM   11  C   UNL     1      24.654  44.923  51.672  1.00  0.00     0.150 C 
BRANCH  11  12
HETATM   12  C   UNL     1      25.869  44.790  52.503  1.00  0.00    -0.013 A 
HETATM   13  C   UNL     1      26.531  43.561  52.589  1.00  0.00     0.035 A 
HETATM   14  C   UNL     1      27.665  43.449  53.387  1.00  0.00     0.047 A 
HETATM   15 BR   UNL     1      28.543  41.773  53.497  1.00  0.00    -0.048 Br
HETATM   16  C   UNL     1      28.140  44.559  54.091  1.00  0.00     0.116 A 
HETATM   17  C   UNL     1      27.483  45.796  54.003  1.00  0.00     0.104 A 
HETATM   18  C   UNL     1      26.338  45.907  53.207  1.00  0.00     0.052 A 
BRANCH  16  19
HETATM   19  O   UNL     1      29.257  44.464  54.882  1.00  0.00    -0.357 OA
HETATM   20  H   UNL     1      29.979  44.953  54.451  1.00  0.00     0.218 HD
ENDBRANCH  16  19
BRANCH  17  21
HETATM   21  O   UNL     1      28.032  46.817  54.733  1.00  0.00    -0.349 OA
BRANCH  21  22
HETATM   22  C   UNL     1      27.363  47.240  55.917  1.00  0.00     0.171 C 
HETATM   23  C   UNL     1      26.559  48.482  55.579  1.00  0.00     0.034 C 
ENDBRANCH  21  22
ENDBRANCH  17  21
ENDBRANCH  11  12
ENDBRANCH   7  10
ENDBRANCH   5   6
BRANCH   1  24
HETATM   24  C   UNL     1      20.721  48.835  49.287  1.00  0.00     0.296 C 
BRANCH  24  25
HETATM   25  N   UNL     1      20.544  50.122  48.498  1.00  0.00    -0.066 N 
HETATM   26  H   UNL     1      19.812  49.933  47.797  1.00  0.00     0.280 HD
BRANCH  25  27
HETATM   27  C   UNL     1      21.818  50.476  47.741  1.00  0.00     0.231 C 
HETATM   28  C   UNL     1      22.860  51.084  48.662  1.00  0.00     0.034 C 
ENDBRANCH  25  27
BRANCH  25  29
HETATM   29  C   UNL     1      20.086  51.281  49.371  1.00  0.00     0.231 C 
HETATM   30  C   UNL     1      19.309  52.303  48.557  1.00  0.00     0.034 C 
ENDBRANCH  25  29
ENDBRANCH  24  25
ENDBRANCH   1  24
BRANCH   2  31
HETATM   31  C   UNL     1      18.588  47.407  47.459  1.00  0.00     0.225 A 
HETATM   32  N   UNL     1      18.264  48.606  46.966  1.00  0.00    -0.081 NA
HETATM   33  O   UNL     1      16.864  48.598  46.979  1.00  0.00    -0.103 OA
HETATM   34  N   UNL     1      16.375  47.411  47.502  1.00  0.00    -0.083 NA
HETATM   35  C   UNL     1      17.441  46.673  47.802  1.00  0.00     0.201 A 
BRANCH  35  36
HETATM   36  N   UNL     1      17.391  45.441  48.333  1.00  0.00    -0.379 N 
HETATM   37  H   UNL     1      17.565  45.303  49.325  1.00  0.00     0.158 HD
HETATM   38  H   UNL     1      17.351  44.585  47.785  1.00  0.00     0.158 HD
ENDBRANCH  35  36
ENDBRANCH   2  31
TORSDOF 12
ENDMDL
MODEL 8
REMARK VINA RESULT:      -7.5     13.469     16.423
REMARK  12 active torsions:
REMARK  status: ('A' for Active; 'I' for Inactive)
REMARK    1  A    between atoms: C_2  and  N_3 
REMARK    2  A    between atoms: N_3  and  C_5 
REMARK    3  A    between atoms: N_3  and  C_33 
REMARK    4  A    between atoms: C_5  and  C_6 
REMARK    5  A    between atoms: N_7  and  C_8 
REMARK    6  A    between atoms: C_12  and  N_13 
REMARK    7  A    between atoms: C_16  and  C_17 
REMARK       I    between atoms: C_17  and  N_18 
REMARK    8  A    between atoms: N_18  and  N_19 
REMARK    9  A    between atoms: C_20  and  C_21 
REMARK   10  A    between atoms: C_25  and  O_26 
REMARK   11  A    between atoms: C_27  and  O_28 
REMARK   12  A    between atoms: O_28  and  C_29 
ROOT
HETATM    1  C   UNL     1      30.752  51.066  42.299  1.00  0.00     0.096 A 
HETATM    2  N   UNL     1      30.141  49.926  41.783  1.00  0.00    -0.215 N 
HETATM    3  N   UNL     1      30.915  48.847  42.075  1.00  0.00     0.012 NA
HETATM    4  N   UNL     1      31.931  49.229  42.831  1.00  0.00    -0.152 NA
HETATM    5  C   UNL     1      31.853  50.580  42.993  1.00  0.00     0.170 A 
ENDROOT
BRANCH   5   6
HETATM    6  C   UNL     1      32.795  51.361  43.785  1.00  0.00     0.293 C 
HETATM    7  N   UNL     1      33.988  51.635  43.142  1.00  0.00    -0.242 N 
HETATM    8  H   UNL     1      34.152  51.302  42.195  1.00  0.00     0.192 HD
HETATM    9  O   UNL     1      32.503  51.696  44.930  1.00  0.00    -0.264 OA
BRANCH   7  10
HETATM   10  N   UNL     1      34.922  52.390  43.779  1.00  0.00    -0.184 NA
HETATM   11  C   UNL     1      36.150  51.986  43.696  1.00  0.00     0.150 C 
BRANCH  11  12
HETATM   12  C   UNL     1      37.243  52.748  44.334  1.00  0.00    -0.013 A 
HETATM   13  C   UNL     1      38.419  52.099  44.722  1.00  0.00     0.035 A 
HETATM   14  C   UNL     1      39.433  52.828  45.334  1.00  0.00     0.047 A 
HETATM   15 BR   UNL     1      41.017  51.929  45.861  1.00  0.00    -0.048 Br
HETATM   16  C   UNL     1      39.277  54.199  45.553  1.00  0.00     0.116 A 
HETATM   17  C   UNL     1      38.101  54.857  45.159  1.00  0.00     0.104 A 
HETATM   18  C   UNL     1      37.079  54.122  44.550  1.00  0.00     0.052 A 
BRANCH  16  19
HETATM   19  O   UNL     1      40.268  54.932  46.156  1.00  0.00    -0.357 OA
HETATM   20  H   UNL     1      41.031  54.347  46.310  1.00  0.00     0.218 HD
ENDBRANCH  16  19
BRANCH  17  21
HETATM   21  O   UNL     1      38.052  56.201  45.420  1.00  0.00    -0.349 OA
BRANCH  21  22
HETATM   22  C   UNL     1      38.380  57.107  44.372  1.00  0.00     0.171 C 
HETATM   23  C   UNL     1      37.789  58.460  44.724  1.00  0.00     0.034 C 
ENDBRANCH  21  22
ENDBRANCH  17  21
ENDBRANCH  11  12
ENDBRANCH   7  10
ENDBRANCH   5   6
BRANCH   1  24
HETATM   24  C   UNL     1      30.334  52.466  42.041  1.00  0.00     0.296 C 
BRANCH  24  25
HETATM   25  N   UNL     1      30.569  52.988  40.633  1.00  0.00    -0.066 N 
HETATM   26  H   UNL     1      31.048  53.895  40.735  1.00  0.00     0.280 HD
BRANCH  25  27
HETATM   27  C   UNL     1      29.247  53.249  39.921  1.00  0.00     0.231 C 
HETATM   28  C   UNL     1      29.234  52.634  38.533  1.00  0.00     0.034 C 
ENDBRANCH  25  27
BRANCH  25  29
HETATM   29  C   UNL     1      31.460  52.065  39.813  1.00  0.00     0.231 C 
HETATM   30  C   UNL     1      32.886  52.588  39.761  1.00  0.00     0.034 C 
ENDBRANCH  25  29
ENDBRANCH  24  25
ENDBRANCH   1  24
BRANCH   2  31
HETATM   31  C   UNL     1      28.900  49.818  41.113  1.00  0.00     0.225 A 
HETATM   32  N   UNL     1      27.774  50.181  41.735  1.00  0.00    -0.081 NA
HETATM   33  O   UNL     1      26.777  49.917  40.789  1.00  0.00    -0.103 OA
HETATM   34  N   UNL     1      27.315  49.377  39.631  1.00  0.00    -0.083 NA
HETATM   35  C   UNL     1      28.630  49.313  39.831  1.00  0.00     0.201 A 
BRANCH  35  36
HETATM   36  N   UNL     1      29.515  48.847  38.936  1.00  0.00    -0.379 N 
HETATM   37  H   UNL     1      30.468  48.634  39.220  1.00  0.00     0.158 HD
HETATM   38  H   UNL     1      29.359  48.837  37.931  1.00  0.00     0.158 HD
ENDBRANCH  35  36
ENDBRANCH   2  31
TORSDOF 12
ENDMDL
MODEL 9
REMARK VINA RESULT:      -7.4      2.258      3.930
REMARK  12 active torsions:
REMARK  status: ('A' for Active; 'I' for Inactive)
REMARK    1  A    between atoms: C_2  and  N_3 
REMARK    2  A    between atoms: N_3  and  C_5 
REMARK    3  A    between atoms: N_3  and  C_33 
REMARK    4  A    between atoms: C_5  and  C_6 
REMARK    5  A    between atoms: N_7  and  C_8 
REMARK    6  A    between atoms: C_12  and  N_13 
REMARK    7  A    between atoms: C_16  and  C_17 
REMARK       I    between atoms: C_17  and  N_18 
REMARK    8  A    between atoms: N_18  and  N_19 
REMARK    9  A    between atoms: C_20  and  C_21 
REMARK   10  A    between atoms: C_25  and  O_26 
REMARK   11  A    between atoms: C_27  and  O_28 
REMARK   12  A    between atoms: O_28  and  C_29 
ROOT
HETATM    1  C   UNL     1      28.759  44.362  54.503  1.00  0.00     0.096 A 
HETATM    2  N   UNL     1      29.905  44.069  55.236  1.00  0.00    -0.215 N 
HETATM    3  N   UNL     1      30.612  43.114  54.575  1.00  0.00     0.012 NA
HETATM    4  N   UNL     1      30.027  42.859  53.417  1.00  0.00    -0.152 NA
HETATM    5  C   UNL     1      28.894  43.615  53.340  1.00  0.00     0.170 A 
ENDROOT
BRANCH   5   6
HETATM    6  C   UNL     1      27.992  43.616  52.196  1.00  0.00     0.293 C 
HETATM    7  N   UNL     1      27.086  42.572  52.186  1.00  0.00    -0.242 N 
HETATM    8  H   UNL     1      27.082  41.884  52.935  1.00  0.00     0.192 HD
HETATM    9  O   UNL     1      28.095  44.486  51.334  1.00  0.00    -0.264 OA
BRANCH   7  10
HETATM   10  N   UNL     1      26.173  42.501  51.180  1.00  0.00    -0.184 NA
HETATM   11  C   UNL     1      25.166  43.312  51.252  1.00  0.00     0.150 C 
BRANCH  11  12
HETATM   12  C   UNL     1      24.131  43.331  50.197  1.00  0.00    -0.013 A 
HETATM   13  C   UNL     1      23.865  42.177  49.454  1.00  0.00     0.035 A 
HETATM   14  C   UNL     1      22.898  42.215  48.455  1.00  0.00     0.047 A 
HETATM   15 BR   UNL     1      22.557  40.643  47.451  1.00  0.00    -0.048 Br
HETATM   16  C   UNL     1      22.195  43.396  48.204  1.00  0.00     0.116 A 
HETATM   17  C   UNL     1      22.454  44.556  48.952  1.00  0.00     0.104 A 
HETATM   18  C   UNL     1      23.432  44.519  49.951  1.00  0.00     0.052 A 
BRANCH  16  19
HETATM   19  O   UNL     1      21.238  43.450  47.222  1.00  0.00    -0.357 OA
HETATM   20  H   UNL     1      21.670  43.284  46.364  1.00  0.00     0.218 HD
ENDBRANCH  16  19
BRANCH  17  21
HETATM   21  O   UNL     1      21.709  45.657  48.623  1.00  0.00    -0.349 OA
BRANCH  21  22
HETATM   22  C   UNL     1      22.387  46.883  48.371  1.00  0.00     0.171 C 
HETATM   23  C   UNL     1      21.443  48.019  48.720  1.00  0.00     0.034 C 
ENDBRANCH  21  22
ENDBRANCH  17  21
ENDBRANCH  11  12
ENDBRANCH   7  10
ENDBRANCH   5   6
BRANCH   1  24
HETATM   24  C   UNL     1      27.629  45.208  54.962  1.00  0.00     0.296 C 
BRANCH  24  25
HETATM   25  N   UNL     1      27.266  46.385  54.070  1.00  0.00    -0.066 N 
HETATM   26  H   UNL     1      27.831  46.286  53.215  1.00  0.00     0.280 HD
BRANCH  25  27
HETATM   27  C   UNL     1      27.657  47.704  54.724  1.00  0.00     0.231 C 
HETATM   28  C   UNL     1      26.528  48.259  55.574  1.00  0.00     0.034 C 
ENDBRANCH  25  27
BRANCH  25  29
HETATM   29  C   UNL     1      25.796  46.384  53.677  1.00  0.00     0.231 C 
HETATM   30  C   UNL     1      25.613  46.868  52.248  1.00  0.00     0.034 C 
ENDBRANCH  25  29
ENDBRANCH  24  25
ENDBRANCH   1  24
BRANCH   2  31
HETATM   31  C   UNL     1      30.359  44.661  56.438  1.00  0.00     0.225 A 
HETATM   32  N   UNL     1      29.993  45.910  56.744  1.00  0.00    -0.081 NA
HETATM   33  O   UNL     1      30.638  46.151  57.963  1.00  0.00    -0.103 OA
HETATM   34  N   UNL     1      31.397  45.058  58.353  1.00  0.00    -0.083 NA
HETATM   35  C   UNL     1      31.228  44.135  57.408  1.00  0.00     0.201 A 
BRANCH  35  36
HETATM   36  N   UNL     1      31.799  42.921  57.418  1.00  0.00    -0.379 N 
HETATM   37  H   UNL     1      32.810  42.830  57.474  1.00  0.00     0.158 HD
HETATM   38  H   UNL     1      31.305  42.057  57.207  1.00  0.00     0.158 HD
ENDBRANCH  35  36
ENDBRANCH   2  31
TORSDOF 12
ENDMDL
MODEL 10
REMARK VINA RESULT:      -7.4      4.641     11.283
REMARK  12 active torsions:
REMARK  status: ('A' for Active; 'I' for Inactive)
REMARK    1  A    between atoms: C_2  and  N_3 
REMARK    2  A    between atoms: N_3  and  C_5 
REMARK    3  A    between atoms: N_3  and  C_33 
REMARK    4  A    between atoms: C_5  and  C_6 
REMARK    5  A    between atoms: N_7  and  C_8 
REMARK    6  A    between atoms: C_12  and  N_13 
REMARK    7  A    between atoms: C_16  and  C_17 
REMARK       I    between atoms: C_17  and  N_18 
REMARK    8  A    between atoms: N_18  and  N_19 
REMARK    9  A    between atoms: C_20  and  C_21 
REMARK   10  A    between atoms: C_25  and  O_26 
REMARK   11  A    between atoms: C_27  and  O_28 
REMARK   12  A    between atoms: O_28  and  C_29 
ROOT
HETATM    1  C   UNL     1      20.953  47.511  48.218  1.00  0.00     0.096 A 
HETATM    2  N   UNL     1      20.177  47.003  47.180  1.00  0.00    -0.215 N 
HETATM    3  N   UNL     1      20.951  46.184  46.419  1.00  0.00     0.012 NA
HETATM    4  N   UNL     1      22.145  46.068  46.975  1.00  0.00    -0.152 NA
HETATM    5  C   UNL     1      22.174  46.862  48.083  1.00  0.00     0.170 A 
ENDROOT
BRANCH   5   6
HETATM    6  C   UNL     1      23.324  46.982  48.970  1.00  0.00     0.293 C 
HETATM    7  N   UNL     1      23.590  45.847  49.713  1.00  0.00    -0.242 N 
HETATM    8  H   UNL     1      23.008  45.018  49.616  1.00  0.00     0.192 HD
HETATM    9  O   UNL     1      23.948  48.039  49.024  1.00  0.00    -0.264 OA
BRANCH   7  10
HETATM   10  N   UNL     1      24.665  45.840  50.545  1.00  0.00    -0.184 NA
HETATM   11  C   UNL     1      24.554  45.144  51.631  1.00  0.00     0.150 C 
BRANCH  11  12
HETATM   12  C   UNL     1      25.675  45.053  52.590  1.00  0.00    -0.013 A 
HETATM   13  C   UNL     1      26.029  46.163  53.363  1.00  0.00     0.035 A 
HETATM   14  C   UNL     1      27.096  46.065  54.252  1.00  0.00     0.047 A 
HETATM   15 BR   UNL     1      27.568  47.583  55.284  1.00  0.00    -0.048 Br
HETATM   16  C   UNL     1      27.800  44.864  54.372  1.00  0.00     0.116 A 
HETATM   17  C   UNL     1      27.444  43.745  53.603  1.00  0.00     0.104 A 
HETATM   18  C   UNL     1      26.376  43.846  52.705  1.00  0.00     0.052 A 
BRANCH  16  19
HETATM   19  O   UNL     1      28.854  44.753  55.244  1.00  0.00    -0.357 OA
HETATM   20  H   UNL     1      28.598  45.164  56.088  1.00  0.00     0.218 HD
ENDBRANCH  16  19
BRANCH  17  21
HETATM   21  O   UNL     1      28.199  42.620  53.800  1.00  0.00    -0.349 OA
BRANCH  21  22
HETATM   22  C   UNL     1      29.105  42.224  52.776  1.00  0.00     0.171 C 
HETATM   23  C   UNL     1      28.862  40.755  52.481  1.00  0.00     0.034 C 
ENDBRANCH  21  22
ENDBRANCH  17  21
ENDBRANCH  11  12
ENDBRANCH   7  10
ENDBRANCH   5   6
BRANCH   1  24
HETATM   24  C   UNL     1      20.546  48.584  49.160  1.00  0.00     0.296 C 
BRANCH  24  25
HETATM   25  N   UNL     1      20.669  50.009  48.647  1.00  0.00    -0.066 N 
HETATM   26  H   UNL     1      20.999  49.940  47.674  1.00  0.00     0.280 HD
BRANCH  25  27
HETATM   27  C   UNL     1      21.725  50.780  49.431  1.00  0.00     0.231 C 
HETATM   28  C   UNL     1      22.872  51.216  48.537  1.00  0.00     0.034 C 
ENDBRANCH  25  27
BRANCH  25  29
HETATM   29  C   UNL     1      19.337  50.745  48.652  1.00  0.00     0.231 C 
HETATM   30  C   UNL     1      19.206  51.628  49.883  1.00  0.00     0.034 C 
ENDBRANCH  25  29
ENDBRANCH  24  25
ENDBRANCH   1  24
BRANCH   2  31
HETATM   31  C   UNL     1      18.800  47.207  46.926  1.00  0.00     0.225 A 
HETATM   32  N   UNL     1      18.414  48.180  46.095  1.00  0.00    -0.081 NA
HETATM   33  O   UNL     1      17.017  48.091  46.112  1.00  0.00    -0.103 OA
HETATM   34  N   UNL     1      16.590  47.089  46.969  1.00  0.00    -0.083 NA
HETATM   35  C   UNL     1      17.693  46.542  47.477  1.00  0.00     0.201 A 
BRANCH  35  36
HETATM   36  N   UNL     1      17.706  45.527  48.354  1.00  0.00    -0.379 N 
HETATM   37  H   UNL     1      17.707  45.714  49.354  1.00  0.00     0.158 HD
HETATM   38  H   UNL     1      17.882  44.558  48.103  1.00  0.00     0.158 HD
ENDBRANCH  35  36
ENDBRANCH   2  31
TORSDOF 12
ENDMDL
