MODEL 1
REMARK VINA RESULT:      -9.4      0.000      0.000
REMARK  4 active torsions:
REMARK  status: ('A' for Active; 'I' for Inactive)
REMARK    1  A    between atoms: C_9  and  C_10 
REMARK    2  A    between atoms: C_13  and  O_14 
REMARK    3  A    between atoms: C_18  and  C_19 
REMARK       I    between atoms: C_19  and  N_20 
REMARK    4  A    between atoms: N_20  and  C_21 
ROOT
HETATM    1  C   UNL     1      28.802  40.794  52.405  1.00  0.00     0.070 C 
HETATM    2  C   UNL     1      27.650  41.468  51.704  1.00  0.00     0.037 C 
HETATM    3  N   UNL     1      27.266  40.894  50.495  1.00  0.00    -0.192 N 
HETATM    4  C   UNL     1      26.109  41.198  49.876  1.00  0.00     0.725 A 
HETATM    5  N   UNL     1      25.341  42.227  50.351  1.00  0.00    -0.084 N 
HETATM    6  N   UNL     1      24.182  42.329  49.668  1.00  0.00    -0.149 NA
HETATM    7  C   UNL     1      24.343  41.358  48.763  1.00  0.00     0.275 A 
HETATM    8  N   UNL     1      25.510  40.643  48.853  1.00  0.00    -0.054 NA
HETATM    9  C   UNL     1      25.717  43.073  51.490  1.00  0.00     0.202 C 
HETATM   10  C   UNL     1      26.949  42.519  52.200  1.00  0.00     0.062 C 
HETATM   11  H   UNL     1      27.753  40.052  50.199  1.00  0.00     0.184 HD
ENDROOT
BRANCH  10  12
HETATM   12  C   UNL     1      27.219  43.153  53.516  1.00  0.00     0.256 C 
HETATM   13  N   UNL     1      28.411  43.845  53.559  1.00  0.00    -0.323 N 
HETATM   14  H   UNL     1      28.949  43.881  52.703  1.00  0.00     0.169 HD
HETATM   15  O   UNL     1      26.382  43.049  54.402  1.00  0.00    -0.267 OA
BRANCH  13  16
HETATM   16  C   UNL     1      28.979  44.496  54.673  1.00  0.00     0.035 A 
HETATM   17  C   UNL     1      28.473  45.672  55.233  1.00  0.00     0.031 A 
HETATM   18  C   UNL     1      29.084  46.245  56.355  1.00  0.00     0.026 A 
HETATM   19  C   UNL     1      30.201  45.641  56.923  1.00  0.00     0.034 A 
HETATM   20 CL   UNL     1      30.945  46.340  58.308  1.00  0.00    -0.084 Cl
HETATM   21  C   UNL     1      30.718  44.471  56.376  1.00  0.00     0.026 A 
HETATM   22  C   UNL     1      30.111  43.903  55.251  1.00  0.00     0.031 A 
ENDBRANCH  13  16
ENDBRANCH  10  12
BRANCH   9  23
HETATM   23  C   UNL     1      25.919  44.516  51.037  1.00  0.00    -0.028 A 
HETATM   24  C   UNL     1      25.182  45.545  51.640  1.00  0.00     0.012 A 
HETATM   25  C   UNL     1      25.348  46.870  51.233  1.00  0.00     0.037 A 
HETATM   26  C   UNL     1      26.250  47.200  50.220  1.00  0.00     0.068 A 
HETATM   27  C   UNL     1      27.005  46.189  49.629  1.00  0.00     0.037 A 
HETATM   28  C   UNL     1      26.846  44.859  50.036  1.00  0.00     0.012 A 
BRANCH  26  29
HETATM   29  O   UNL     1      26.302  48.530  49.908  1.00  0.00    -0.356 OA
HETATM   30  C   UNL     1      27.437  48.973  49.177  1.00  0.00     0.210 C 
ENDBRANCH  26  29
ENDBRANCH   9  23
TORSDOF 4
ENDMDL
MODEL 2
REMARK VINA RESULT:      -8.0      2.958      5.782
REMARK  4 active torsions:
REMARK  status: ('A' for Active; 'I' for Inactive)
REMARK    1  A    between atoms: C_9  and  C_10 
REMARK    2  A    between atoms: C_13  and  O_14 
REMARK    3  A    between atoms: C_18  and  C_19 
REMARK       I    between atoms: C_19  and  N_20 
REMARK    4  A    between atoms: N_20  and  C_21 
ROOT
HETATM    1  C   UNL     1      23.702  42.904  50.333  1.00  0.00     0.070 C 
HETATM    2  C   UNL     1      24.471  42.061  49.348  1.00  0.00     0.037 C 
HETATM    3  N   UNL     1      23.696  41.321  48.459  1.00  0.00    -0.192 N 
HETATM    4  C   UNL     1      24.205  40.729  47.360  1.00  0.00     0.725 A 
HETATM    5  N   UNL     1      25.561  40.704  47.177  1.00  0.00    -0.084 N 
HETATM    6  N   UNL     1      25.884  40.156  45.987  1.00  0.00    -0.149 NA
HETATM    7  C   UNL     1      24.671  39.830  45.529  1.00  0.00     0.275 A 
HETATM    8  N   UNL     1      23.616  40.161  46.340  1.00  0.00    -0.054 NA
HETATM    9  C   UNL     1      26.529  41.252  48.135  1.00  0.00     0.202 C 
HETATM   10  C   UNL     1      25.823  42.037  49.237  1.00  0.00     0.062 C 
HETATM   11  H   UNL     1      22.686  41.434  48.510  1.00  0.00     0.184 HD
ENDROOT
BRANCH  10  12
HETATM   12  C   UNL     1      26.742  42.850  50.077  1.00  0.00     0.256 C 
HETATM   13  N   UNL     1      27.045  42.263  51.287  1.00  0.00    -0.323 N 
HETATM   14  H   UNL     1      26.651  41.347  51.462  1.00  0.00     0.169 HD
HETATM   15  O   UNL     1      27.168  43.906  49.630  1.00  0.00    -0.267 OA
BRANCH  13  16
HETATM   16  C   UNL     1      27.828  42.806  52.325  1.00  0.00     0.035 A 
HETATM   17  C   UNL     1      27.372  43.777  53.222  1.00  0.00     0.031 A 
HETATM   18  C   UNL     1      28.207  44.250  54.241  1.00  0.00     0.026 A 
HETATM   19  C   UNL     1      29.500  43.753  54.369  1.00  0.00     0.034 A 
HETATM   20 CL   UNL     1      30.522  44.328  55.628  1.00  0.00    -0.084 Cl
HETATM   21  C   UNL     1      29.969  42.788  53.483  1.00  0.00     0.026 A 
HETATM   22  C   UNL     1      29.136  42.320  52.461  1.00  0.00     0.031 A 
ENDBRANCH  13  16
ENDBRANCH  10  12
BRANCH   9  23
HETATM   23  C   UNL     1      27.406  40.136  48.700  1.00  0.00    -0.028 A 
HETATM   24  C   UNL     1      28.800  40.213  48.567  1.00  0.00     0.012 A 
HETATM   25  C   UNL     1      29.618  39.199  49.070  1.00  0.00     0.037 A 
HETATM   26  C   UNL     1      29.068  38.091  49.716  1.00  0.00     0.068 A 
HETATM   27  C   UNL     1      27.686  38.015  49.875  1.00  0.00     0.037 A 
HETATM   28  C   UNL     1      26.861  39.031  49.377  1.00  0.00     0.012 A 
BRANCH  26  29
HETATM   29  O   UNL     1      29.978  37.166  50.145  1.00  0.00    -0.356 OA
HETATM   30  C   UNL     1      29.815  36.670  51.466  1.00  0.00     0.210 C 
ENDBRANCH  26  29
ENDBRANCH   9  23
TORSDOF 4
ENDMDL
MODEL 3
REMARK VINA RESULT:      -7.6      5.953      9.056
REMARK  4 active torsions:
REMARK  status: ('A' for Active; 'I' for Inactive)
REMARK    1  A    between atoms: C_9  and  C_10 
REMARK    2  A    between atoms: C_13  and  O_14 
REMARK    3  A    between atoms: C_18  and  C_19 
REMARK       I    between atoms: C_19  and  N_20 
REMARK    4  A    between atoms: N_20  and  C_21 
ROOT
HETATM    1  C   UNL     1      25.740  49.398  48.831  1.00  0.00     0.070 C 
HETATM    2  C   UNL     1      25.201  48.069  49.298  1.00  0.00     0.037 C 
HETATM    3  N   UNL     1      26.134  47.219  49.887  1.00  0.00    -0.192 N 
HETATM    4  C   UNL     1      25.783  46.122  50.588  1.00  0.00     0.725 A 
HETATM    5  N   UNL     1      24.476  45.718  50.596  1.00  0.00    -0.084 N 
HETATM    6  N   UNL     1      24.295  44.663  51.418  1.00  0.00    -0.149 NA
HETATM    7  C   UNL     1      25.549  44.456  51.832  1.00  0.00     0.275 A 
HETATM    8  N   UNL     1      26.492  45.325  51.346  1.00  0.00    -0.054 NA
HETATM    9  C   UNL     1      23.405  46.386  49.845  1.00  0.00     0.202 C 
HETATM   10  C   UNL     1      23.898  47.698  49.242  1.00  0.00     0.062 C 
HETATM   11  H   UNL     1      27.083  47.567  49.997  1.00  0.00     0.184 HD
ENDROOT
BRANCH  10  12
HETATM   12  C   UNL     1      22.808  48.560  48.712  1.00  0.00     0.256 C 
HETATM   13  N   UNL     1      22.168  49.297  49.685  1.00  0.00    -0.323 N 
HETATM   14  H   UNL     1      22.517  49.207  50.631  1.00  0.00     0.169 HD
HETATM   15  O   UNL     1      22.604  48.574  47.506  1.00  0.00    -0.267 OA
BRANCH  13  16
HETATM   16  C   UNL     1      21.059  50.151  49.516  1.00  0.00     0.035 A 
HETATM   17  C   UNL     1      21.047  51.254  48.658  1.00  0.00     0.031 A 
HETATM   18  C   UNL     1      19.897  52.042  48.530  1.00  0.00     0.026 A 
HETATM   19  C   UNL     1      18.753  51.726  49.256  1.00  0.00     0.034 A 
HETATM   20 CL   UNL     1      17.337  52.688  49.089  1.00  0.00    -0.084 Cl
HETATM   21  C   UNL     1      18.749  50.632  50.115  1.00  0.00     0.026 A 
HETATM   22  C   UNL     1      19.902  49.850  50.247  1.00  0.00     0.031 A 
ENDBRANCH  13  16
ENDBRANCH  10  12
BRANCH   9  23
HETATM   23  C   UNL     1      22.836  45.447  48.784  1.00  0.00    -0.028 A 
HETATM   24  C   UNL     1      21.450  45.383  48.584  1.00  0.00     0.012 A 
HETATM   25  C   UNL     1      20.910  44.525  47.624  1.00  0.00     0.037 A 
HETATM   26  C   UNL     1      21.736  43.714  46.844  1.00  0.00     0.068 A 
HETATM   27  C   UNL     1      23.117  43.786  47.017  1.00  0.00     0.037 A 
HETATM   28  C   UNL     1      23.664  44.648  47.975  1.00  0.00     0.012 A 
BRANCH  26  29
HETATM   29  O   UNL     1      21.079  42.910  45.955  1.00  0.00    -0.356 OA
HETATM   30  C   UNL     1      19.696  43.171  45.755  1.00  0.00     0.210 C 
ENDBRANCH  26  29
ENDBRANCH   9  23
TORSDOF 4
ENDMDL
MODEL 4
REMARK VINA RESULT:      -7.3      3.501      6.593
REMARK  4 active torsions:
REMARK  status: ('A' for Active; 'I' for Inactive)
REMARK    1  A    between atoms: C_9  and  C_10 
REMARK    2  A    between atoms: C_13  and  O_14 
REMARK    3  A    between atoms: C_18  and  C_19 
REMARK       I    between atoms: C_19  and  N_20 
REMARK    4  A    between atoms: N_20  and  C_21 
ROOT
HETATM    1  C   UNL     1      22.607  41.481  48.750  1.00  0.00     0.070 C 
HETATM    2  C   UNL     1      24.114  41.519  48.767  1.00  0.00     0.037 C 
HETATM    3  N   UNL     1      24.747  40.411  48.210  1.00  0.00    -0.192 N 
HETATM    4  C   UNL     1      26.060  40.394  47.907  1.00  0.00     0.725 A 
HETATM    5  N   UNL     1      26.855  41.436  48.301  1.00  0.00    -0.084 N 
HETATM    6  N   UNL     1      28.113  41.296  47.834  1.00  0.00    -0.149 NA
HETATM    7  C   UNL     1      28.013  40.118  47.207  1.00  0.00     0.275 A 
HETATM    8  N   UNL     1      26.774  39.531  47.230  1.00  0.00    -0.054 NA
HETATM    9  C   UNL     1      26.379  42.580  49.087  1.00  0.00     0.202 C 
HETATM   10  C   UNL     1      24.858  42.562  49.213  1.00  0.00     0.062 C 
HETATM   11  H   UNL     1      24.158  39.689  47.802  1.00  0.00     0.184 HD
ENDROOT
BRANCH  10  12
HETATM   12  C   UNL     1      24.286  43.826  49.747  1.00  0.00     0.256 C 
HETATM   13  N   UNL     1      24.187  44.826  48.804  1.00  0.00    -0.323 N 
HETATM   14  H   UNL     1      24.471  44.595  47.861  1.00  0.00     0.169 HD
HETATM   15  O   UNL     1      23.929  43.861  50.917  1.00  0.00    -0.267 OA
BRANCH  13  16
HETATM   16  C   UNL     1      23.751  46.151  49.009  1.00  0.00     0.035 A 
HETATM   17  C   UNL     1      24.516  47.136  49.639  1.00  0.00     0.031 A 
HETATM   18  C   UNL     1      24.018  48.437  49.786  1.00  0.00     0.026 A 
HETATM   19  C   UNL     1      22.754  48.757  49.299  1.00  0.00     0.034 A 
HETATM   20 CL   UNL     1      22.149  50.358  49.470  1.00  0.00    -0.084 Cl
HETATM   21  C   UNL     1      21.980  47.787  48.672  1.00  0.00     0.026 A 
HETATM   22  C   UNL     1      22.476  46.486  48.532  1.00  0.00     0.031 A 
ENDBRANCH  13  16
ENDBRANCH  10  12
BRANCH   9  23
HETATM   23  C   UNL     1      27.065  42.610  50.451  1.00  0.00    -0.028 A 
HETATM   24  C   UNL     1      27.114  41.445  51.230  1.00  0.00     0.012 A 
HETATM   25  C   UNL     1      27.730  41.455  52.483  1.00  0.00     0.037 A 
HETATM   26  C   UNL     1      28.310  42.621  52.986  1.00  0.00     0.068 A 
HETATM   27  C   UNL     1      28.288  43.778  52.211  1.00  0.00     0.037 A 
HETATM   28  C   UNL     1      27.676  43.774  50.952  1.00  0.00     0.012 A 
BRANCH  26  29
HETATM   29  O   UNL     1      28.863  42.496  54.230  1.00  0.00    -0.356 OA
HETATM   30  C   UNL     1      29.520  43.641  54.757  1.00  0.00     0.210 C 
ENDBRANCH  26  29
ENDBRANCH   9  23
TORSDOF 4
ENDMDL
MODEL 5
REMARK VINA RESULT:      -7.3      7.299     10.578
REMARK  4 active torsions:
REMARK  status: ('A' for Active; 'I' for Inactive)
REMARK    1  A    between atoms: C_9  and  C_10 
REMARK    2  A    between atoms: C_13  and  O_14 
REMARK    3  A    between atoms: C_18  and  C_19 
REMARK       I    between atoms: C_19  and  N_20 
REMARK    4  A    between atoms: N_20  and  C_21 
ROOT
HETATM    1  C   UNL     1      23.508  45.424  49.816  1.00  0.00     0.070 C 
HETATM    2  C   UNL     1      23.510  46.824  49.256  1.00  0.00     0.037 C 
HETATM    3  N   UNL     1      24.656  47.572  49.516  1.00  0.00    -0.192 N 
HETATM    4  C   UNL     1      24.937  48.726  48.880  1.00  0.00     0.725 A 
HETATM    5  N   UNL     1      23.996  49.288  48.060  1.00  0.00    -0.084 N 
HETATM    6  N   UNL     1      24.481  50.385  47.439  1.00  0.00    -0.149 NA
HETATM    7  C   UNL     1      25.705  50.449  47.974  1.00  0.00     0.275 A 
HETATM    8  N   UNL     1      26.023  49.454  48.863  1.00  0.00    -0.054 NA
HETATM    9  C   UNL     1      22.654  48.734  47.849  1.00  0.00     0.202 C 
HETATM   10  C   UNL     1      22.528  47.351  48.482  1.00  0.00     0.062 C 
HETATM   11  H   UNL     1      25.411  47.114  50.020  1.00  0.00     0.184 HD
ENDROOT
BRANCH  10  12
HETATM   12  C   UNL     1      21.304  46.614  48.073  1.00  0.00     0.256 C 
HETATM   13  N   UNL     1      21.412  46.013  46.837  1.00  0.00    -0.323 N 
HETATM   14  H   UNL     1      22.302  46.101  46.362  1.00  0.00     0.169 HD
HETATM   15  O   UNL     1      20.358  46.568  48.847  1.00  0.00    -0.267 OA
BRANCH  13  16
HETATM   16  C   UNL     1      20.411  45.302  46.144  1.00  0.00     0.035 A 
HETATM   17  C   UNL     1      20.312  43.908  46.127  1.00  0.00     0.031 A 
HETATM   18  C   UNL     1      19.273  43.278  45.432  1.00  0.00     0.026 A 
HETATM   19  C   UNL     1      18.327  44.040  44.753  1.00  0.00     0.034 A 
HETATM   20 CL   UNL     1      17.046  43.265  43.908  1.00  0.00    -0.084 Cl
HETATM   21  C   UNL     1      18.413  45.428  44.759  1.00  0.00     0.026 A 
HETATM   22  C   UNL     1      19.456  46.057  45.449  1.00  0.00     0.031 A 
ENDBRANCH  13  16
ENDBRANCH  10  12
BRANCH   9  23
HETATM   23  C   UNL     1      21.592  49.700  48.369  1.00  0.00    -0.028 A 
HETATM   24  C   UNL     1      21.613  50.097  49.713  1.00  0.00     0.012 A 
HETATM   25  C   UNL     1      20.647  50.974  50.210  1.00  0.00     0.037 A 
HETATM   26  C   UNL     1      19.641  51.474  49.380  1.00  0.00     0.068 A 
HETATM   27  C   UNL     1      19.624  51.104  48.037  1.00  0.00     0.037 A 
HETATM   28  C   UNL     1      20.593  50.229  47.533  1.00  0.00     0.012 A 
BRANCH  26  29
HETATM   29  O   UNL     1      18.750  52.308  49.996  1.00  0.00    -0.356 OA
HETATM   30  C   UNL     1      17.375  52.111  49.697  1.00  0.00     0.210 C 
ENDBRANCH  26  29
ENDBRANCH   9  23
TORSDOF 4
ENDMDL
MODEL 6
REMARK VINA RESULT:      -7.2      2.474      4.738
REMARK  4 active torsions:
REMARK  status: ('A' for Active; 'I' for Inactive)
REMARK    1  A    between atoms: C_9  and  C_10 
REMARK    2  A    between atoms: C_13  and  O_14 
REMARK    3  A    between atoms: C_18  and  C_19 
REMARK       I    between atoms: C_19  and  N_20 
REMARK    4  A    between atoms: N_20  and  C_21 
ROOT
HETATM    1  C   UNL     1      24.721  45.222  53.071  1.00  0.00     0.070 C 
HETATM    2  C   UNL     1      24.793  44.587  51.706  1.00  0.00     0.037 C 
HETATM    3  N   UNL     1      23.592  44.541  51.003  1.00  0.00    -0.192 N 
HETATM    4  C   UNL     1      23.525  44.254  49.688  1.00  0.00     0.725 A 
HETATM    5  N   UNL     1      24.649  43.830  49.033  1.00  0.00    -0.084 N 
HETATM    6  N   UNL     1      24.419  43.680  47.711  1.00  0.00    -0.149 NA
HETATM    7  C   UNL     1      23.118  43.984  47.653  1.00  0.00     0.275 A 
HETATM    8  N   UNL     1      22.531  44.339  48.840  1.00  0.00    -0.054 NA
HETATM    9  C   UNL     1      25.948  43.619  49.684  1.00  0.00     0.202 C 
HETATM   10  C   UNL     1      25.931  44.140  51.118  1.00  0.00     0.062 C 
HETATM   11  H   UNL     1      22.777  44.969  51.436  1.00  0.00     0.184 HD
ENDROOT
BRANCH  10  12
HETATM   12  C   UNL     1      27.278  44.218  51.743  1.00  0.00     0.256 C 
HETATM   13  N   UNL     1      27.289  43.853  53.072  1.00  0.00    -0.323 N 
HETATM   14  H   UNL     1      26.411  43.542  53.468  1.00  0.00     0.169 HD
HETATM   15  O   UNL     1      28.230  44.547  51.048  1.00  0.00    -0.267 OA
BRANCH  13  16
HETATM   16  C   UNL     1      28.388  43.884  53.955  1.00  0.00     0.035 A 
HETATM   17  C   UNL     1      28.678  44.957  54.803  1.00  0.00     0.031 A 
HETATM   18  C   UNL     1      29.778  44.901  55.667  1.00  0.00     0.026 A 
HETATM   19  C   UNL     1      30.589  43.771  55.689  1.00  0.00     0.034 A 
HETATM   20 CL   UNL     1      31.934  43.699  56.759  1.00  0.00    -0.084 Cl
HETATM   21  C   UNL     1      30.315  42.696  54.850  1.00  0.00     0.026 A 
HETATM   22  C   UNL     1      29.219  42.756  53.982  1.00  0.00     0.031 A 
ENDBRANCH  13  16
ENDBRANCH  10  12
BRANCH   9  23
HETATM   23  C   UNL     1      26.343  42.146  49.614  1.00  0.00    -0.028 A 
HETATM   24  C   UNL     1      25.764  41.229  50.502  1.00  0.00     0.012 A 
HETATM   25  C   UNL     1      26.118  39.878  50.460  1.00  0.00     0.037 A 
HETATM   26  C   UNL     1      27.055  39.414  49.534  1.00  0.00     0.068 A 
HETATM   27  C   UNL     1      27.620  40.313  48.631  1.00  0.00     0.037 A 
HETATM   28  C   UNL     1      27.265  41.666  48.666  1.00  0.00     0.012 A 
BRANCH  26  29
HETATM   29  O   UNL     1      27.323  38.076  49.611  1.00  0.00    -0.356 OA
HETATM   30  C   UNL     1      28.686  37.688  49.507  1.00  0.00     0.210 C 
ENDBRANCH  26  29
ENDBRANCH   9  23
TORSDOF 4
ENDMDL
MODEL 7
REMARK VINA RESULT:      -7.0      3.833      6.655
REMARK  4 active torsions:
REMARK  status: ('A' for Active; 'I' for Inactive)
REMARK    1  A    between atoms: C_9  and  C_10 
REMARK    2  A    between atoms: C_13  and  O_14 
REMARK    3  A    between atoms: C_18  and  C_19 
REMARK       I    between atoms: C_19  and  N_20 
REMARK    4  A    between atoms: N_20  and  C_21 
ROOT
HETATM    1  C   UNL     1      24.581  42.141  49.417  1.00  0.00     0.070 C 
HETATM    2  C   UNL     1      25.653  42.557  50.392  1.00  0.00     0.037 C 
HETATM    3  N   UNL     1      26.223  41.524  51.132  1.00  0.00    -0.192 N 
HETATM    4  C   UNL     1      27.357  41.674  51.845  1.00  0.00     0.725 A 
HETATM    5  N   UNL     1      27.900  42.922  51.992  1.00  0.00    -0.084 N 
HETATM    6  N   UNL     1      29.076  42.869  52.652  1.00  0.00    -0.149 NA
HETATM    7  C   UNL     1      29.152  41.560  52.915  1.00  0.00     0.275 A 
HETATM    8  N   UNL     1      28.119  40.793  52.441  1.00  0.00    -0.054 NA
HETATM    9  C   UNL     1      27.299  44.147  51.452  1.00  0.00     0.202 C 
HETATM   10  C   UNL     1      26.126  43.821  50.531  1.00  0.00     0.062 C 
HETATM   11  H   UNL     1      25.909  40.577  50.936  1.00  0.00     0.184 HD
ENDROOT
BRANCH  10  12
HETATM   12  C   UNL     1      25.651  44.981  49.733  1.00  0.00     0.256 C 
HETATM   13  N   UNL     1      24.353  45.349  50.017  1.00  0.00    -0.323 N 
HETATM   14  H   UNL     1      23.880  44.830  50.746  1.00  0.00     0.169 HD
HETATM   15  O   UNL     1      26.427  45.516  48.953  1.00  0.00    -0.267 OA
BRANCH  13  16
HETATM   16  C   UNL     1      23.596  46.359  49.388  1.00  0.00     0.035 A 
HETATM   17  C   UNL     1      22.612  46.114  48.427  1.00  0.00     0.031 A 
HETATM   18  C   UNL     1      21.888  47.172  47.865  1.00  0.00     0.026 A 
HETATM   19  C   UNL     1      22.145  48.480  48.265  1.00  0.00     0.034 A 
HETATM   20 CL   UNL     1      21.248  49.779  47.582  1.00  0.00    -0.084 Cl
HETATM   21  C   UNL     1      23.122  48.741  49.219  1.00  0.00     0.026 A 
HETATM   22  C   UNL     1      23.849  47.682  49.776  1.00  0.00     0.031 A 
ENDBRANCH  13  16
ENDBRANCH  10  12
BRANCH   9  23
HETATM   23  C   UNL     1      26.892  45.083  52.587  1.00  0.00    -0.028 A 
HETATM   24  C   UNL     1      26.767  46.459  52.343  1.00  0.00     0.012 A 
HETATM   25  C   UNL     1      26.403  47.332  53.370  1.00  0.00     0.037 A 
HETATM   26  C   UNL     1      26.155  46.856  54.659  1.00  0.00     0.068 A 
HETATM   27  C   UNL     1      26.252  45.489  54.907  1.00  0.00     0.037 A 
HETATM   28  C   UNL     1      26.613  44.608  53.881  1.00  0.00     0.012 A 
BRANCH  26  29
HETATM   29  O   UNL     1      25.824  47.818  55.572  1.00  0.00    -0.356 OA
HETATM   30  C   UNL     1      26.700  48.933  55.675  1.00  0.00     0.210 C 
ENDBRANCH  26  29
ENDBRANCH   9  23
TORSDOF 4
ENDMDL
MODEL 8
REMARK VINA RESULT:      -6.9      9.221     11.969
REMARK  4 active torsions:
REMARK  status: ('A' for Active; 'I' for Inactive)
REMARK    1  A    between atoms: C_9  and  C_10 
REMARK    2  A    between atoms: C_13  and  O_14 
REMARK    3  A    between atoms: C_18  and  C_19 
REMARK       I    between atoms: C_19  and  N_20 
REMARK    4  A    between atoms: N_20  and  C_21 
ROOT
HETATM    1  C   UNL     1      21.860  50.721  49.822  1.00  0.00     0.070 C 
HETATM    2  C   UNL     1      21.400  49.376  49.319  1.00  0.00     0.037 C 
HETATM    3  N   UNL     1      22.412  48.511  48.910  1.00  0.00    -0.192 N 
HETATM    4  C   UNL     1      22.207  47.198  48.686  1.00  0.00     0.725 A 
HETATM    5  N   UNL     1      20.930  46.706  48.697  1.00  0.00    -0.084 N 
HETATM    6  N   UNL     1      20.921  45.364  48.546  1.00  0.00    -0.149 NA
HETATM    7  C   UNL     1      22.229  45.125  48.401  1.00  0.00     0.275 A 
HETATM    8  N   UNL     1      23.051  46.220  48.478  1.00  0.00    -0.054 NA
HETATM    9  C   UNL     1      19.733  47.531  48.898  1.00  0.00     0.202 C 
HETATM   10  C   UNL     1      20.111  48.951  49.308  1.00  0.00     0.062 C 
HETATM   11  H   UNL     1      23.373  48.827  49.019  1.00  0.00     0.184 HD
ENDROOT
BRANCH  10  12
HETATM   12  C   UNL     1      18.964  49.759  49.800  1.00  0.00     0.256 C 
HETATM   13  N   UNL     1      18.405  50.565  48.832  1.00  0.00    -0.323 N 
HETATM   14  H   UNL     1      18.797  50.501  47.901  1.00  0.00     0.169 HD
HETATM   15  O   UNL     1      18.601  49.620  50.960  1.00  0.00    -0.267 OA
BRANCH  13  16
HETATM   16  C   UNL     1      17.355  51.492  48.996  1.00  0.00     0.035 A 
HETATM   17  C   UNL     1      17.398  52.571  49.883  1.00  0.00     0.031 A 
HETATM   18  C   UNL     1      16.320  53.460  49.972  1.00  0.00     0.026 A 
HETATM   19  C   UNL     1      15.197  53.275  49.172  1.00  0.00     0.034 A 
HETATM   20 CL   UNL     1      13.878  54.374  49.274  1.00  0.00    -0.084 Cl
HETATM   21  C   UNL     1      15.139  52.205  48.286  1.00  0.00     0.026 A 
HETATM   22  C   UNL     1      16.214  51.313  48.202  1.00  0.00     0.031 A 
ENDBRANCH  13  16
ENDBRANCH  10  12
BRANCH   9  23
HETATM   23  C   UNL     1      18.858  47.511  47.647  1.00  0.00    -0.028 A 
HETATM   24  C   UNL     1      17.538  47.045  47.730  1.00  0.00     0.012 A 
HETATM   25  C   UNL     1      16.724  47.012  46.595  1.00  0.00     0.037 A 
HETATM   26  C   UNL     1      17.205  47.443  45.357  1.00  0.00     0.068 A 
HETATM   27  C   UNL     1      18.508  47.930  45.268  1.00  0.00     0.037 A 
HETATM   28  C   UNL     1      19.326  47.970  46.403  1.00  0.00     0.012 A 
BRANCH  26  29
HETATM   29  O   UNL     1      16.312  47.342  44.328  1.00  0.00    -0.356 OA
HETATM   30  C   UNL     1      16.520  48.198  43.212  1.00  0.00     0.210 C 
ENDBRANCH  26  29
ENDBRANCH   9  23
TORSDOF 4
ENDMDL
MODEL 9
REMARK VINA RESULT:      -6.9      8.770     11.615
REMARK  4 active torsions:
REMARK  status: ('A' for Active; 'I' for Inactive)
REMARK    1  A    between atoms: C_9  and  C_10 
REMARK    2  A    between atoms: C_13  and  O_14 
REMARK    3  A    between atoms: C_18  and  C_19 
REMARK       I    between atoms: C_19  and  N_20 
REMARK    4  A    between atoms: N_20  and  C_21 
ROOT
HETATM    1  C   UNL     1      18.605  52.386  49.416  1.00  0.00     0.070 C 
HETATM    2  C   UNL     1      18.430  51.747  48.062  1.00  0.00     0.037 C 
HETATM    3  N   UNL     1      17.505  52.363  47.224  1.00  0.00    -0.192 N 
HETATM    4  C   UNL     1      17.415  52.091  45.907  1.00  0.00     0.725 A 
HETATM    5  N   UNL     1      18.141  51.056  45.383  1.00  0.00    -0.084 N 
HETATM    6  N   UNL     1      17.999  50.989  44.042  1.00  0.00    -0.149 NA
HETATM    7  C   UNL     1      17.133  51.987  43.836  1.00  0.00     0.275 A 
HETATM    8  N   UNL     1      16.748  52.686  44.951  1.00  0.00    -0.054 NA
HETATM    9  C   UNL     1      18.999  50.170  46.178  1.00  0.00     0.202 C 
HETATM   10  C   UNL     1      19.146  50.688  47.606  1.00  0.00     0.062 C 
HETATM   11  H   UNL     1      17.054  53.210  47.563  1.00  0.00     0.184 HD
ENDROOT
BRANCH  10  12
HETATM   12  C   UNL     1      20.215  50.008  48.383  1.00  0.00     0.256 C 
HETATM   13  N   UNL     1      21.482  50.235  47.890  1.00  0.00    -0.323 N 
HETATM   14  H   UNL     1      21.558  50.854  47.093  1.00  0.00     0.169 HD
HETATM   15  O   UNL     1      19.902  49.364  49.375  1.00  0.00    -0.267 OA
BRANCH  13  16
HETATM   16  C   UNL     1      22.691  49.683  48.360  1.00  0.00     0.035 A 
HETATM   17  C   UNL     1      22.773  48.504  49.107  1.00  0.00     0.031 A 
HETATM   18  C   UNL     1      24.016  48.010  49.519  1.00  0.00     0.026 A 
HETATM   19  C   UNL     1      25.182  48.690  49.181  1.00  0.00     0.034 A 
HETATM   20 CL   UNL     1      26.710  48.075  49.679  1.00  0.00    -0.084 Cl
HETATM   21  C   UNL     1      25.117  49.865  48.441  1.00  0.00     0.026 A 
HETATM   22  C   UNL     1      23.873  50.363  48.035  1.00  0.00     0.031 A 
ENDBRANCH  13  16
ENDBRANCH  10  12
BRANCH   9  23
HETATM   23  C   UNL     1      18.466  48.740  46.140  1.00  0.00    -0.028 A 
HETATM   24  C   UNL     1      19.297  47.700  45.701  1.00  0.00     0.012 A 
HETATM   25  C   UNL     1      18.826  46.386  45.652  1.00  0.00     0.037 A 
HETATM   26  C   UNL     1      17.520  46.080  46.040  1.00  0.00     0.068 A 
HETATM   27  C   UNL     1      16.692  47.103  46.501  1.00  0.00     0.037 A 
HETATM   28  C   UNL     1      17.161  48.420  46.556  1.00  0.00     0.012 A 
BRANCH  26  29
HETATM   29  O   UNL     1      17.181  44.761  45.928  1.00  0.00    -0.356 OA
HETATM   30  C   UNL     1      17.850  44.010  44.923  1.00  0.00     0.210 C 
ENDBRANCH  26  29
ENDBRANCH   9  23
TORSDOF 4
ENDMDL
MODEL 10
REMARK VINA RESULT:      -6.8      8.451     11.722
REMARK  4 active torsions:
REMARK  status: ('A' for Active; 'I' for Inactive)
REMARK    1  A    between atoms: C_9  and  C_10 
REMARK    2  A    between atoms: C_13  and  O_14 
REMARK    3  A    between atoms: C_18  and  C_19 
REMARK       I    between atoms: C_19  and  N_20 
REMARK    4  A    between atoms: N_20  and  C_21 
ROOT
HETATM    1  C   UNL     1      21.643  45.150  48.771  1.00  0.00     0.070 C 
HETATM    2  C   UNL     1      21.933  46.619  48.598  1.00  0.00     0.037 C 
HETATM    3  N   UNL     1      23.126  47.064  49.162  1.00  0.00    -0.192 N 
HETATM    4  C   UNL     1      23.663  48.268  48.881  1.00  0.00     0.725 A 
HETATM    5  N   UNL     1      22.946  49.169  48.142  1.00  0.00    -0.084 N 
HETATM    6  N   UNL     1      23.672  50.277  47.882  1.00  0.00    -0.149 NA
HETATM    7  C   UNL     1      24.801  49.991  48.540  1.00  0.00     0.275 A 
HETATM    8  N   UNL     1      24.837  48.772  49.167  1.00  0.00    -0.054 NA
HETATM    9  C   UNL     1      21.582  48.932  47.656  1.00  0.00     0.202 C 
HETATM   10  C   UNL     1      21.162  47.484  47.891  1.00  0.00     0.062 C 
HETATM   11  H   UNL     1      23.724  46.371  49.604  1.00  0.00     0.184 HD
ENDROOT
BRANCH  10  12
HETATM   12  C   UNL     1      19.916  47.097  47.179  1.00  0.00     0.256 C 
HETATM   13  N   UNL     1      20.107  46.839  45.838  1.00  0.00    -0.323 N 
HETATM   14  H   UNL     1      21.055  46.901  45.491  1.00  0.00     0.169 HD
HETATM   15  O   UNL     1      18.877  47.006  47.819  1.00  0.00    -0.267 OA
BRANCH  13  16
HETATM   16  C   UNL     1      19.121  46.517  44.884  1.00  0.00     0.035 A 
HETATM   17  C   UNL     1      18.533  47.448  44.023  1.00  0.00     0.031 A 
HETATM   18  C   UNL     1      17.574  47.043  43.087  1.00  0.00     0.026 A 
HETATM   19  C   UNL     1      17.202  45.705  43.005  1.00  0.00     0.034 A 
HETATM   20 CL   UNL     1      16.032  45.207  41.847  1.00  0.00    -0.084 Cl
HETATM   21  C   UNL     1      17.776  44.767  43.856  1.00  0.00     0.026 A 
HETATM   22  C   UNL     1      18.730  45.173  44.796  1.00  0.00     0.031 A 
ENDBRANCH  13  16
ENDBRANCH  10  12
BRANCH   9  23
HETATM   23  C   UNL     1      20.610  49.920  48.297  1.00  0.00    -0.028 A 
HETATM   24  C   UNL     1      19.958  50.870  47.499  1.00  0.00     0.012 A 
HETATM   25  C   UNL     1      19.072  51.787  48.068  1.00  0.00     0.037 A 
HETATM   26  C   UNL     1      18.815  51.777  49.440  1.00  0.00     0.068 A 
HETATM   27  C   UNL     1      19.439  50.821  50.240  1.00  0.00     0.037 A 
HETATM   28  C   UNL     1      20.325  49.897  49.674  1.00  0.00     0.012 A 
BRANCH  26  29
HETATM   29  O   UNL     1      17.942  52.737  49.868  1.00  0.00    -0.356 OA
HETATM   30  C   UNL     1      16.562  52.394  49.873  1.00  0.00     0.210 C 
ENDBRANCH  26  29
ENDBRANCH   9  23
TORSDOF 4
ENDMDL
