MODEL 1
REMARK VINA RESULT:      -8.9      0.000      0.000
REMARK  3 active torsions:
REMARK  status: ('A' for Active; 'I' for Inactive)
REMARK    1  A    between atoms: C_5  and  N_6 
REMARK       I    between atoms: N_6  and  C_7 
REMARK    2  A    between atoms: C_7  and  C_8 
REMARK    3  A    between atoms: C_13  and  O_14 
ROOT
HETATM    1  C   UNL     1      31.214  44.608  56.316  1.00  0.00     0.001 A 
HETATM    2  C   UNL     1      30.270  45.584  55.984  1.00  0.00     0.013 A 
HETATM    3  C   UNL     1      29.158  45.202  55.253  1.00  0.00    -0.017 A 
HETATM    4  C   UNL     1      28.989  43.857  54.851  1.00  0.00    -0.020 A 
HETATM    5  C   UNL     1      27.684  43.700  54.088  1.00  0.00     0.153 A 
HETATM    6  C   UNL     1      27.137  45.117  54.105  1.00  0.00    -0.020 A 
HETATM    7  C   UNL     1      28.021  45.974  54.798  1.00  0.00    -0.017 A 
HETATM    8  C   UNL     1      25.947  45.586  53.567  1.00  0.00     0.010 A 
HETATM    9  C   UNL     1      25.644  46.939  53.728  1.00  0.00     0.001 A 
HETATM   10  C   UNL     1      26.519  47.795  54.416  1.00  0.00     0.001 A 
HETATM   11  C   UNL     1      27.716  47.315  54.958  1.00  0.00     0.013 A 
HETATM   12  C   UNL     1      29.916  42.882  55.190  1.00  0.00     0.010 A 
HETATM   13  C   UNL     1      31.038  43.269  55.924  1.00  0.00     0.001 A 
ENDROOT
BRANCH   5  14
HETATM   14  N   UNL     1      27.928  43.269  52.727  1.00  0.00    -0.346 N 
HETATM   15  C   UNL     1      27.810  41.962  52.345  1.00  0.00     0.249 C 
HETATM   16  O   UNL     1      27.562  41.049  53.129  1.00  0.00    -0.271 OA
HETATM   17  H   UNL     1      28.331  43.969  52.105  1.00  0.00     0.163 HD
BRANCH  15  18
HETATM   18  C   UNL     1      28.181  41.643  50.886  1.00  0.00     0.279 C 
HETATM   19  N   UNL     1      27.093  42.129  49.938  1.00  0.00    -0.060 N 
HETATM   20  H   UNL     1      26.239  42.279  50.498  1.00  0.00     0.278 HD
HETATM   21  H   UNL     1      27.333  43.032  49.510  1.00  0.00     0.278 HD
HETATM   22  C   UNL     1      26.829  41.028  48.957  1.00  0.00     0.264 C 
HETATM   23  C   UNL     1      27.112  39.781  49.793  1.00  0.00     0.146 C 
HETATM   24  C   UNL     1      28.379  40.164  50.539  1.00  0.00     0.076 C 
BRANCH  23  25
HETATM   25  O   UNL     1      26.073  39.604  50.757  1.00  0.00    -0.394 OA
HETATM   26  H   UNL     1      25.452  40.359  50.681  1.00  0.00     0.210 HD
ENDBRANCH  23  25
ENDBRANCH  15  18
ENDBRANCH   5  14
TORSDOF 3
ENDMDL
MODEL 2
REMARK VINA RESULT:      -8.5      2.574      4.664
REMARK  3 active torsions:
REMARK  status: ('A' for Active; 'I' for Inactive)
REMARK    1  A    between atoms: C_5  and  N_6 
REMARK       I    between atoms: N_6  and  C_7 
REMARK    2  A    between atoms: C_7  and  C_8 
REMARK    3  A    between atoms: C_13  and  O_14 
ROOT
HETATM    1  C   UNL     1      29.163  41.052  52.345  1.00  0.00     0.001 A 
HETATM    2  C   UNL     1      29.783  41.903  53.265  1.00  0.00     0.013 A 
HETATM    3  C   UNL     1      29.040  42.936  53.811  1.00  0.00    -0.017 A 
HETATM    4  C   UNL     1      27.689  43.124  53.439  1.00  0.00    -0.020 A 
HETATM    5  C   UNL     1      27.098  44.304  54.194  1.00  0.00     0.153 A 
HETATM    6  C   UNL     1      28.277  44.761  55.036  1.00  0.00    -0.020 A 
HETATM    7  C   UNL     1      29.400  43.938  54.792  1.00  0.00    -0.017 A 
HETATM    8  C   UNL     1      28.329  45.804  55.948  1.00  0.00     0.010 A 
HETATM    9  C   UNL     1      29.529  46.024  56.626  1.00  0.00     0.001 A 
HETATM   10  C   UNL     1      30.648  45.208  56.388  1.00  0.00     0.001 A 
HETATM   11  C   UNL     1      30.589  44.157  55.467  1.00  0.00     0.013 A 
HETATM   12  C   UNL     1      27.065  42.274  52.537  1.00  0.00     0.010 A 
HETATM   13  C   UNL     1      27.817  41.235  51.986  1.00  0.00     0.001 A 
ENDROOT
BRANCH   5  14
HETATM   14  N   UNL     1      26.692  45.352  53.282  1.00  0.00    -0.346 N 
HETATM   15  C   UNL     1      25.395  45.503  52.876  1.00  0.00     0.249 C 
HETATM   16  O   UNL     1      24.496  44.727  53.191  1.00  0.00    -0.271 OA
HETATM   17  H   UNL     1      27.447  45.882  52.848  1.00  0.00     0.163 HD
BRANCH  15  18
HETATM   18  C   UNL     1      25.129  46.610  51.841  1.00  0.00     0.279 C 
HETATM   19  N   UNL     1      24.297  46.073  50.683  1.00  0.00    -0.060 N 
HETATM   20  H   UNL     1      24.363  45.042  50.707  1.00  0.00     0.278 HD
HETATM   21  H   UNL     1      23.303  46.310  50.783  1.00  0.00     0.278 HD
HETATM   22  C   UNL     1      24.928  46.559  49.416  1.00  0.00     0.264 C 
HETATM   23  C   UNL     1      26.406  46.624  49.797  1.00  0.00     0.146 C 
HETATM   24  C   UNL     1      26.360  47.242  51.186  1.00  0.00     0.076 C 
BRANCH  23  25
HETATM   25  O   UNL     1      26.927  45.300  49.925  1.00  0.00    -0.394 OA
HETATM   26  H   UNL     1      27.880  45.366  50.149  1.00  0.00     0.210 HD
ENDBRANCH  23  25
ENDBRANCH  15  18
ENDBRANCH   5  14
TORSDOF 3
ENDMDL
MODEL 3
REMARK VINA RESULT:      -8.5      1.657      3.937
REMARK  3 active torsions:
REMARK  status: ('A' for Active; 'I' for Inactive)
REMARK    1  A    between atoms: C_5  and  N_6 
REMARK       I    between atoms: N_6  and  C_7 
REMARK    2  A    between atoms: C_7  and  C_8 
REMARK    3  A    between atoms: C_13  and  O_14 
ROOT
HETATM    1  C   UNL     1      26.524  47.853  55.523  1.00  0.00     0.001 A 
HETATM    2  C   UNL     1      27.467  47.335  56.415  1.00  0.00     0.013 A 
HETATM    3  C   UNL     1      28.305  46.326  55.974  1.00  0.00    -0.017 A 
HETATM    4  C   UNL     1      28.203  45.832  54.654  1.00  0.00    -0.020 A 
HETATM    5  C   UNL     1      29.245  44.751  54.416  1.00  0.00     0.153 A 
HETATM    6  C   UNL     1      29.949  44.693  55.762  1.00  0.00    -0.020 A 
HETATM    7  C   UNL     1      29.378  45.630  56.653  1.00  0.00    -0.017 A 
HETATM    8  C   UNL     1      31.014  43.890  56.141  1.00  0.00     0.010 A 
HETATM    9  C   UNL     1      31.512  44.029  57.438  1.00  0.00     0.001 A 
HETATM   10  C   UNL     1      30.948  44.960  58.327  1.00  0.00     0.001 A 
HETATM   11  C   UNL     1      29.875  45.768  57.938  1.00  0.00     0.013 A 
HETATM   12  C   UNL     1      27.277  46.352  53.760  1.00  0.00     0.010 A 
HETATM   13  C   UNL     1      26.431  47.367  54.207  1.00  0.00     0.001 A 
ENDROOT
BRANCH   5  14
HETATM   14  N   UNL     1      28.618  43.481  54.120  1.00  0.00    -0.346 N 
HETATM   15  C   UNL     1      29.048  42.677  53.101  1.00  0.00     0.249 C 
HETATM   16  O   UNL     1      29.941  42.997  52.320  1.00  0.00    -0.271 OA
HETATM   17  H   UNL     1      27.751  43.285  54.619  1.00  0.00     0.163 HD
BRANCH  15  18
HETATM   18  C   UNL     1      28.232  41.397  52.853  1.00  0.00     0.279 C 
HETATM   19  N   UNL     1      29.059  40.373  52.085  1.00  0.00    -0.060 N 
HETATM   20  H   UNL     1      29.849  40.877  51.651  1.00  0.00     0.278 HD
HETATM   21  H   UNL     1      29.464  39.663  52.708  1.00  0.00     0.278 HD
HETATM   22  C   UNL     1      28.192  39.823  50.996  1.00  0.00     0.264 C 
HETATM   23  C   UNL     1      27.297  41.016  50.664  1.00  0.00     0.146 C 
HETATM   24  C   UNL     1      26.943  41.554  52.041  1.00  0.00     0.076 C 
BRANCH  23  25
HETATM   25  O   UNL     1      28.062  42.016  49.988  1.00  0.00    -0.394 OA
HETATM   26  H   UNL     1      28.417  41.624  49.162  1.00  0.00     0.210 HD
ENDBRANCH  23  25
ENDBRANCH  15  18
ENDBRANCH   5  14
TORSDOF 3
ENDMDL
MODEL 4
REMARK VINA RESULT:      -8.5      1.736      3.981
REMARK  3 active torsions:
REMARK  status: ('A' for Active; 'I' for Inactive)
REMARK    1  A    between atoms: C_5  and  N_6 
REMARK       I    between atoms: N_6  and  C_7 
REMARK    2  A    between atoms: C_7  and  C_8 
REMARK    3  A    between atoms: C_13  and  O_14 
ROOT
HETATM    1  C   UNL     1      25.687  47.155  53.575  1.00  0.00     0.001 A 
HETATM    2  C   UNL     1      26.717  46.561  54.311  1.00  0.00     0.013 A 
HETATM    3  C   UNL     1      27.427  45.525  53.731  1.00  0.00    -0.017 A 
HETATM    4  C   UNL     1      27.111  45.077  52.428  1.00  0.00    -0.020 A 
HETATM    5  C   UNL     1      28.047  43.952  52.018  1.00  0.00     0.153 A 
HETATM    6  C   UNL     1      28.931  43.816  53.247  1.00  0.00    -0.020 A 
HETATM    7  C   UNL     1      28.545  44.753  54.232  1.00  0.00    -0.017 A 
HETATM    8  C   UNL     1      29.993  42.948  53.450  1.00  0.00     0.010 A 
HETATM    9  C   UNL     1      30.677  43.021  54.665  1.00  0.00     0.001 A 
HETATM   10  C   UNL     1      30.298  43.952  55.647  1.00  0.00     0.001 A 
HETATM   11  C   UNL     1      29.227  44.826  55.435  1.00  0.00     0.013 A 
HETATM   12  C   UNL     1      26.098  45.672  51.688  1.00  0.00     0.010 A 
HETATM   13  C   UNL     1      25.381  46.715  52.276  1.00  0.00     0.001 A 
ENDROOT
BRANCH   5  14
HETATM   14  N   UNL     1      27.314  42.725  51.786  1.00  0.00    -0.346 N 
HETATM   15  C   UNL     1      26.997  42.294  50.527  1.00  0.00     0.249 C 
HETATM   16  O   UNL     1      27.241  42.940  49.511  1.00  0.00    -0.271 OA
HETATM   17  H   UNL     1      26.924  42.276  52.613  1.00  0.00     0.163 HD
BRANCH  15  18
HETATM   18  C   UNL     1      26.144  41.017  50.440  1.00  0.00     0.279 C 
HETATM   19  N   UNL     1      27.012  39.779  50.626  1.00  0.00    -0.060 N 
HETATM   20  H   UNL     1      27.992  40.061  50.463  1.00  0.00     0.278 HD
HETATM   21  H   UNL     1      26.961  39.415  51.585  1.00  0.00     0.278 HD
HETATM   22  C   UNL     1      26.620  38.795  49.567  1.00  0.00     0.264 C 
HETATM   23  C   UNL     1      26.206  39.710  48.416  1.00  0.00     0.146 C 
HETATM   24  C   UNL     1      25.395  40.784  49.125  1.00  0.00     0.076 C 
BRANCH  23  25
HETATM   25  O   UNL     1      27.365  40.334  47.859  1.00  0.00    -0.394 OA
HETATM   26  H   UNL     1      27.608  39.853  47.040  1.00  0.00     0.210 HD
ENDBRANCH  23  25
ENDBRANCH  15  18
ENDBRANCH   5  14
TORSDOF 3
ENDMDL
MODEL 5
REMARK VINA RESULT:      -8.4      3.245      4.009
REMARK  3 active torsions:
REMARK  status: ('A' for Active; 'I' for Inactive)
REMARK    1  A    between atoms: C_5  and  N_6 
REMARK       I    between atoms: N_6  and  C_7 
REMARK    2  A    between atoms: C_7  and  C_8 
REMARK    3  A    between atoms: C_13  and  O_14 
ROOT
HETATM    1  C   UNL     1      30.068  42.305  53.371  1.00  0.00     0.001 A 
HETATM    2  C   UNL     1      29.808  43.544  53.964  1.00  0.00     0.013 A 
HETATM    3  C   UNL     1      28.563  44.118  53.771  1.00  0.00    -0.017 A 
HETATM    4  C   UNL     1      27.583  43.464  52.990  1.00  0.00    -0.020 A 
HETATM    5  C   UNL     1      26.306  44.287  52.955  1.00  0.00     0.153 A 
HETATM    6  C   UNL     1      26.681  45.486  53.810  1.00  0.00    -0.020 A 
HETATM    7  C   UNL     1      28.009  45.356  54.277  1.00  0.00    -0.017 A 
HETATM    8  C   UNL     1      25.897  46.577  54.152  1.00  0.00     0.010 A 
HETATM    9  C   UNL     1      26.458  47.555  54.976  1.00  0.00     0.001 A 
HETATM   10  C   UNL     1      27.777  47.430  55.444  1.00  0.00     0.001 A 
HETATM   11  C   UNL     1      28.562  46.326  55.096  1.00  0.00     0.013 A 
HETATM   12  C   UNL     1      27.831  42.228  52.410  1.00  0.00     0.010 A 
HETATM   13  C   UNL     1      29.088  41.652  52.603  1.00  0.00     0.001 A 
ENDROOT
BRANCH   5  14
HETATM   14  N   UNL     1      25.996  44.708  51.605  1.00  0.00    -0.346 N 
HETATM   15  C   UNL     1      24.715  44.735  51.126  1.00  0.00     0.249 C 
HETATM   16  O   UNL     1      23.746  44.341  51.770  1.00  0.00    -0.271 OA
HETATM   17  H   UNL     1      26.795  44.845  50.987  1.00  0.00     0.163 HD
BRANCH  15  18
HETATM   18  C   UNL     1      24.549  45.125  49.647  1.00  0.00     0.279 C 
HETATM   19  N   UNL     1      23.644  46.343  49.512  1.00  0.00    -0.060 N 
HETATM   20  H   UNL     1      23.117  46.436  50.395  1.00  0.00     0.278 HD
HETATM   21  H   UNL     1      24.183  47.209  49.393  1.00  0.00     0.278 HD
HETATM   22  C   UNL     1      22.673  46.058  48.409  1.00  0.00     0.264 C 
HETATM   23  C   UNL     1      22.505  44.544  48.512  1.00  0.00     0.146 C 
HETATM   24  C   UNL     1      23.933  44.068  48.727  1.00  0.00     0.076 C 
BRANCH  23  25
HETATM   25  O   UNL     1      21.756  44.223  49.686  1.00  0.00    -0.394 OA
HETATM   26  H   UNL     1      21.485  45.062  50.116  1.00  0.00     0.210 HD
ENDBRANCH  23  25
ENDBRANCH  15  18
ENDBRANCH   5  14
TORSDOF 3
ENDMDL
MODEL 6
REMARK VINA RESULT:      -8.4      2.559      4.328
REMARK  3 active torsions:
REMARK  status: ('A' for Active; 'I' for Inactive)
REMARK    1  A    between atoms: C_5  and  N_6 
REMARK       I    between atoms: N_6  and  C_7 
REMARK    2  A    between atoms: C_7  and  C_8 
REMARK    3  A    between atoms: C_13  and  O_14 
ROOT
HETATM    1  C   UNL     1      26.791  47.680  55.559  1.00  0.00     0.001 A 
HETATM    2  C   UNL     1      27.719  46.636  55.614  1.00  0.00     0.013 A 
HETATM    3  C   UNL     1      27.820  45.787  54.526  1.00  0.00    -0.017 A 
HETATM    4  C   UNL     1      26.999  45.973  53.390  1.00  0.00    -0.020 A 
HETATM    5  C   UNL     1      27.322  44.928  52.334  1.00  0.00     0.153 A 
HETATM    6  C   UNL     1      28.423  44.129  53.009  1.00  0.00    -0.020 A 
HETATM    7  C   UNL     1      28.696  44.658  54.291  1.00  0.00    -0.017 A 
HETATM    8  C   UNL     1      29.127  43.043  52.510  1.00  0.00     0.010 A 
HETATM    9  C   UNL     1      30.120  42.480  53.313  1.00  0.00     0.001 A 
HETATM   10  C   UNL     1      30.395  43.003  54.588  1.00  0.00     0.001 A 
HETATM   11  C   UNL     1      29.682  44.099  55.085  1.00  0.00     0.013 A 
HETATM   12  C   UNL     1      26.085  47.015  53.325  1.00  0.00     0.010 A 
HETATM   13  C   UNL     1      25.983  47.869  54.425  1.00  0.00     0.001 A 
ENDROOT
BRANCH   5  14
HETATM   14  N   UNL     1      26.175  44.085  52.071  1.00  0.00    -0.346 N 
HETATM   15  C   UNL     1      25.900  43.598  50.823  1.00  0.00     0.249 C 
HETATM   16  O   UNL     1      26.553  43.893  49.825  1.00  0.00    -0.271 OA
HETATM   17  H   UNL     1      25.506  43.991  52.835  1.00  0.00     0.163 HD
BRANCH  15  18
HETATM   18  C   UNL     1      24.602  42.784  50.680  1.00  0.00     0.279 C 
HETATM   19  N   UNL     1      24.794  41.638  49.695  1.00  0.00    -0.060 N 
HETATM   20  H   UNL     1      25.634  41.851  49.133  1.00  0.00     0.278 HD
HETATM   21  H   UNL     1      24.973  40.747  50.174  1.00  0.00     0.278 HD
HETATM   22  C   UNL     1      23.605  41.626  48.786  1.00  0.00     0.264 C 
HETATM   23  C   UNL     1      23.235  43.107  48.723  1.00  0.00     0.146 C 
HETATM   24  C   UNL     1      23.373  43.542  50.173  1.00  0.00     0.076 C 
BRANCH  23  25
HETATM   25  O   UNL     1      24.213  43.814  47.959  1.00  0.00    -0.394 OA
HETATM   26  H   UNL     1      24.434  44.643  48.435  1.00  0.00     0.210 HD
ENDBRANCH  23  25
ENDBRANCH  15  18
ENDBRANCH   5  14
TORSDOF 3
ENDMDL
MODEL 7
REMARK VINA RESULT:      -7.6      2.440      4.665
REMARK  3 active torsions:
REMARK  status: ('A' for Active; 'I' for Inactive)
REMARK    1  A    between atoms: C_5  and  N_6 
REMARK       I    between atoms: N_6  and  C_7 
REMARK    2  A    between atoms: C_7  and  C_8 
REMARK    3  A    between atoms: C_13  and  O_14 
ROOT
HETATM    1  C   UNL     1      24.635  45.029  51.756  1.00  0.00     0.001 A 
HETATM    2  C   UNL     1      25.621  44.954  52.745  1.00  0.00     0.013 A 
HETATM    3  C   UNL     1      26.769  44.229  52.475  1.00  0.00    -0.017 A 
HETATM    4  C   UNL     1      26.932  43.578  51.231  1.00  0.00    -0.020 A 
HETATM    5  C   UNL     1      28.280  42.877  51.181  1.00  0.00     0.153 A 
HETATM    6  C   UNL     1      28.858  43.208  52.546  1.00  0.00    -0.020 A 
HETATM    7  C   UNL     1      27.950  44.004  53.280  1.00  0.00    -0.017 A 
HETATM    8  C   UNL     1      30.090  42.845  53.069  1.00  0.00     0.010 A 
HETATM    9  C   UNL     1      30.414  43.289  54.352  1.00  0.00     0.001 A 
HETATM   10  C   UNL     1      29.516  44.082  55.086  1.00  0.00     0.001 A 
HETATM   11  C   UNL     1      28.275  44.446  54.552  1.00  0.00     0.013 A 
HETATM   12  C   UNL     1      25.963  43.661  50.242  1.00  0.00     0.010 A 
HETATM   13  C   UNL     1      24.804  44.390  50.516  1.00  0.00     0.001 A 
ENDROOT
BRANCH   5  14
HETATM   14  N   UNL     1      28.114  41.445  51.036  1.00  0.00    -0.346 N 
HETATM   15  C   UNL     1      28.285  40.810  49.837  1.00  0.00     0.249 C 
HETATM   16  O   UNL     1      28.517  41.403  48.787  1.00  0.00    -0.271 OA
HETATM   17  H   UNL     1      27.725  40.959  51.843  1.00  0.00     0.163 HD
BRANCH  15  18
HETATM   18  C   UNL     1      27.994  39.299  49.820  1.00  0.00     0.279 C 
HETATM   19  N   UNL     1      28.697  38.605  50.979  1.00  0.00    -0.060 N 
HETATM   20  H   UNL     1      29.435  39.242  51.319  1.00  0.00     0.278 HD
HETATM   21  H   UNL     1      28.061  38.438  51.768  1.00  0.00     0.278 HD
HETATM   22  C   UNL     1      29.348  37.372  50.434  1.00  0.00     0.264 C 
HETATM   23  C   UNL     1      29.693  37.796  49.007  1.00  0.00     0.146 C 
HETATM   24  C   UNL     1      28.437  38.533  48.571  1.00  0.00     0.076 C 
BRANCH  23  25
HETATM   25  O   UNL     1      30.766  38.738  49.033  1.00  0.00    -0.394 OA
HETATM   26  H   UNL     1      30.522  39.465  49.644  1.00  0.00     0.210 HD
ENDBRANCH  23  25
ENDBRANCH  15  18
ENDBRANCH   5  14
TORSDOF 3
ENDMDL
MODEL 8
REMARK VINA RESULT:      -7.5      1.868      2.696
REMARK  3 active torsions:
REMARK  status: ('A' for Active; 'I' for Inactive)
REMARK    1  A    between atoms: C_5  and  N_6 
REMARK       I    between atoms: N_6  and  C_7 
REMARK    2  A    between atoms: C_7  and  C_8 
REMARK    3  A    between atoms: C_13  and  O_14 
ROOT
HETATM    1  C   UNL     1      29.300  43.930  54.790  1.00  0.00     0.001 A 
HETATM    2  C   UNL     1      28.487  44.885  54.172  1.00  0.00     0.013 A 
HETATM    3  C   UNL     1      27.579  44.458  53.219  1.00  0.00    -0.017 A 
HETATM    4  C   UNL     1      27.484  43.089  52.878  1.00  0.00    -0.020 A 
HETATM    5  C   UNL     1      26.403  42.884  51.830  1.00  0.00     0.153 A 
HETATM    6  C   UNL     1      25.899  44.302  51.617  1.00  0.00    -0.020 A 
HETATM    7  C   UNL     1      26.605  45.201  52.448  1.00  0.00    -0.017 A 
HETATM    8  C   UNL     1      24.887  44.738  50.774  1.00  0.00     0.010 A 
HETATM    9  C   UNL     1      24.583  46.100  50.764  1.00  0.00     0.001 A 
HETATM   10  C   UNL     1      25.282  46.998  51.589  1.00  0.00     0.001 A 
HETATM   11  C   UNL     1      26.299  46.551  52.438  1.00  0.00     0.013 A 
HETATM   12  C   UNL     1      28.279  42.136  53.498  1.00  0.00     0.010 A 
HETATM   13  C   UNL     1      29.196  42.568  54.458  1.00  0.00     0.001 A 
ENDROOT
BRANCH   5  14
HETATM   14  N   UNL     1      26.963  42.359  50.602  1.00  0.00    -0.346 N 
HETATM   15  C   UNL     1      26.756  41.068  50.202  1.00  0.00     0.249 C 
HETATM   16  O   UNL     1      26.149  40.241  50.878  1.00  0.00    -0.271 OA
HETATM   17  H   UNL     1      27.635  42.960  50.127  1.00  0.00     0.163 HD
BRANCH  15  18
HETATM   18  C   UNL     1      27.482  40.628  48.919  1.00  0.00     0.279 C 
HETATM   19  N   UNL     1      26.615  39.668  48.114  1.00  0.00    -0.060 N 
HETATM   20  H   UNL     1      25.888  39.303  48.749  1.00  0.00     0.278 HD
HETATM   21  H   UNL     1      26.129  40.144  47.345  1.00  0.00     0.278 HD
HETATM   22  C   UNL     1      27.488  38.529  47.687  1.00  0.00     0.264 C 
HETATM   23  C   UNL     1      28.485  38.439  48.840  1.00  0.00     0.146 C 
HETATM   24  C   UNL     1      28.816  39.899  49.104  1.00  0.00     0.076 C 
BRANCH  23  25
HETATM   25  O   UNL     1      27.832  37.922  50.000  1.00  0.00    -0.394 OA
HETATM   26  H   UNL     1      26.931  38.305  50.041  1.00  0.00     0.210 HD
ENDBRANCH  23  25
ENDBRANCH  15  18
ENDBRANCH   5  14
TORSDOF 3
ENDMDL
MODEL 9
REMARK VINA RESULT:      -7.4     13.222     15.149
REMARK  3 active torsions:
REMARK  status: ('A' for Active; 'I' for Inactive)
REMARK    1  A    between atoms: C_5  and  N_6 
REMARK       I    between atoms: N_6  and  C_7 
REMARK    2  A    between atoms: C_7  and  C_8 
REMARK    3  A    between atoms: C_13  and  O_14 
ROOT
HETATM    1  C   UNL     1      29.230  53.967  39.448  1.00  0.00     0.001 A 
HETATM    2  C   UNL     1      29.869  53.272  40.479  1.00  0.00     0.013 A 
HETATM    3  C   UNL     1      30.003  51.900  40.364  1.00  0.00    -0.017 A 
HETATM    4  C   UNL     1      29.499  51.220  39.232  1.00  0.00    -0.020 A 
HETATM    5  C   UNL     1      29.793  49.733  39.339  1.00  0.00     0.153 A 
HETATM    6  C   UNL     1      30.523  49.652  40.669  1.00  0.00    -0.020 A 
HETATM    7  C   UNL     1      30.633  50.938  41.244  1.00  0.00    -0.017 A 
HETATM    8  C   UNL     1      31.055  48.533  41.291  1.00  0.00     0.010 A 
HETATM    9  C   UNL     1      31.707  48.710  42.513  1.00  0.00     0.001 A 
HETATM   10  C   UNL     1      31.820  49.986  43.089  1.00  0.00     0.001 A 
HETATM   11  C   UNL     1      31.283  51.111  42.455  1.00  0.00     0.013 A 
HETATM   12  C   UNL     1      28.876  51.906  38.199  1.00  0.00     0.010 A 
HETATM   13  C   UNL     1      28.739  53.291  38.317  1.00  0.00     0.001 A 
ENDROOT
BRANCH   5  14
HETATM   14  N   UNL     1      28.568  48.964  39.388  1.00  0.00    -0.346 N 
HETATM   15  C   UNL     1      28.465  47.721  38.826  1.00  0.00     0.249 C 
HETATM   16  O   UNL     1      29.368  47.197  38.180  1.00  0.00    -0.271 OA
HETATM   17  H   UNL     1      27.747  49.456  39.738  1.00  0.00     0.163 HD
BRANCH  15  18
HETATM   18  C   UNL     1      27.077  47.060  38.885  1.00  0.00     0.279 C 
HETATM   19  N   UNL     1      25.991  48.057  38.503  1.00  0.00    -0.060 N 
HETATM   20  H   UNL     1      26.396  49.003  38.589  1.00  0.00     0.278 HD
HETATM   21  H   UNL     1      25.697  47.947  37.525  1.00  0.00     0.278 HD
HETATM   22  C   UNL     1      24.886  47.922  39.504  1.00  0.00     0.264 C 
HETATM   23  C   UNL     1      25.646  47.523  40.768  1.00  0.00     0.146 C 
HETATM   24  C   UNL     1      26.643  46.502  40.244  1.00  0.00     0.076 C 
BRANCH  23  25
HETATM   25  O   UNL     1      26.383  48.644  41.258  1.00  0.00    -0.394 OA
HETATM   26  H   UNL     1      25.879  49.043  41.998  1.00  0.00     0.210 HD
ENDBRANCH  23  25
ENDBRANCH  15  18
ENDBRANCH   5  14
TORSDOF 3
ENDMDL
MODEL 10
REMARK VINA RESULT:      -7.4     14.406     16.173
REMARK  3 active torsions:
REMARK  status: ('A' for Active; 'I' for Inactive)
REMARK    1  A    between atoms: C_5  and  N_6 
REMARK       I    between atoms: N_6  and  C_7 
REMARK    2  A    between atoms: C_7  and  C_8 
REMARK    3  A    between atoms: C_13  and  O_14 
ROOT
HETATM    1  C   UNL     1      29.143  53.274  39.106  1.00  0.00     0.001 A 
HETATM    2  C   UNL     1      29.300  51.909  38.852  1.00  0.00     0.013 A 
HETATM    3  C   UNL     1      30.104  51.169  39.701  1.00  0.00    -0.017 A 
HETATM    4  C   UNL     1      30.753  51.786  40.795  1.00  0.00    -0.020 A 
HETATM    5  C   UNL     1      31.551  50.757  41.579  1.00  0.00     0.153 A 
HETATM    6  C   UNL     1      31.276  49.484  40.796  1.00  0.00    -0.020 A 
HETATM    7  C   UNL     1      30.422  49.757  39.704  1.00  0.00    -0.017 A 
HETATM    8  C   UNL     1      31.733  48.200  41.054  1.00  0.00     0.010 A 
HETATM    9  C   UNL     1      31.326  47.175  40.199  1.00  0.00     0.001 A 
HETATM   10  C   UNL     1      30.477  47.441  39.112  1.00  0.00     0.001 A 
HETATM   11  C   UNL     1      30.018  48.738  38.858  1.00  0.00     0.013 A 
HETATM   12  C   UNL     1      30.590  53.138  41.060  1.00  0.00     0.010 A 
HETATM   13  C   UNL     1      29.781  53.883  40.201  1.00  0.00     0.001 A 
ENDROOT
BRANCH   5  14
HETATM   14  N   UNL     1      32.964  51.068  41.555  1.00  0.00    -0.346 N 
HETATM   15  C   UNL     1      33.687  51.262  42.701  1.00  0.00     0.249 C 
HETATM   16  O   UNL     1      33.185  51.260  43.822  1.00  0.00    -0.271 OA
HETATM   17  H   UNL     1      33.359  51.276  40.639  1.00  0.00     0.163 HD
BRANCH  15  18
HETATM   18  C   UNL     1      35.159  51.668  42.517  1.00  0.00     0.279 C 
HETATM   19  N   UNL     1      35.328  52.518  41.264  1.00  0.00    -0.060 N 
HETATM   20  H   UNL     1      34.492  52.372  40.676  1.00  0.00     0.278 HD
HETATM   21  H   UNL     1      35.367  53.521  41.484  1.00  0.00     0.278 HD
HETATM   22  C   UNL     1      36.523  51.997  40.527  1.00  0.00     0.264 C 
HETATM   23  C   UNL     1      36.490  50.510  40.876  1.00  0.00     0.146 C 
HETATM   24  C   UNL     1      36.168  50.527  42.362  1.00  0.00     0.076 C 
BRANCH  23  25
HETATM   25  O   UNL     1      35.400  49.882  40.199  1.00  0.00    -0.394 OA
HETATM   26  H   UNL     1      35.139  50.451  39.445  1.00  0.00     0.210 HD
ENDBRANCH  23  25
ENDBRANCH  15  18
ENDBRANCH   5  14
TORSDOF 3
ENDMDL
