MODEL 1
REMARK VINA RESULT:     -10.1      0.000      0.000
REMARK  7 active torsions:
REMARK  status: ('A' for Active; 'I' for Inactive)
REMARK    1  A    between atoms: O_2  and  C_3 
REMARK    2  A    between atoms: C_5  and  C_6 
REMARK    3  A    between atoms: C_10  and  C_11 
REMARK    4  A    between atoms: C_10  and  C_15 
REMARK    5  A    between atoms: N_19  and  C_20 
REMARK    6  A    between atoms: C_20  and  C_21 
REMARK    7  A    between atoms: C_21  and  C_22 
ROOT
HETATM    1  C   UNL     1      26.343  45.191  49.968  1.00  0.00     0.114 C 
HETATM    2  N   UNL     1      27.166  44.641  50.839  1.00  0.00    -0.327 N 
HETATM    3  C   UNL     1      27.158  43.296  51.137  1.00  0.00     0.128 A 
HETATM    4  C   UNL     1      26.229  42.510  50.573  1.00  0.00     0.100 A 
HETATM    5  C   UNL     1      25.119  43.012  49.683  1.00  0.00     0.264 C 
HETATM    6  N   UNL     1      28.103  42.781  52.010  1.00  0.00    -0.284 N 
HETATM    7  C   UNL     1      28.166  41.420  52.304  1.00  0.00     0.331 A 
HETATM    8  O   UNL     1      29.002  40.915  53.044  1.00  0.00    -0.246 OA
HETATM    9  N   UNL     1      27.225  40.640  51.707  1.00  0.00    -0.275 N 
HETATM   10  C   UNL     1      26.264  41.073  50.861  1.00  0.00     0.262 A 
HETATM   11  O   UNL     1      25.456  40.326  50.338  1.00  0.00    -0.267 OA
HETATM   12  N   UNL     1      25.416  44.478  49.368  1.00  0.00    -0.347 N 
HETATM   13  H   UNL     1      24.833  44.939  48.663  1.00  0.00     0.162 HD
HETATM   14  H   UNL     1      27.836  45.264  51.273  1.00  0.00     0.169 HD
HETATM   15  H   UNL     1      27.269  39.648  51.912  1.00  0.00     0.173 HD
ENDROOT
BRANCH   1  16
HETATM   16  C   UNL     1      26.458  46.622  49.638  1.00  0.00     0.010 A 
HETATM   17  C   UNL     1      25.312  47.435  49.628  1.00  0.00     0.052 A 
HETATM   18  C   UNL     1      25.376  48.785  49.271  1.00  0.00     0.069 A 
HETATM   19  C   UNL     1      26.608  49.346  48.949  1.00  0.00     0.037 A 
HETATM   20  C   UNL     1      27.761  48.557  48.971  1.00  0.00     0.004 A 
HETATM   21  C   UNL     1      27.688  47.202  49.306  1.00  0.00     0.015 A 
BRANCH  18  22
HETATM   22  O   UNL     1      24.171  49.425  49.280  1.00  0.00    -0.356 OA
HETATM   23  C   UNL     1      23.004  48.611  49.226  1.00  0.00     0.210 C 
ENDBRANCH  18  22
ENDBRANCH   1  16
BRANCH   5  24
HETATM   24  C   UNL     1      23.754  42.972  50.377  1.00  0.00     0.426 C 
HETATM   25  F   UNL     1      23.945  42.717  51.700  1.00  0.00    -0.168 F 
HETATM   26  F   UNL     1      23.153  44.184  50.308  1.00  0.00    -0.168 F 
HETATM   27  F   UNL     1      22.902  42.050  49.916  1.00  0.00    -0.168 F 
ENDBRANCH   5  24
BRANCH   5  28
HETATM   28  C   UNL     1      24.934  42.298  48.338  1.00  0.00     0.426 C 
HETATM   29  F   UNL     1      26.145  42.004  47.803  1.00  0.00    -0.168 F 
HETATM   30  F   UNL     1      24.190  41.188  48.355  1.00  0.00    -0.168 F 
HETATM   31  F   UNL     1      24.342  43.162  47.468  1.00  0.00    -0.168 F 
ENDBRANCH   5  28
BRANCH   6  32
HETATM   32  C   UNL     1      29.121  43.605  52.676  1.00  0.00     0.140 C 
BRANCH  32  33
HETATM   33  C   UNL     1      28.557  44.359  53.890  1.00  0.00     0.059 C 
BRANCH  33  34
HETATM   34  C   UNL     1      29.481  44.321  55.082  1.00  0.00    -0.057 A 
HETATM   35  C   UNL     1      30.363  43.248  55.277  1.00  0.00     0.007 A 
HETATM   36  C   UNL     1      31.224  43.225  56.375  1.00  0.00     0.001 A 
HETATM   37  C   UNL     1      31.225  44.282  57.282  1.00  0.00     0.000 A 
HETATM   38  C   UNL     1      30.371  45.366  57.087  1.00  0.00     0.001 A 
HETATM   39  C   UNL     1      29.506  45.388  55.992  1.00  0.00     0.007 A 
ENDBRANCH  33  34
ENDBRANCH  32  33
ENDBRANCH   6  32
TORSDOF 7
ENDMDL
MODEL 2
REMARK VINA RESULT:      -9.5      1.250      2.074
REMARK  7 active torsions:
REMARK  status: ('A' for Active; 'I' for Inactive)
REMARK    1  A    between atoms: O_2  and  C_3 
REMARK    2  A    between atoms: C_5  and  C_6 
REMARK    3  A    between atoms: C_10  and  C_11 
REMARK    4  A    between atoms: C_10  and  C_15 
REMARK    5  A    between atoms: N_19  and  C_20 
REMARK    6  A    between atoms: C_20  and  C_21 
REMARK    7  A    between atoms: C_21  and  C_22 
ROOT
HETATM    1  C   UNL     1      26.420  45.043  49.983  1.00  0.00     0.114 C 
HETATM    2  N   UNL     1      27.165  44.532  50.942  1.00  0.00    -0.327 N 
HETATM    3  C   UNL     1      27.174  43.189  51.255  1.00  0.00     0.128 A 
HETATM    4  C   UNL     1      26.339  42.365  50.607  1.00  0.00     0.100 A 
HETATM    5  C   UNL     1      25.312  42.818  49.598  1.00  0.00     0.264 C 
HETATM    6  N   UNL     1      28.039  42.718  52.229  1.00  0.00    -0.284 N 
HETATM    7  C   UNL     1      28.119  41.363  52.546  1.00  0.00     0.331 A 
HETATM    8  O   UNL     1      28.891  40.895  53.375  1.00  0.00    -0.246 OA
HETATM    9  N   UNL     1      27.276  40.544  51.863  1.00  0.00    -0.275 N 
HETATM   10  C   UNL     1      26.394  40.933  50.915  1.00  0.00     0.262 A 
HETATM   11  O   UNL     1      25.674  40.152  50.319  1.00  0.00    -0.267 OA
HETATM   12  N   UNL     1      25.587  44.291  49.298  1.00  0.00    -0.347 N 
HETATM   13  H   UNL     1      25.066  44.723  48.529  1.00  0.00     0.162 HD
HETATM   14  H   UNL     1      27.763  45.182  51.436  1.00  0.00     0.169 HD
HETATM   15  H   UNL     1      27.333  39.556  52.084  1.00  0.00     0.173 HD
ENDROOT
BRANCH   1  16
HETATM   16  C   UNL     1      26.517  46.474  49.649  1.00  0.00     0.010 A 
HETATM   17  C   UNL     1      25.366  47.279  49.664  1.00  0.00     0.052 A 
HETATM   18  C   UNL     1      25.413  48.629  49.304  1.00  0.00     0.069 A 
HETATM   19  C   UNL     1      26.634  49.198  48.953  1.00  0.00     0.037 A 
HETATM   20  C   UNL     1      27.792  48.417  48.950  1.00  0.00     0.004 A 
HETATM   21  C   UNL     1      27.736  47.062  49.288  1.00  0.00     0.015 A 
BRANCH  18  22
HETATM   22  O   UNL     1      24.205  49.262  49.340  1.00  0.00    -0.356 OA
HETATM   23  C   UNL     1      23.943  50.218  48.317  1.00  0.00     0.210 C 
ENDBRANCH  18  22
ENDBRANCH   1  16
BRANCH   5  24
HETATM   24  C   UNL     1      23.883  42.734  50.145  1.00  0.00     0.426 C 
HETATM   25  F   UNL     1      23.242  43.903  49.871  1.00  0.00    -0.168 F 
HETATM   26  F   UNL     1      23.189  41.763  49.507  1.00  0.00    -0.168 F 
HETATM   27  F   UNL     1      23.784  42.530  51.463  1.00  0.00    -0.168 F 
ENDBRANCH   5  24
BRANCH   5  28
HETATM   28  C   UNL     1      25.296  42.085  48.251  1.00  0.00     0.426 C 
HETATM   29  F   UNL     1      26.565  41.920  47.802  1.00  0.00    -0.168 F 
HETATM   30  F   UNL     1      24.673  40.903  48.227  1.00  0.00    -0.168 F 
HETATM   31  F   UNL     1      24.677  42.881  47.334  1.00  0.00    -0.168 F 
ENDBRANCH   5  28
BRANCH   6  32
HETATM   32  C   UNL     1      28.951  43.585  52.988  1.00  0.00     0.140 C 
BRANCH  32  33
HETATM   33  C   UNL     1      28.414  43.911  54.389  1.00  0.00     0.059 C 
BRANCH  33  34
HETATM   34  C   UNL     1      27.744  45.261  54.459  1.00  0.00    -0.057 A 
HETATM   35  C   UNL     1      26.417  45.431  54.035  1.00  0.00     0.007 A 
HETATM   36  C   UNL     1      25.800  46.680  54.115  1.00  0.00     0.001 A 
HETATM   37  C   UNL     1      26.494  47.770  54.634  1.00  0.00     0.000 A 
HETATM   38  C   UNL     1      27.804  47.609  55.082  1.00  0.00     0.001 A 
HETATM   39  C   UNL     1      28.425  46.362  54.998  1.00  0.00     0.007 A 
ENDBRANCH  33  34
ENDBRANCH  32  33
ENDBRANCH   6  32
TORSDOF 7
ENDMDL
MODEL 3
REMARK VINA RESULT:      -9.5      2.642      5.669
REMARK  7 active torsions:
REMARK  status: ('A' for Active; 'I' for Inactive)
REMARK    1  A    between atoms: O_2  and  C_3 
REMARK    2  A    between atoms: C_5  and  C_6 
REMARK    3  A    between atoms: C_10  and  C_11 
REMARK    4  A    between atoms: C_10  and  C_15 
REMARK    5  A    between atoms: N_19  and  C_20 
REMARK    6  A    between atoms: C_20  and  C_21 
REMARK    7  A    between atoms: C_21  and  C_22 
ROOT
HETATM    1  C   UNL     1      27.124  41.304  50.369  1.00  0.00     0.114 C 
HETATM    2  N   UNL     1      27.516  41.768  51.539  1.00  0.00    -0.327 N 
HETATM    3  C   UNL     1      26.841  42.756  52.223  1.00  0.00     0.128 A 
HETATM    4  C   UNL     1      25.773  43.329  51.650  1.00  0.00     0.100 A 
HETATM    5  C   UNL     1      25.294  43.025  50.251  1.00  0.00     0.264 C 
HETATM    6  N   UNL     1      27.275  43.139  53.481  1.00  0.00    -0.284 N 
HETATM    7  C   UNL     1      26.598  44.098  54.231  1.00  0.00     0.331 A 
HETATM    8  O   UNL     1      26.924  44.445  55.360  1.00  0.00    -0.246 OA
HETATM    9  N   UNL     1      25.507  44.653  53.637  1.00  0.00    -0.275 N 
HETATM   10  C   UNL     1      25.036  44.344  52.409  1.00  0.00     0.262 A 
HETATM   11  O   UNL     1      24.040  44.859  51.931  1.00  0.00    -0.267 OA
HETATM   12  N   UNL     1      26.078  41.811  49.755  1.00  0.00    -0.347 N 
HETATM   13  H   UNL     1      25.783  41.384  48.872  1.00  0.00     0.162 HD
HETATM   14  H   UNL     1      28.344  41.338  51.934  1.00  0.00     0.169 HD
HETATM   15  H   UNL     1      25.005  45.347  54.179  1.00  0.00     0.173 HD
ENDROOT
BRANCH   1  16
HETATM   16  C   UNL     1      27.848  40.192  49.730  1.00  0.00     0.010 A 
HETATM   17  C   UNL     1      28.761  39.427  50.475  1.00  0.00     0.052 A 
HETATM   18  C   UNL     1      29.502  38.398  49.889  1.00  0.00     0.069 A 
HETATM   19  C   UNL     1      29.310  38.101  48.543  1.00  0.00     0.037 A 
HETATM   20  C   UNL     1      28.394  38.840  47.790  1.00  0.00     0.004 A 
HETATM   21  C   UNL     1      27.672  39.884  48.375  1.00  0.00     0.015 A 
BRANCH  18  22
HETATM   22  O   UNL     1      30.366  37.773  50.741  1.00  0.00    -0.356 OA
HETATM   23  C   UNL     1      29.850  36.689  51.507  1.00  0.00     0.210 C 
ENDBRANCH  18  22
ENDBRANCH   1  16
BRANCH   5  24
HETATM   24  C   UNL     1      25.582  44.171  49.276  1.00  0.00     0.426 C 
HETATM   25  F   UNL     1      26.929  44.349  49.198  1.00  0.00    -0.168 F 
HETATM   26  F   UNL     1      25.172  43.844  48.028  1.00  0.00    -0.168 F 
HETATM   27  F   UNL     1      25.046  45.352  49.603  1.00  0.00    -0.168 F 
ENDBRANCH   5  24
BRANCH   5  28
HETATM   28  C   UNL     1      23.806  42.690  50.087  1.00  0.00     0.426 C 
HETATM   29  F   UNL     1      23.324  42.159  51.239  1.00  0.00    -0.168 F 
HETATM   30  F   UNL     1      23.011  43.696  49.711  1.00  0.00    -0.168 F 
HETATM   31  F   UNL     1      23.685  41.712  49.147  1.00  0.00    -0.168 F 
ENDBRANCH   5  28
BRANCH   6  32
HETATM   32  C   UNL     1      28.457  42.562  54.137  1.00  0.00     0.140 C 
BRANCH  32  33
HETATM   33  C   UNL     1      29.693  43.464  54.008  1.00  0.00     0.059 C 
BRANCH  33  34
HETATM   34  C   UNL     1      30.255  43.882  55.344  1.00  0.00    -0.057 A 
HETATM   35  C   UNL     1      29.920  45.120  55.913  1.00  0.00     0.007 A 
HETATM   36  C   UNL     1      30.433  45.494  57.156  1.00  0.00     0.001 A 
HETATM   37  C   UNL     1      31.273  44.630  57.853  1.00  0.00     0.000 A 
HETATM   38  C   UNL     1      31.593  43.387  57.312  1.00  0.00     0.001 A 
HETATM   39  C   UNL     1      31.085  43.012  56.066  1.00  0.00     0.007 A 
ENDBRANCH  33  34
ENDBRANCH  32  33
ENDBRANCH   6  32
TORSDOF 7
ENDMDL
MODEL 4
REMARK VINA RESULT:      -9.5      3.071      6.213
REMARK  7 active torsions:
REMARK  status: ('A' for Active; 'I' for Inactive)
REMARK    1  A    between atoms: O_2  and  C_3 
REMARK    2  A    between atoms: C_5  and  C_6 
REMARK    3  A    between atoms: C_10  and  C_11 
REMARK    4  A    between atoms: C_10  and  C_15 
REMARK    5  A    between atoms: N_19  and  C_20 
REMARK    6  A    between atoms: C_20  and  C_21 
REMARK    7  A    between atoms: C_21  and  C_22 
ROOT
HETATM    1  C   UNL     1      27.439  41.595  51.135  1.00  0.00     0.114 C 
HETATM    2  N   UNL     1      26.257  42.050  50.769  1.00  0.00    -0.327 N 
HETATM    3  C   UNL     1      25.506  41.476  49.766  1.00  0.00     0.128 A 
HETATM    4  C   UNL     1      26.021  40.448  49.076  1.00  0.00     0.100 A 
HETATM    5  C   UNL     1      27.420  39.915  49.263  1.00  0.00     0.264 C 
HETATM    6  N   UNL     1      24.241  41.968  49.488  1.00  0.00    -0.284 N 
HETATM    7  C   UNL     1      23.426  41.391  48.516  1.00  0.00     0.331 A 
HETATM    8  O   UNL     1      22.290  41.770  48.258  1.00  0.00    -0.246 OA
HETATM    9  N   UNL     1      23.962  40.338  47.841  1.00  0.00    -0.275 N 
HETATM   10  C   UNL     1      25.192  39.816  48.044  1.00  0.00     0.262 A 
HETATM   11  O   UNL     1      25.617  38.858  47.423  1.00  0.00    -0.267 OA
HETATM   12  N   UNL     1      27.998  40.582  50.511  1.00  0.00    -0.347 N 
HETATM   13  H   UNL     1      28.894  40.233  50.864  1.00  0.00     0.162 HD
HETATM   14  H   UNL     1      25.906  42.846  51.287  1.00  0.00     0.169 HD
HETATM   15  H   UNL     1      23.372  39.909  47.137  1.00  0.00     0.173 HD
ENDROOT
BRANCH   1  16
HETATM   16  C   UNL     1      28.152  42.208  52.268  1.00  0.00     0.010 A 
HETATM   17  C   UNL     1      27.465  43.050  53.159  1.00  0.00     0.052 A 
HETATM   18  C   UNL     1      28.122  43.688  54.214  1.00  0.00     0.069 A 
HETATM   19  C   UNL     1      29.481  43.460  54.409  1.00  0.00     0.037 A 
HETATM   20  C   UNL     1      30.177  42.612  53.544  1.00  0.00     0.004 A 
HETATM   21  C   UNL     1      29.521  41.995  52.476  1.00  0.00     0.015 A 
BRANCH  18  22
HETATM   22  O   UNL     1      27.320  44.496  54.967  1.00  0.00    -0.356 OA
HETATM   23  C   UNL     1      27.890  45.712  55.443  1.00  0.00     0.210 C 
ENDBRANCH  18  22
ENDBRANCH   1  16
BRANCH   5  24
HETATM   24  C   UNL     1      28.343  40.278  48.095  1.00  0.00     0.426 C 
HETATM   25  F   UNL     1      28.004  41.516  47.641  1.00  0.00    -0.168 F 
HETATM   26  F   UNL     1      29.626  40.368  48.517  1.00  0.00    -0.168 F 
HETATM   27  F   UNL     1      28.297  39.447  47.048  1.00  0.00    -0.168 F 
ENDBRANCH   5  24
BRANCH   5  28
HETATM   28  C   UNL     1      27.562  38.401  49.463  1.00  0.00     0.426 C 
HETATM   29  F   UNL     1      26.468  37.916  50.102  1.00  0.00    -0.168 F 
HETATM   30  F   UNL     1      27.775  37.675  48.362  1.00  0.00    -0.168 F 
HETATM   31  F   UNL     1      28.613  38.173  50.300  1.00  0.00    -0.168 F 
ENDBRANCH   5  28
BRANCH   6  32
HETATM   32  C   UNL     1      23.647  43.111  50.195  1.00  0.00     0.140 C 
BRANCH  32  33
HETATM   33  C   UNL     1      23.960  44.448  49.509  1.00  0.00     0.059 C 
BRANCH  33  34
HETATM   34  C   UNL     1      24.731  45.394  50.396  1.00  0.00    -0.057 A 
HETATM   35  C   UNL     1      25.408  46.499  49.858  1.00  0.00     0.007 A 
HETATM   36  C   UNL     1      26.108  47.377  50.686  1.00  0.00     0.001 A 
HETATM   37  C   UNL     1      26.128  47.171  52.063  1.00  0.00     0.000 A 
HETATM   38  C   UNL     1      25.439  46.092  52.614  1.00  0.00     0.001 A 
HETATM   39  C   UNL     1      24.742  45.209  51.786  1.00  0.00     0.007 A 
ENDBRANCH  33  34
ENDBRANCH  32  33
ENDBRANCH   6  32
TORSDOF 7
ENDMDL
MODEL 5
REMARK VINA RESULT:      -9.2      2.971      6.791
REMARK  7 active torsions:
REMARK  status: ('A' for Active; 'I' for Inactive)
REMARK    1  A    between atoms: O_2  and  C_3 
REMARK    2  A    between atoms: C_5  and  C_6 
REMARK    3  A    between atoms: C_10  and  C_11 
REMARK    4  A    between atoms: C_10  and  C_15 
REMARK    5  A    between atoms: N_19  and  C_20 
REMARK    6  A    between atoms: C_20  and  C_21 
REMARK    7  A    between atoms: C_21  and  C_22 
ROOT
HETATM    1  C   UNL     1      27.613  44.068  52.396  1.00  0.00     0.114 C 
HETATM    2  N   UNL     1      27.191  42.952  51.835  1.00  0.00    -0.327 N 
HETATM    3  C   UNL     1      26.339  42.928  50.753  1.00  0.00     0.128 A 
HETATM    4  C   UNL     1      25.854  44.086  50.281  1.00  0.00     0.100 A 
HETATM    5  C   UNL     1      26.111  45.433  50.910  1.00  0.00     0.264 C 
HETATM    6  N   UNL     1      25.998  41.716  50.174  1.00  0.00    -0.284 N 
HETATM    7  C   UNL     1      25.179  41.645  49.049  1.00  0.00     0.331 A 
HETATM    8  O   UNL     1      24.877  40.600  48.484  1.00  0.00    -0.246 OA
HETATM    9  N   UNL     1      24.714  42.833  48.578  1.00  0.00    -0.275 N 
HETATM   10  C   UNL     1      24.987  44.049  49.099  1.00  0.00     0.262 A 
HETATM   11  O   UNL     1      24.558  45.086  48.625  1.00  0.00    -0.267 OA
HETATM   12  N   UNL     1      27.189  45.239  51.977  1.00  0.00    -0.347 N 
HETATM   13  H   UNL     1      27.583  46.079  52.411  1.00  0.00     0.162 HD
HETATM   14  H   UNL     1      27.549  42.092  52.231  1.00  0.00     0.169 HD
HETATM   15  H   UNL     1      24.122  42.789  47.755  1.00  0.00     0.173 HD
ENDROOT
BRANCH   1  16
HETATM   16  C   UNL     1      28.586  44.023  53.501  1.00  0.00     0.010 A 
HETATM   17  C   UNL     1      28.493  44.945  54.557  1.00  0.00     0.052 A 
HETATM   18  C   UNL     1      29.428  44.964  55.595  1.00  0.00     0.069 A 
HETATM   19  C   UNL     1      30.457  44.026  55.602  1.00  0.00     0.037 A 
HETATM   20  C   UNL     1      30.554  43.090  54.570  1.00  0.00     0.004 A 
HETATM   21  C   UNL     1      29.631  43.090  53.522  1.00  0.00     0.015 A 
BRANCH  18  22
HETATM   22  O   UNL     1      29.216  45.940  56.525  1.00  0.00    -0.356 OA
HETATM   23  C   UNL     1      30.069  45.945  57.666  1.00  0.00     0.210 C 
ENDBRANCH  18  22
ENDBRANCH   1  16
BRANCH   5  24
HETATM   24  C   UNL     1      24.874  45.989  51.622  1.00  0.00     0.426 C 
HETATM   25  F   UNL     1      24.019  44.960  51.878  1.00  0.00    -0.168 F 
HETATM   26  F   UNL     1      25.213  46.506  52.827  1.00  0.00    -0.168 F 
HETATM   27  F   UNL     1      24.187  46.913  50.942  1.00  0.00    -0.168 F 
ENDBRANCH   5  24
BRANCH   5  28
HETATM   28  C   UNL     1      26.604  46.548  49.980  1.00  0.00     0.426 C 
HETATM   29  F   UNL     1      27.675  46.115  49.269  1.00  0.00    -0.168 F 
HETATM   30  F   UNL     1      25.702  47.055  49.134  1.00  0.00    -0.168 F 
HETATM   31  F   UNL     1      27.057  47.581  50.745  1.00  0.00    -0.168 F 
ENDBRANCH   5  28
BRANCH   6  32
HETATM   32  C   UNL     1      26.479  40.420  50.673  1.00  0.00     0.140 C 
BRANCH  32  33
HETATM   33  C   UNL     1      27.828  40.023  50.055  1.00  0.00     0.059 C 
BRANCH  33  34
HETATM   34  C   UNL     1      27.718  38.845  49.120  1.00  0.00    -0.057 A 
HETATM   35  C   UNL     1      26.906  37.745  49.436  1.00  0.00     0.007 A 
HETATM   36  C   UNL     1      26.799  36.664  48.559  1.00  0.00     0.001 A 
HETATM   37  C   UNL     1      27.488  36.676  47.350  1.00  0.00     0.000 A 
HETATM   38  C   UNL     1      28.279  37.772  47.012  1.00  0.00     0.001 A 
HETATM   39  C   UNL     1      28.392  38.852  47.890  1.00  0.00     0.007 A 
ENDBRANCH  33  34
ENDBRANCH  32  33
ENDBRANCH   6  32
TORSDOF 7
ENDMDL
MODEL 6
REMARK VINA RESULT:      -9.1      5.788      8.628
REMARK  7 active torsions:
REMARK  status: ('A' for Active; 'I' for Inactive)
REMARK    1  A    between atoms: O_2  and  C_3 
REMARK    2  A    between atoms: C_5  and  C_6 
REMARK    3  A    between atoms: C_10  and  C_11 
REMARK    4  A    between atoms: C_10  and  C_15 
REMARK    5  A    between atoms: N_19  and  C_20 
REMARK    6  A    between atoms: C_20  and  C_21 
REMARK    7  A    between atoms: C_21  and  C_22 
ROOT
HETATM    1  C   UNL     1      22.349  48.919  48.668  1.00  0.00     0.114 C 
HETATM    2  N   UNL     1      21.784  47.737  48.522  1.00  0.00    -0.327 N 
HETATM    3  C   UNL     1      20.421  47.559  48.432  1.00  0.00     0.128 A 
HETATM    4  C   UNL     1      19.617  48.624  48.567  1.00  0.00     0.100 A 
HETATM    5  C   UNL     1      20.097  50.015  48.897  1.00  0.00     0.264 C 
HETATM    6  N   UNL     1      19.907  46.292  48.207  1.00  0.00    -0.284 N 
HETATM    7  C   UNL     1      18.539  46.071  48.060  1.00  0.00     0.331 A 
HETATM    8  O   UNL     1      18.041  44.975  47.829  1.00  0.00    -0.246 OA
HETATM    9  N   UNL     1      17.744  47.168  48.183  1.00  0.00    -0.275 N 
HETATM   10  C   UNL     1      18.171  48.428  48.420  1.00  0.00     0.262 A 
HETATM   11  O   UNL     1      17.415  49.380  48.502  1.00  0.00    -0.267 OA
HETATM   12  N   UNL     1      21.622  50.006  48.793  1.00  0.00    -0.347 N 
HETATM   13  H   UNL     1      22.106  50.907  48.853  1.00  0.00     0.162 HD
HETATM   14  H   UNL     1      22.415  46.947  48.455  1.00  0.00     0.169 HD
HETATM   15  H   UNL     1      16.748  47.014  48.071  1.00  0.00     0.173 HD
ENDROOT
BRANCH   1  16
HETATM   16  C   UNL     1      23.817  49.045  48.678  1.00  0.00     0.010 A 
HETATM   17  C   UNL     1      24.590  48.183  49.474  1.00  0.00     0.052 A 
HETATM   18  C   UNL     1      25.981  48.307  49.547  1.00  0.00     0.069 A 
HETATM   19  C   UNL     1      26.618  49.285  48.790  1.00  0.00     0.037 A 
HETATM   20  C   UNL     1      25.866  50.140  47.979  1.00  0.00     0.004 A 
HETATM   21  C   UNL     1      24.475  50.027  47.927  1.00  0.00     0.015 A 
BRANCH  18  22
HETATM   22  O   UNL     1      26.580  47.415  50.388  1.00  0.00    -0.356 OA
HETATM   23  C   UNL     1      25.867  47.060  51.570  1.00  0.00     0.210 C 
ENDBRANCH  18  22
ENDBRANCH   1  16
BRANCH   5  24
HETATM   24  C   UNL     1      19.751  50.425  50.332  1.00  0.00     0.426 C 
HETATM   25  F   UNL     1      19.424  49.307  51.038  1.00  0.00    -0.168 F 
HETATM   26  F   UNL     1      20.833  50.957  50.947  1.00  0.00    -0.168 F 
HETATM   27  F   UNL     1      18.730  51.281  50.454  1.00  0.00    -0.168 F 
ENDBRANCH   5  24
BRANCH   5  28
HETATM   28  C   UNL     1      19.597  51.152  47.997  1.00  0.00     0.426 C 
HETATM   29  F   UNL     1      19.748  50.807  46.694  1.00  0.00    -0.168 F 
HETATM   30  F   UNL     1      18.337  51.552  48.194  1.00  0.00    -0.168 F 
HETATM   31  F   UNL     1      20.396  52.239  48.190  1.00  0.00    -0.168 F 
ENDBRANCH   5  28
BRANCH   6  32
HETATM   32  C   UNL     1      20.745  45.092  48.084  1.00  0.00     0.140 C 
BRANCH  32  33
HETATM   33  C   UNL     1      21.134  44.509  49.450  1.00  0.00     0.059 C 
BRANCH  33  34
HETATM   34  C   UNL     1      22.587  44.111  49.524  1.00  0.00    -0.057 A 
HETATM   35  C   UNL     1      22.982  42.943  50.194  1.00  0.00     0.007 A 
HETATM   36  C   UNL     1      24.328  42.575  50.247  1.00  0.00     0.001 A 
HETATM   37  C   UNL     1      25.291  43.359  49.619  1.00  0.00     0.000 A 
HETATM   38  C   UNL     1      24.910  44.508  48.929  1.00  0.00     0.001 A 
HETATM   39  C   UNL     1      23.565  44.881  48.879  1.00  0.00     0.007 A 
ENDBRANCH  33  34
ENDBRANCH  32  33
ENDBRANCH   6  32
TORSDOF 7
ENDMDL
MODEL 7
REMARK VINA RESULT:      -8.7      2.514      3.589
REMARK  7 active torsions:
REMARK  status: ('A' for Active; 'I' for Inactive)
REMARK    1  A    between atoms: O_2  and  C_3 
REMARK    2  A    between atoms: C_5  and  C_6 
REMARK    3  A    between atoms: C_10  and  C_11 
REMARK    4  A    between atoms: C_10  and  C_15 
REMARK    5  A    between atoms: N_19  and  C_20 
REMARK    6  A    between atoms: C_20  and  C_21 
REMARK    7  A    between atoms: C_21  and  C_22 
ROOT
HETATM    1  C   UNL     1      26.783  42.601  49.224  1.00  0.00     0.114 C 
HETATM    2  N   UNL     1      27.376  41.951  50.206  1.00  0.00    -0.327 N 
HETATM    3  C   UNL     1      27.994  40.731  50.038  1.00  0.00     0.128 A 
HETATM    4  C   UNL     1      27.937  40.134  48.839  1.00  0.00     0.100 A 
HETATM    5  C   UNL     1      27.163  40.669  47.659  1.00  0.00     0.264 C 
HETATM    6  N   UNL     1      28.658  40.145  51.103  1.00  0.00    -0.284 N 
HETATM    7  C   UNL     1      29.338  38.937  50.969  1.00  0.00     0.331 A 
HETATM    8  O   UNL     1      29.966  38.396  51.872  1.00  0.00    -0.246 OA
HETATM    9  N   UNL     1      29.282  38.358  49.739  1.00  0.00    -0.275 N 
HETATM   10  C   UNL     1      28.641  38.860  48.661  1.00  0.00     0.262 A 
HETATM   11  O   UNL     1      28.638  38.309  47.574  1.00  0.00    -0.267 OA
HETATM   12  N   UNL     1      26.702  42.081  48.020  1.00  0.00    -0.347 N 
HETATM   13  H   UNL     1      26.277  42.645  47.278  1.00  0.00     0.162 HD
HETATM   14  H   UNL     1      27.376  42.412  51.108  1.00  0.00     0.169 HD
HETATM   15  H   UNL     1      29.780  37.481  49.632  1.00  0.00     0.173 HD
ENDROOT
BRANCH   1  16
HETATM   16  C   UNL     1      26.211  43.938  49.457  1.00  0.00     0.010 A 
HETATM   17  C   UNL     1      24.855  44.180  49.179  1.00  0.00     0.052 A 
HETATM   18  C   UNL     1      24.291  45.448  49.339  1.00  0.00     0.069 A 
HETATM   19  C   UNL     1      25.081  46.489  49.817  1.00  0.00     0.037 A 
HETATM   20  C   UNL     1      26.427  46.263  50.116  1.00  0.00     0.004 A 
HETATM   21  C   UNL     1      26.992  44.999  49.931  1.00  0.00     0.015 A 
BRANCH  18  22
HETATM   22  O   UNL     1      22.972  45.523  48.996  1.00  0.00    -0.356 OA
HETATM   23  C   UNL     1      22.204  44.329  49.110  1.00  0.00     0.210 C 
ENDBRANCH  18  22
ENDBRANCH   1  16
BRANCH   5  24
HETATM   24  C   UNL     1      25.902  39.848  47.370  1.00  0.00     0.426 C 
HETATM   25  F   UNL     1      25.457  39.306  48.538  1.00  0.00    -0.168 F 
HETATM   26  F   UNL     1      24.908  40.651  46.924  1.00  0.00    -0.168 F 
HETATM   27  F   UNL     1      26.058  38.842  46.503  1.00  0.00    -0.168 F 
ENDBRANCH   5  24
BRANCH   5  28
HETATM   28  C   UNL     1      27.917  40.775  46.328  1.00  0.00     0.426 C 
HETATM   29  F   UNL     1      29.134  41.337  46.531  1.00  0.00    -0.168 F 
HETATM   30  F   UNL     1      28.076  39.637  45.646  1.00  0.00    -0.168 F 
HETATM   31  F   UNL     1      27.240  41.635  45.516  1.00  0.00    -0.168 F 
ENDBRANCH   5  28
BRANCH   6  32
HETATM   32  C   UNL     1      28.722  40.745  52.443  1.00  0.00     0.140 C 
BRANCH  32  33
HETATM   33  C   UNL     1      29.818  41.815  52.550  1.00  0.00     0.059 C 
BRANCH  33  34
HETATM   34  C   UNL     1      29.443  42.945  53.477  1.00  0.00    -0.057 A 
HETATM   35  C   UNL     1      30.221  43.241  54.606  1.00  0.00     0.007 A 
HETATM   36  C   UNL     1      29.876  44.296  55.452  1.00  0.00     0.001 A 
HETATM   37  C   UNL     1      28.759  45.078  55.171  1.00  0.00     0.000 A 
HETATM   38  C   UNL     1      27.991  44.811  54.039  1.00  0.00     0.001 A 
HETATM   39  C   UNL     1      28.332  43.753  53.195  1.00  0.00     0.007 A 
ENDBRANCH  33  34
ENDBRANCH  32  33
ENDBRANCH   6  32
TORSDOF 7
ENDMDL
MODEL 8
REMARK VINA RESULT:      -8.7      6.240      9.487
REMARK  7 active torsions:
REMARK  status: ('A' for Active; 'I' for Inactive)
REMARK    1  A    between atoms: O_2  and  C_3 
REMARK    2  A    between atoms: C_5  and  C_6 
REMARK    3  A    between atoms: C_10  and  C_11 
REMARK    4  A    between atoms: C_10  and  C_15 
REMARK    5  A    between atoms: N_19  and  C_20 
REMARK    6  A    between atoms: C_20  and  C_21 
REMARK    7  A    between atoms: C_21  and  C_22 
ROOT
HETATM    1  C   UNL     1      22.318  48.100  49.223  1.00  0.00     0.114 C 
HETATM    2  N   UNL     1      21.362  47.236  48.941  1.00  0.00    -0.327 N 
HETATM    3  C   UNL     1      20.081  47.614  48.603  1.00  0.00     0.128 A 
HETATM    4  C   UNL     1      19.760  48.916  48.626  1.00  0.00     0.100 A 
HETATM    5  C   UNL     1      20.691  50.012  49.082  1.00  0.00     0.264 C 
HETATM    6  N   UNL     1      19.151  46.650  48.250  1.00  0.00    -0.284 N 
HETATM    7  C   UNL     1      17.858  46.986  47.855  1.00  0.00     0.331 A 
HETATM    8  O   UNL     1      17.013  46.172  47.503  1.00  0.00    -0.246 OA
HETATM    9  N   UNL     1      17.560  48.313  47.869  1.00  0.00    -0.275 N 
HETATM   10  C   UNL     1      18.407  49.307  48.218  1.00  0.00     0.262 A 
HETATM   11  O   UNL     1      18.093  50.484  48.194  1.00  0.00    -0.267 OA
HETATM   12  N   UNL     1      22.077  49.392  49.251  1.00  0.00    -0.347 N 
HETATM   13  H   UNL     1      22.862  50.026  49.425  1.00  0.00     0.162 HD
HETATM   14  H   UNL     1      21.625  46.259  48.962  1.00  0.00     0.169 HD
HETATM   15  H   UNL     1      16.623  48.566  47.576  1.00  0.00     0.173 HD
ENDROOT
BRANCH   1  16
HETATM   16  C   UNL     1      23.686  47.630  49.498  1.00  0.00     0.010 A 
HETATM   17  C   UNL     1      24.774  48.506  49.347  1.00  0.00     0.052 A 
HETATM   18  C   UNL     1      26.090  48.080  49.551  1.00  0.00     0.069 A 
HETATM   19  C   UNL     1      26.327  46.767  49.945  1.00  0.00     0.037 A 
HETATM   20  C   UNL     1      25.256  45.886  50.118  1.00  0.00     0.004 A 
HETATM   21  C   UNL     1      23.944  46.310  49.890  1.00  0.00     0.015 A 
BRANCH  18  22
HETATM   22  O   UNL     1      27.031  49.043  49.332  1.00  0.00    -0.356 OA
HETATM   23  C   UNL     1      26.735  50.026  48.344  1.00  0.00     0.210 C 
ENDBRANCH  18  22
ENDBRANCH   1  16
BRANCH   5  24
HETATM   24  C   UNL     1      20.290  50.587  50.444  1.00  0.00     0.426 C 
HETATM   25  F   UNL     1      19.713  49.599  51.182  1.00  0.00    -0.168 F 
HETATM   26  F   UNL     1      21.387  50.981  51.132  1.00  0.00    -0.168 F 
HETATM   27  F   UNL     1      19.425  51.607  50.405  1.00  0.00    -0.168 F 
ENDBRANCH   5  24
BRANCH   5  28
HETATM   28  C   UNL     1      20.854  51.215  48.144  1.00  0.00     0.426 C 
HETATM   29  F   UNL     1      20.709  50.817  46.855  1.00  0.00    -0.168 F 
HETATM   30  F   UNL     1      20.045  52.255  48.367  1.00  0.00    -0.168 F 
HETATM   31  F   UNL     1      22.132  51.675  48.250  1.00  0.00    -0.168 F 
ENDBRANCH   5  28
BRANCH   6  32
HETATM   32  C   UNL     1      19.447  45.210  48.240  1.00  0.00     0.140 C 
BRANCH  32  33
HETATM   33  C   UNL     1      19.800  44.698  46.835  1.00  0.00     0.059 C 
BRANCH  33  34
HETATM   34  C   UNL     1      21.067  43.879  46.814  1.00  0.00    -0.057 A 
HETATM   35  C   UNL     1      21.089  42.599  46.239  1.00  0.00     0.007 A 
HETATM   36  C   UNL     1      22.268  41.853  46.211  1.00  0.00     0.001 A 
HETATM   37  C   UNL     1      23.441  42.381  46.741  1.00  0.00     0.000 A 
HETATM   38  C   UNL     1      23.439  43.661  47.292  1.00  0.00     0.001 A 
HETATM   39  C   UNL     1      22.260  44.408  47.326  1.00  0.00     0.007 A 
ENDBRANCH  33  34
ENDBRANCH  32  33
ENDBRANCH   6  32
TORSDOF 7
ENDMDL
MODEL 9
REMARK VINA RESULT:      -8.7      6.056      9.944
REMARK  7 active torsions:
REMARK  status: ('A' for Active; 'I' for Inactive)
REMARK    1  A    between atoms: O_2  and  C_3 
REMARK    2  A    between atoms: C_5  and  C_6 
REMARK    3  A    between atoms: C_10  and  C_11 
REMARK    4  A    between atoms: C_10  and  C_15 
REMARK    5  A    between atoms: N_19  and  C_20 
REMARK    6  A    between atoms: C_20  and  C_21 
REMARK    7  A    between atoms: C_21  and  C_22 
ROOT
HETATM    1  C   UNL     1      22.252  48.791  48.846  1.00  0.00     0.114 C 
HETATM    2  N   UNL     1      21.620  47.638  48.749  1.00  0.00    -0.327 N 
HETATM    3  C   UNL     1      20.250  47.538  48.634  1.00  0.00     0.128 A 
HETATM    4  C   UNL     1      19.509  48.654  48.692  1.00  0.00     0.100 A 
HETATM    5  C   UNL     1      20.067  50.030  48.962  1.00  0.00     0.264 C 
HETATM    6  N   UNL     1      19.665  46.294  48.463  1.00  0.00    -0.284 N 
HETATM    7  C   UNL     1      18.290  46.147  48.294  1.00  0.00     0.331 A 
HETATM    8  O   UNL     1      17.731  45.072  48.108  1.00  0.00    -0.246 OA
HETATM    9  N   UNL     1      17.560  47.294  48.339  1.00  0.00    -0.275 N 
HETATM   10  C   UNL     1      18.058  48.537  48.520  1.00  0.00     0.262 A 
HETATM   11  O   UNL     1      17.360  49.536  48.533  1.00  0.00    -0.267 OA
HETATM   12  N   UNL     1      21.591  49.925  48.896  1.00  0.00    -0.347 N 
HETATM   13  H   UNL     1      22.127  50.797  48.921  1.00  0.00     0.162 HD
HETATM   14  H   UNL     1      22.202  46.810  48.739  1.00  0.00     0.169 HD
HETATM   15  H   UNL     1      16.559  47.195  48.210  1.00  0.00     0.173 HD
ENDROOT
BRANCH   1  16
HETATM   16  C   UNL     1      23.724  48.829  48.887  1.00  0.00     0.010 A 
HETATM   17  C   UNL     1      24.433  47.848  49.601  1.00  0.00     0.052 A 
HETATM   18  C   UNL     1      25.827  47.883  49.702  1.00  0.00     0.069 A 
HETATM   19  C   UNL     1      26.532  48.893  49.055  1.00  0.00     0.037 A 
HETATM   20  C   UNL     1      25.845  49.867  48.326  1.00  0.00     0.004 A 
HETATM   21  C   UNL     1      24.450  49.842  48.247  1.00  0.00     0.015 A 
BRANCH  18  22
HETATM   22  O   UNL     1      26.359  46.878  50.456  1.00  0.00    -0.356 OA
HETATM   23  C   UNL     1      26.335  45.567  49.898  1.00  0.00     0.210 C 
ENDBRANCH  18  22
ENDBRANCH   1  16
BRANCH   5  24
HETATM   24  C   UNL     1      19.715  50.537  50.364  1.00  0.00     0.426 C 
HETATM   25  F   UNL     1      19.319  49.478  51.123  1.00  0.00    -0.168 F 
HETATM   26  F   UNL     1      20.811  51.048  50.971  1.00  0.00    -0.168 F 
HETATM   27  F   UNL     1      18.737  51.448  50.416  1.00  0.00    -0.168 F 
ENDBRANCH   5  24
BRANCH   5  28
HETATM   28  C   UNL     1      19.657  51.145  47.991  1.00  0.00     0.426 C 
HETATM   29  F   UNL     1      19.857  50.738  46.712  1.00  0.00    -0.168 F 
HETATM   30  F   UNL     1      18.406  51.601  48.108  1.00  0.00    -0.168 F 
HETATM   31  F   UNL     1      20.488  52.208  48.178  1.00  0.00    -0.168 F 
ENDBRANCH   5  28
BRANCH   6  32
HETATM   32  C   UNL     1      20.431  45.040  48.424  1.00  0.00     0.140 C 
BRANCH  32  33
HETATM   33  C   UNL     1      21.219  44.880  47.115  1.00  0.00     0.059 C 
BRANCH  33  34
HETATM   34  C   UNL     1      20.713  43.743  46.263  1.00  0.00    -0.057 A 
HETATM   35  C   UNL     1      21.303  42.472  46.332  1.00  0.00     0.007 A 
HETATM   36  C   UNL     1      20.822  41.421  45.550  1.00  0.00     0.001 A 
HETATM   37  C   UNL     1      19.735  41.622  44.703  1.00  0.00     0.000 A 
HETATM   38  C   UNL     1      19.124  42.873  44.644  1.00  0.00     0.001 A 
HETATM   39  C   UNL     1      19.607  43.927  45.421  1.00  0.00     0.007 A 
ENDBRANCH  33  34
ENDBRANCH  32  33
ENDBRANCH   6  32
TORSDOF 7
ENDMDL
MODEL 10
REMARK VINA RESULT:      -8.5      6.570     10.541
REMARK  7 active torsions:
REMARK  status: ('A' for Active; 'I' for Inactive)
REMARK    1  A    between atoms: O_2  and  C_3 
REMARK    2  A    between atoms: C_5  and  C_6 
REMARK    3  A    between atoms: C_10  and  C_11 
REMARK    4  A    between atoms: C_10  and  C_15 
REMARK    5  A    between atoms: N_19  and  C_20 
REMARK    6  A    between atoms: C_20  and  C_21 
REMARK    7  A    between atoms: C_21  and  C_22 
ROOT
HETATM    1  C   UNL     1      21.260  48.135  48.607  1.00  0.00     0.114 C 
HETATM    2  N   UNL     1      20.601  47.893  47.491  1.00  0.00    -0.327 N 
HETATM    3  C   UNL     1      19.523  48.644  47.075  1.00  0.00     0.128 A 
HETATM    4  C   UNL     1      19.069  49.625  47.868  1.00  0.00     0.100 A 
HETATM    5  C   UNL     1      19.609  49.922  49.245  1.00  0.00     0.264 C 
HETATM    6  N   UNL     1      18.928  48.372  45.853  1.00  0.00    -0.284 N 
HETATM    7  C   UNL     1      17.866  49.134  45.369  1.00  0.00     0.331 A 
HETATM    8  O   UNL     1      17.330  48.953  44.282  1.00  0.00    -0.246 OA
HETATM    9  N   UNL     1      17.434  50.135  46.183  1.00  0.00    -0.275 N 
HETATM   10  C   UNL     1      17.951  50.446  47.392  1.00  0.00     0.262 A 
HETATM   11  O   UNL     1      17.538  51.367  48.073  1.00  0.00    -0.267 OA
HETATM   12  N   UNL     1      20.878  49.089  49.426  1.00  0.00    -0.347 N 
HETATM   13  H   UNL     1      21.451  49.272  50.255  1.00  0.00     0.162 HD
HETATM   14  H   UNL     1      20.947  47.127  46.926  1.00  0.00     0.169 HD
HETATM   15  H   UNL     1      16.666  50.697  45.833  1.00  0.00     0.173 HD
ENDROOT
BRANCH   1  16
HETATM   16  C   UNL     1      22.453  47.343  48.952  1.00  0.00     0.010 A 
HETATM   17  C   UNL     1      23.564  47.967  49.543  1.00  0.00     0.052 A 
HETATM   18  C   UNL     1      24.731  47.256  49.837  1.00  0.00     0.069 A 
HETATM   19  C   UNL     1      24.783  45.892  49.568  1.00  0.00     0.037 A 
HETATM   20  C   UNL     1      23.682  45.251  48.996  1.00  0.00     0.004 A 
HETATM   21  C   UNL     1      22.526  45.970  48.683  1.00  0.00     0.015 A 
BRANCH  18  22
HETATM   22  O   UNL     1      25.728  48.014  50.379  1.00  0.00    -0.356 OA
HETATM   23  C   UNL     1      26.783  48.414  49.509  1.00  0.00     0.210 C 
ENDBRANCH  18  22
ENDBRANCH   1  16
BRANCH   5  24
HETATM   24  C   UNL     1      18.639  49.501  50.354  1.00  0.00     0.426 C 
HETATM   25  F   UNL     1      17.642  50.425  50.434  1.00  0.00    -0.168 F 
HETATM   26  F   UNL     1      18.042  48.327  50.041  1.00  0.00    -0.168 F 
HETATM   27  F   UNL     1      19.175  49.393  51.575  1.00  0.00    -0.168 F 
ENDBRANCH   5  24
BRANCH   5  28
HETATM   28  C   UNL     1      19.988  51.378  49.540  1.00  0.00     0.426 C 
HETATM   29  F   UNL     1      20.447  51.972  48.411  1.00  0.00    -0.168 F 
HETATM   30  F   UNL     1      19.029  52.144  50.070  1.00  0.00    -0.168 F 
HETATM   31  F   UNL     1      21.032  51.384  50.416  1.00  0.00    -0.168 F 
ENDBRANCH   5  28
BRANCH   6  32
HETATM   32  C   UNL     1      19.369  47.289  44.964  1.00  0.00     0.140 C 
BRANCH  32  33
HETATM   33  C   UNL     1      19.094  45.900  45.556  1.00  0.00     0.059 C 
BRANCH  33  34
HETATM   34  C   UNL     1      20.336  45.049  45.653  1.00  0.00    -0.057 A 
HETATM   35  C   UNL     1      21.534  45.448  45.041  1.00  0.00     0.007 A 
HETATM   36  C   UNL     1      22.683  44.662  45.146  1.00  0.00     0.001 A 
HETATM   37  C   UNL     1      22.653  43.477  45.875  1.00  0.00     0.000 A 
HETATM   38  C   UNL     1      21.477  43.081  46.509  1.00  0.00     0.001 A 
HETATM   39  C   UNL     1      20.325  43.863  46.401  1.00  0.00     0.007 A 
ENDBRANCH  33  34
ENDBRANCH  32  33
ENDBRANCH   6  32
TORSDOF 7
ENDMDL
