MODEL 1
REMARK VINA RESULT:     -10.2      0.000      0.000
REMARK  6 active torsions:
REMARK  status: ('A' for Active; 'I' for Inactive)
REMARK    1  A    between atoms: C_2  and  O_3 
REMARK    2  A    between atoms: C_2  and  C_10 
REMARK    3  A    between atoms: O_3  and  C_4 
REMARK       I    between atoms: C_10  and  N_11 
REMARK    4  A    between atoms: N_11  and  C_12 
REMARK    5  A    between atoms: N_13  and  C_14 
REMARK    6  A    between atoms: C_26  and  C_27 
ROOT
HETATM    1  C   UNL     1      27.965  43.060  52.177  1.00  0.00     0.152 A 
HETATM    2  N   UNL     1      27.092  43.097  51.099  1.00  0.00    -0.044 N 
HETATM    3  N   UNL     1      27.108  41.942  50.371  1.00  0.00    -0.150 NA
HETATM    4  C   UNL     1      28.016  41.176  50.991  1.00  0.00     0.099 A 
HETATM    5  C   UNL     1      28.574  41.827  52.114  1.00  0.00     0.086 A 
ENDROOT
BRANCH   1   6
HETATM    6  N   UNL     1      28.104  44.128  53.056  1.00  0.00    -0.309 N 
HETATM    7  C   UNL     1      27.430  44.209  54.267  1.00  0.00     0.252 C 
HETATM    8  O   UNL     1      26.657  43.347  54.682  1.00  0.00    -0.270 OA
HETATM    9  H   UNL     1      28.830  44.807  52.826  1.00  0.00     0.170 HD
BRANCH   7  10
HETATM   10  C   UNL     1      27.715  45.520  55.054  1.00  0.00     0.217 C 
HETATM   11  C   UNL     1      26.947  46.705  54.467  1.00  0.00     0.050 C 
BRANCH  10  12
HETATM   12  O   UNL     1      29.091  45.910  55.005  1.00  0.00    -0.337 OA
BRANCH  12  13
HETATM   13  C   UNL     1      29.905  45.341  55.943  1.00  0.00     0.070 A 
HETATM   14  C   UNL     1      29.865  45.907  57.218  1.00  0.00     0.037 A 
HETATM   15  C   UNL     1      30.619  45.357  58.254  1.00  0.00     0.003 A 
HETATM   16  C   UNL     1      31.400  44.226  58.020  1.00  0.00     0.000 A 
HETATM   17  C   UNL     1      31.419  43.644  56.752  1.00  0.00     0.003 A 
HETATM   18  C   UNL     1      30.664  44.195  55.714  1.00  0.00     0.037 A 
ENDBRANCH  12  13
ENDBRANCH  10  12
ENDBRANCH   7  10
ENDBRANCH   1   6
BRANCH   2  19
HETATM   19  C   UNL     1      26.279  44.169  50.681  1.00  0.00     0.732 A 
HETATM   20  N   UNL     1      26.692  45.398  50.629  1.00  0.00    -0.067 NA
HETATM   21  C   UNL     1      25.782  46.322  50.159  1.00  0.00     0.065 A 
HETATM   22  C   UNL     1      24.529  46.019  49.765  1.00  0.00     0.036 A 
HETATM   23  C   UNL     1      26.298  47.741  50.075  1.00  0.00     0.060 C 
HETATM   24  C   UNL     1      23.535  47.017  49.246  1.00  0.00     0.046 C 
HETATM   25  C   UNL     1      24.095  44.603  49.844  1.00  0.00     0.268 A 
HETATM   26  C   UNL     1      23.960  48.467  49.489  1.00  0.00     0.005 C 
HETATM   27  C   UNL     1      25.443  48.659  49.197  1.00  0.00     0.006 C 
HETATM   28  O   UNL     1      22.981  44.237  49.492  1.00  0.00    -0.267 OA
HETATM   29  N   UNL     1      25.030  43.745  50.326  1.00  0.00    -0.152 N 
HETATM   30  H   UNL     1      24.806  42.756  50.391  1.00  0.00     0.188 HD
ENDBRANCH   2  19
BRANCH   4  31
HETATM   31  C   UNL     1      28.355  39.799  50.500  1.00  0.00     0.035 A 
HETATM   32  S   UNL     1      27.506  38.976  49.265  1.00  0.00    -0.100 SA
HETATM   33  C   UNL     1      28.522  37.605  49.389  1.00  0.00     0.050 A 
HETATM   34  C   UNL     1      29.491  37.767  50.354  1.00  0.00     0.008 A 
HETATM   35  C   UNL     1      29.396  39.038  50.996  1.00  0.00     0.022 A 
ENDBRANCH   4  31
TORSDOF 6
ENDMDL
MODEL 2
REMARK VINA RESULT:      -9.7      1.566      7.013
REMARK  6 active torsions:
REMARK  status: ('A' for Active; 'I' for Inactive)
REMARK    1  A    between atoms: C_2  and  O_3 
REMARK    2  A    between atoms: C_2  and  C_10 
REMARK    3  A    between atoms: O_3  and  C_4 
REMARK       I    between atoms: C_10  and  N_11 
REMARK    4  A    between atoms: N_11  and  C_12 
REMARK    5  A    between atoms: N_13  and  C_14 
REMARK    6  A    between atoms: C_26  and  C_27 
ROOT
HETATM    1  C   UNL     1      27.408  43.142  51.641  1.00  0.00     0.152 A 
HETATM    2  N   UNL     1      28.372  42.701  52.537  1.00  0.00    -0.044 N 
HETATM    3  N   UNL     1      28.834  41.452  52.236  1.00  0.00    -0.150 NA
HETATM    4  C   UNL     1      28.139  41.097  51.148  1.00  0.00     0.099 A 
HETATM    5  C   UNL     1      27.241  42.111  50.743  1.00  0.00     0.086 A 
ENDROOT
BRANCH   1   6
HETATM    6  N   UNL     1      26.805  44.389  51.755  1.00  0.00    -0.309 N 
HETATM    7  C   UNL     1      26.821  45.336  50.739  1.00  0.00     0.252 C 
HETATM    8  O   UNL     1      27.358  45.163  49.646  1.00  0.00    -0.270 OA
HETATM    9  H   UNL     1      26.234  44.539  52.586  1.00  0.00     0.170 HD
BRANCH   7  10
HETATM   10  C   UNL     1      26.119  46.672  51.119  1.00  0.00     0.217 C 
HETATM   11  C   UNL     1      25.610  46.648  52.561  1.00  0.00     0.050 C 
BRANCH  10  12
HETATM   12  O   UNL     1      24.960  46.937  50.321  1.00  0.00    -0.337 OA
BRANCH  12  13
HETATM   13  C   UNL     1      25.046  48.018  49.489  1.00  0.00     0.070 A 
HETATM   14  C   UNL     1      23.836  48.540  49.032  1.00  0.00     0.037 A 
HETATM   15  C   UNL     1      23.822  49.677  48.225  1.00  0.00     0.003 A 
HETATM   16  C   UNL     1      25.020  50.305  47.889  1.00  0.00     0.000 A 
HETATM   17  C   UNL     1      26.229  49.798  48.368  1.00  0.00     0.003 A 
HETATM   18  C   UNL     1      26.243  48.659  49.177  1.00  0.00     0.037 A 
ENDBRANCH  12  13
ENDBRANCH  10  12
ENDBRANCH   7  10
ENDBRANCH   1   6
BRANCH   2  19
HETATM   19  C   UNL     1      28.851  43.360  53.686  1.00  0.00     0.732 A 
HETATM   20  N   UNL     1      29.700  42.830  54.510  1.00  0.00    -0.067 NA
HETATM   21  C   UNL     1      30.097  43.625  55.564  1.00  0.00     0.065 A 
HETATM   22  C   UNL     1      29.660  44.883  55.771  1.00  0.00     0.036 A 
HETATM   23  C   UNL     1      31.114  42.997  56.491  1.00  0.00     0.060 C 
HETATM   24  C   UNL     1      30.093  45.758  56.912  1.00  0.00     0.046 C 
HETATM   25  C   UNL     1      28.686  45.452  54.809  1.00  0.00     0.268 A 
HETATM   26  C   UNL     1      30.844  44.991  58.003  1.00  0.00     0.005 C 
HETATM   27  C   UNL     1      31.831  44.002  57.395  1.00  0.00     0.006 C 
HETATM   28  O   UNL     1      28.250  46.591  54.911  1.00  0.00    -0.267 OA
HETATM   29  N   UNL     1      28.325  44.616  53.801  1.00  0.00    -0.152 N 
HETATM   30  H   UNL     1      27.674  44.947  53.095  1.00  0.00     0.188 HD
ENDBRANCH   2  19
BRANCH   4  31
HETATM   31  C   UNL     1      28.335  39.765  50.484  1.00  0.00     0.035 A 
HETATM   32  S   UNL     1      27.327  39.140  49.253  1.00  0.00    -0.100 SA
HETATM   33  C   UNL     1      28.249  37.704  49.135  1.00  0.00     0.050 A 
HETATM   34  C   UNL     1      29.305  37.696  50.018  1.00  0.00     0.008 A 
HETATM   35  C   UNL     1      29.357  38.891  50.797  1.00  0.00     0.022 A 
ENDBRANCH   4  31
TORSDOF 6
ENDMDL
MODEL 3
REMARK VINA RESULT:      -9.7      2.750      8.055
REMARK  6 active torsions:
REMARK  status: ('A' for Active; 'I' for Inactive)
REMARK    1  A    between atoms: C_2  and  O_3 
REMARK    2  A    between atoms: C_2  and  C_10 
REMARK    3  A    between atoms: O_3  and  C_4 
REMARK       I    between atoms: C_10  and  N_11 
REMARK    4  A    between atoms: N_11  and  C_12 
REMARK    5  A    between atoms: N_13  and  C_14 
REMARK    6  A    between atoms: C_26  and  C_27 
ROOT
HETATM    1  C   UNL     1      25.220  45.266  50.854  1.00  0.00     0.152 A 
HETATM    2  N   UNL     1      25.447  46.338  51.707  1.00  0.00    -0.044 N 
HETATM    3  N   UNL     1      24.912  47.503  51.239  1.00  0.00    -0.150 NA
HETATM    4  C   UNL     1      24.356  47.162  50.068  1.00  0.00     0.099 A 
HETATM    5  C   UNL     1      24.524  45.788  49.787  1.00  0.00     0.086 A 
ENDROOT
BRANCH   1   6
HETATM    6  N   UNL     1      25.673  43.983  51.138  1.00  0.00    -0.309 N 
HETATM    7  C   UNL     1      26.649  43.339  50.390  1.00  0.00     0.252 C 
HETATM    8  O   UNL     1      27.210  43.839  49.416  1.00  0.00    -0.270 OA
HETATM    9  H   UNL     1      25.340  43.571  52.010  1.00  0.00     0.170 HD
BRANCH   7  10
HETATM   10  C   UNL     1      26.956  41.893  50.875  1.00  0.00     0.217 C 
HETATM   11  C   UNL     1      27.446  41.878  52.323  1.00  0.00     0.050 C 
BRANCH  10  12
HETATM   12  O   UNL     1      28.000  41.265  50.124  1.00  0.00    -0.337 OA
BRANCH  12  13
HETATM   13  C   UNL     1      27.852  39.924  49.905  1.00  0.00     0.070 A 
HETATM   14  C   UNL     1      28.992  39.141  50.084  1.00  0.00     0.037 A 
HETATM   15  C   UNL     1      28.923  37.756  49.938  1.00  0.00     0.003 A 
HETATM   16  C   UNL     1      27.706  37.150  49.632  1.00  0.00     0.000 A 
HETATM   17  C   UNL     1      26.559  37.931  49.479  1.00  0.00     0.003 A 
HETATM   18  C   UNL     1      26.628  39.318  49.626  1.00  0.00     0.037 A 
ENDBRANCH  12  13
ENDBRANCH  10  12
ENDBRANCH   7  10
ENDBRANCH   1   6
BRANCH   2  19
HETATM   19  C   UNL     1      26.178  46.345  52.911  1.00  0.00     0.732 A 
HETATM   20  N   UNL     1      27.115  45.489  53.181  1.00  0.00    -0.067 NA
HETATM   21  C   UNL     1      27.760  45.660  54.388  1.00  0.00     0.065 A 
HETATM   22  C   UNL     1      27.474  46.638  55.269  1.00  0.00     0.036 A 
HETATM   23  C   UNL     1      28.871  44.671  54.664  1.00  0.00     0.060 C 
HETATM   24  C   UNL     1      28.175  46.835  56.582  1.00  0.00     0.046 C 
HETATM   25  C   UNL     1      26.393  47.593  54.925  1.00  0.00     0.268 A 
HETATM   26  C   UNL     1      29.044  45.640  56.980  1.00  0.00     0.005 C 
HETATM   27  C   UNL     1      29.820  45.104  55.784  1.00  0.00     0.006 C 
HETATM   28  O   UNL     1      26.078  48.522  55.659  1.00  0.00    -0.267 OA
HETATM   29  N   UNL     1      25.788  47.365  53.730  1.00  0.00    -0.152 N 
HETATM   30  H   UNL     1      25.050  47.992  53.423  1.00  0.00     0.188 HD
ENDBRANCH   2  19
BRANCH   4  31
HETATM   31  C   UNL     1      23.655  48.169  49.203  1.00  0.00     0.035 A 
HETATM   32  S   UNL     1      22.025  48.047  48.704  1.00  0.00    -0.100 SA
HETATM   33  C   UNL     1      22.113  49.515  47.830  1.00  0.00     0.050 A 
HETATM   34  C   UNL     1      23.361  50.090  47.913  1.00  0.00     0.008 A 
HETATM   35  C   UNL     1      24.253  49.312  48.710  1.00  0.00     0.022 A 
ENDBRANCH   4  31
TORSDOF 6
ENDMDL
MODEL 4
REMARK VINA RESULT:      -9.4      1.904      6.964
REMARK  6 active torsions:
REMARK  status: ('A' for Active; 'I' for Inactive)
REMARK    1  A    between atoms: C_2  and  O_3 
REMARK    2  A    between atoms: C_2  and  C_10 
REMARK    3  A    between atoms: O_3  and  C_4 
REMARK       I    between atoms: C_10  and  N_11 
REMARK    4  A    between atoms: N_11  and  C_12 
REMARK    5  A    between atoms: N_13  and  C_14 
REMARK    6  A    between atoms: C_26  and  C_27 
ROOT
HETATM    1  C   UNL     1      26.541  43.386  50.381  1.00  0.00     0.152 A 
HETATM    2  N   UNL     1      27.569  42.857  51.148  1.00  0.00    -0.044 N 
HETATM    3  N   UNL     1      27.989  41.640  50.695  1.00  0.00    -0.150 NA
HETATM    4  C   UNL     1      27.201  41.392  49.640  1.00  0.00     0.099 A 
HETATM    5  C   UNL     1      26.286  42.445  49.409  1.00  0.00     0.086 A 
ENDROOT
BRANCH   1   6
HETATM    6  N   UNL     1      25.966  44.620  50.660  1.00  0.00    -0.309 N 
HETATM    7  C   UNL     1      26.387  45.805  50.071  1.00  0.00     0.252 C 
HETATM    8  O   UNL     1      27.297  45.877  49.246  1.00  0.00    -0.270 OA
HETATM    9  H   UNL     1      25.124  44.605  51.236  1.00  0.00     0.170 HD
BRANCH   7  10
HETATM   10  C   UNL     1      25.622  47.061  50.577  1.00  0.00     0.217 C 
HETATM   11  C   UNL     1      25.488  47.062  52.100  1.00  0.00     0.050 C 
BRANCH  10  12
HETATM   12  O   UNL     1      24.278  47.128  50.087  1.00  0.00    -0.337 OA
BRANCH  12  13
HETATM   13  C   UNL     1      23.954  48.257  49.390  1.00  0.00     0.070 A 
HETATM   14  C   UNL     1      25.023  49.007  48.901  1.00  0.00     0.037 A 
HETATM   15  C   UNL     1      24.789  50.145  48.130  1.00  0.00     0.003 A 
HETATM   16  C   UNL     1      23.480  50.523  47.831  1.00  0.00     0.000 A 
HETATM   17  C   UNL     1      22.411  49.758  48.299  1.00  0.00     0.003 A 
HETATM   18  C   UNL     1      22.646  48.619  49.071  1.00  0.00     0.037 A 
ENDBRANCH  12  13
ENDBRANCH  10  12
ENDBRANCH   7  10
ENDBRANCH   1   6
BRANCH   2  19
HETATM   19  C   UNL     1      28.151  43.404  52.310  1.00  0.00     0.732 A 
HETATM   20  N   UNL     1      27.634  44.396  52.966  1.00  0.00    -0.067 NA
HETATM   21  C   UNL     1      28.308  44.784  54.105  1.00  0.00     0.065 A 
HETATM   22  C   UNL     1      29.438  44.202  54.552  1.00  0.00     0.036 A 
HETATM   23  C   UNL     1      27.666  45.919  54.871  1.00  0.00     0.060 C 
HETATM   24  C   UNL     1      30.175  44.614  55.793  1.00  0.00     0.046 C 
HETATM   25  C   UNL     1      30.000  43.074  53.770  1.00  0.00     0.268 A 
HETATM   26  C   UNL     1      29.703  45.959  56.350  1.00  0.00     0.005 C 
HETATM   27  C   UNL     1      28.183  46.067  56.304  1.00  0.00     0.006 C 
HETATM   28  O   UNL     1      31.013  42.478  54.112  1.00  0.00    -0.267 OA
HETATM   29  N   UNL     1      29.298  42.748  52.654  1.00  0.00    -0.152 N 
HETATM   30  H   UNL     1      29.617  41.972  52.080  1.00  0.00     0.188 HD
ENDBRANCH   2  19
BRANCH   4  31
HETATM   31  C   UNL     1      27.323  40.127  48.842  1.00  0.00     0.035 A 
HETATM   32  S   UNL     1      26.324  39.719  47.516  1.00  0.00    -0.100 SA
HETATM   33  C   UNL     1      27.138  38.235  47.274  1.00  0.00     0.050 A 
HETATM   34  C   UNL     1      28.153  38.049  48.186  1.00  0.00     0.008 A 
HETATM   35  C   UNL     1      28.262  39.146  49.092  1.00  0.00     0.022 A 
ENDBRANCH   4  31
TORSDOF 6
ENDMDL
MODEL 5
REMARK VINA RESULT:      -9.3      2.537      7.548
REMARK  6 active torsions:
REMARK  status: ('A' for Active; 'I' for Inactive)
REMARK    1  A    between atoms: C_2  and  O_3 
REMARK    2  A    between atoms: C_2  and  C_10 
REMARK    3  A    between atoms: O_3  and  C_4 
REMARK       I    between atoms: C_10  and  N_11 
REMARK    4  A    between atoms: N_11  and  C_12 
REMARK    5  A    between atoms: N_13  and  C_14 
REMARK    6  A    between atoms: C_26  and  C_27 
ROOT
HETATM    1  C   UNL     1      27.521  43.295  52.421  1.00  0.00     0.152 A 
HETATM    2  N   UNL     1      28.395  42.219  52.358  1.00  0.00    -0.044 N 
HETATM    3  N   UNL     1      29.334  42.247  53.348  1.00  0.00    -0.150 NA
HETATM    4  C   UNL     1      29.057  43.366  54.031  1.00  0.00     0.099 A 
HETATM    5  C   UNL     1      27.943  44.049  53.493  1.00  0.00     0.086 A 
ENDROOT
BRANCH   1   6
HETATM    6  N   UNL     1      26.482  43.461  51.512  1.00  0.00    -0.309 N 
HETATM    7  C   UNL     1      25.201  43.847  51.885  1.00  0.00     0.252 C 
HETATM    8  O   UNL     1      24.865  44.086  53.043  1.00  0.00    -0.270 OA
HETATM    9  H   UNL     1      26.734  43.404  50.526  1.00  0.00     0.170 HD
BRANCH   7  10
HETATM   10  C   UNL     1      24.200  43.920  50.696  1.00  0.00     0.217 C 
HETATM   11  C   UNL     1      23.746  42.527  50.258  1.00  0.00     0.050 C 
BRANCH  10  12
HETATM   12  O   UNL     1      24.772  44.509  49.524  1.00  0.00    -0.337 OA
BRANCH  12  13
HETATM   13  C   UNL     1      24.888  45.870  49.537  1.00  0.00     0.070 A 
HETATM   14  C   UNL     1      26.183  46.378  49.636  1.00  0.00     0.037 A 
HETATM   15  C   UNL     1      26.403  47.754  49.600  1.00  0.00     0.003 A 
HETATM   16  C   UNL     1      25.326  48.626  49.447  1.00  0.00     0.000 A 
HETATM   17  C   UNL     1      24.032  48.117  49.322  1.00  0.00     0.003 A 
HETATM   18  C   UNL     1      23.812  46.738  49.357  1.00  0.00     0.037 A 
ENDBRANCH  12  13
ENDBRANCH  10  12
ENDBRANCH   7  10
ENDBRANCH   1   6
BRANCH   2  19
HETATM   19  C   UNL     1      28.432  41.190  51.396  1.00  0.00     0.732 A 
HETATM   20  N   UNL     1      27.903  41.297  50.216  1.00  0.00    -0.067 NA
HETATM   21  C   UNL     1      28.063  40.212  49.381  1.00  0.00     0.065 A 
HETATM   22  C   UNL     1      28.720  39.086  49.718  1.00  0.00     0.036 A 
HETATM   23  C   UNL     1      27.467  40.376  48.000  1.00  0.00     0.060 C 
HETATM   24  C   UNL     1      28.905  37.903  48.812  1.00  0.00     0.046 C 
HETATM   25  C   UNL     1      29.308  39.001  51.078  1.00  0.00     0.268 A 
HETATM   26  C   UNL     1      28.016  37.958  47.569  1.00  0.00     0.005 C 
HETATM   27  C   UNL     1      27.987  39.362  46.978  1.00  0.00     0.006 C 
HETATM   28  O   UNL     1      29.935  38.022  51.462  1.00  0.00    -0.267 OA
HETATM   29  N   UNL     1      29.105  40.095  51.857  1.00  0.00    -0.152 N 
HETATM   30  H   UNL     1      29.496  40.111  52.795  1.00  0.00     0.188 HD
ENDBRANCH   2  19
BRANCH   4  31
HETATM   31  C   UNL     1      29.872  43.790  55.218  1.00  0.00     0.035 A 
HETATM   32  S   UNL     1      29.702  45.288  56.023  1.00  0.00    -0.100 SA
HETATM   33  C   UNL     1      30.940  44.904  57.140  1.00  0.00     0.050 A 
HETATM   34  C   UNL     1      31.477  43.658  56.905  1.00  0.00     0.008 A 
HETATM   35  C   UNL     1      30.857  43.012  55.795  1.00  0.00     0.022 A 
ENDBRANCH   4  31
TORSDOF 6
ENDMDL
MODEL 6
REMARK VINA RESULT:      -9.1      3.926      8.041
REMARK  6 active torsions:
REMARK  status: ('A' for Active; 'I' for Inactive)
REMARK    1  A    between atoms: C_2  and  O_3 
REMARK    2  A    between atoms: C_2  and  C_10 
REMARK    3  A    between atoms: O_3  and  C_4 
REMARK       I    between atoms: C_10  and  N_11 
REMARK    4  A    between atoms: N_11  and  C_12 
REMARK    5  A    between atoms: N_13  and  C_14 
REMARK    6  A    between atoms: C_26  and  C_27 
ROOT
HETATM    1  C   UNL     1      25.045  45.209  51.681  1.00  0.00     0.152 A 
HETATM    2  N   UNL     1      25.542  46.489  51.478  1.00  0.00    -0.044 N 
HETATM    3  N   UNL     1      26.544  46.806  52.349  1.00  0.00    -0.150 NA
HETATM    4  C   UNL     1      26.665  45.717  53.121  1.00  0.00     0.099 A 
HETATM    5  C   UNL     1      25.755  44.703  52.746  1.00  0.00     0.086 A 
ENDROOT
BRANCH   1   6
HETATM    6  N   UNL     1      24.023  44.678  50.901  1.00  0.00    -0.309 N 
HETATM    7  C   UNL     1      24.254  43.912  49.766  1.00  0.00     0.252 C 
HETATM    8  O   UNL     1      25.374  43.623  49.348  1.00  0.00    -0.270 OA
HETATM    9  H   UNL     1      23.078  44.774  51.272  1.00  0.00     0.170 HD
BRANCH   7  10
HETATM   10  C   UNL     1      22.953  43.470  49.036  1.00  0.00     0.217 C 
HETATM   11  C   UNL     1      22.936  41.962  48.782  1.00  0.00     0.050 C 
BRANCH  10  12
HETATM   12  O   UNL     1      22.813  44.065  47.741  1.00  0.00    -0.337 OA
BRANCH  12  13
HETATM   13  C   UNL     1      21.830  45.006  47.623  1.00  0.00     0.070 A 
HETATM   14  C   UNL     1      20.876  45.032  48.640  1.00  0.00     0.037 A 
HETATM   15  C   UNL     1      19.868  45.995  48.633  1.00  0.00     0.003 A 
HETATM   16  C   UNL     1      19.824  46.947  47.615  1.00  0.00     0.000 A 
HETATM   17  C   UNL     1      20.794  46.938  46.612  1.00  0.00     0.003 A 
HETATM   18  C   UNL     1      21.804  45.973  46.619  1.00  0.00     0.037 A 
ENDBRANCH  12  13
ENDBRANCH  10  12
ENDBRANCH   7  10
ENDBRANCH   1   6
BRANCH   2  19
HETATM   19  C   UNL     1      25.102  47.451  50.547  1.00  0.00     0.732 A 
HETATM   20  N   UNL     1      23.852  47.744  50.363  1.00  0.00    -0.067 NA
HETATM   21  C   UNL     1      23.593  48.737  49.442  1.00  0.00     0.065 A 
HETATM   22  C   UNL     1      24.544  49.395  48.750  1.00  0.00     0.036 A 
HETATM   23  C   UNL     1      22.131  49.085  49.271  1.00  0.00     0.060 C 
HETATM   24  C   UNL     1      24.271  50.482  47.751  1.00  0.00     0.046 C 
HETATM   25  C   UNL     1      25.961  49.027  48.986  1.00  0.00     0.268 A 
HETATM   26  C   UNL     1      22.797  50.574  47.354  1.00  0.00     0.005 C 
HETATM   27  C   UNL     1      21.892  50.425  48.571  1.00  0.00     0.006 C 
HETATM   28  O   UNL     1      26.889  49.584  48.413  1.00  0.00    -0.267 OA
HETATM   29  N   UNL     1      26.150  48.034  49.894  1.00  0.00    -0.152 N 
HETATM   30  H   UNL     1      27.097  47.744  50.118  1.00  0.00     0.188 HD
ENDBRANCH   2  19
BRANCH   4  31
HETATM   31  C   UNL     1      27.666  45.646  54.237  1.00  0.00     0.035 A 
HETATM   32  S   UNL     1      27.854  46.841  55.445  1.00  0.00    -0.100 SA
HETATM   33  C   UNL     1      29.118  45.972  56.202  1.00  0.00     0.050 A 
HETATM   34  C   UNL     1      29.397  44.793  55.547  1.00  0.00     0.008 A 
HETATM   35  C   UNL     1      28.555  44.603  54.411  1.00  0.00     0.022 A 
ENDBRANCH   4  31
TORSDOF 6
ENDMDL
MODEL 7
REMARK VINA RESULT:      -9.1      3.114      8.435
REMARK  6 active torsions:
REMARK  status: ('A' for Active; 'I' for Inactive)
REMARK    1  A    between atoms: C_2  and  O_3 
REMARK    2  A    between atoms: C_2  and  C_10 
REMARK    3  A    between atoms: O_3  and  C_4 
REMARK       I    between atoms: C_10  and  N_11 
REMARK    4  A    between atoms: N_11  and  C_12 
REMARK    5  A    between atoms: N_13  and  C_14 
REMARK    6  A    between atoms: C_26  and  C_27 
ROOT
HETATM    1  C   UNL     1      24.235  45.664  49.158  1.00  0.00     0.152 A 
HETATM    2  N   UNL     1      24.694  46.263  50.323  1.00  0.00    -0.044 N 
HETATM    3  N   UNL     1      24.274  47.556  50.449  1.00  0.00    -0.150 NA
HETATM    4  C   UNL     1      23.557  47.777  49.339  1.00  0.00     0.099 A 
HETATM    5  C   UNL     1      23.507  46.635  48.508  1.00  0.00     0.086 A 
ENDROOT
BRANCH   1   6
HETATM    6  N   UNL     1      24.539  44.348  48.831  1.00  0.00    -0.309 N 
HETATM    7  C   UNL     1      23.591  43.333  48.808  1.00  0.00     0.252 C 
HETATM    8  O   UNL     1      22.399  43.499  49.063  1.00  0.00    -0.270 OA
HETATM    9  H   UNL     1      25.482  44.176  48.485  1.00  0.00     0.170 HD
BRANCH   7  10
HETATM   10  C   UNL     1      24.179  41.936  48.458  1.00  0.00     0.217 C 
HETATM   11  C   UNL     1      23.087  40.959  48.023  1.00  0.00     0.050 C 
BRANCH  10  12
HETATM   12  O   UNL     1      24.816  41.306  49.575  1.00  0.00    -0.337 OA
BRANCH  12  13
HETATM   13  C   UNL     1      26.084  40.847  49.356  1.00  0.00     0.070 A 
HETATM   14  C   UNL     1      26.710  41.297  48.194  1.00  0.00     0.037 A 
HETATM   15  C   UNL     1      28.025  40.927  47.916  1.00  0.00     0.003 A 
HETATM   16  C   UNL     1      28.723  40.119  48.813  1.00  0.00     0.000 A 
HETATM   17  C   UNL     1      28.106  39.690  49.989  1.00  0.00     0.003 A 
HETATM   18  C   UNL     1      26.788  40.061  50.267  1.00  0.00     0.037 A 
ENDBRANCH  12  13
ENDBRANCH  10  12
ENDBRANCH   7  10
ENDBRANCH   1   6
BRANCH   2  19
HETATM   19  C   UNL     1      25.542  45.710  51.303  1.00  0.00     0.732 A 
HETATM   20  N   UNL     1      26.403  44.772  51.054  1.00  0.00    -0.067 NA
HETATM   21  C   UNL     1      27.184  44.371  52.117  1.00  0.00     0.065 A 
HETATM   22  C   UNL     1      27.100  44.889  53.358  1.00  0.00     0.036 A 
HETATM   23  C   UNL     1      28.203  43.301  51.793  1.00  0.00     0.060 C 
HETATM   24  C   UNL     1      27.951  44.463  54.519  1.00  0.00     0.046 C 
HETATM   25  C   UNL     1      26.100  45.957  53.603  1.00  0.00     0.268 A 
HETATM   26  C   UNL     1      28.720  43.168  54.253  1.00  0.00     0.005 C 
HETATM   27  C   UNL     1      29.305  43.157  52.845  1.00  0.00     0.006 C 
HETATM   28  O   UNL     1      25.967  46.495  54.695  1.00  0.00    -0.267 OA
HETATM   29  N   UNL     1      25.353  46.299  52.521  1.00  0.00    -0.152 N 
HETATM   30  H   UNL     1      24.661  47.037  52.613  1.00  0.00     0.188 HD
ENDBRANCH   2  19
BRANCH   4  31
HETATM   31  C   UNL     1      22.910  49.105  49.068  1.00  0.00     0.035 A 
HETATM   32  S   UNL     1      21.226  49.390  49.127  1.00  0.00    -0.100 SA
HETATM   33  C   UNL     1      21.423  51.037  48.711  1.00  0.00     0.050 A 
HETATM   34  C   UNL     1      22.747  51.368  48.527  1.00  0.00     0.008 A 
HETATM   35  C   UNL     1      23.608  50.249  48.736  1.00  0.00     0.022 A 
ENDBRANCH   4  31
TORSDOF 6
ENDMDL
MODEL 8
REMARK VINA RESULT:      -9.0      3.214      8.153
REMARK  6 active torsions:
REMARK  status: ('A' for Active; 'I' for Inactive)
REMARK    1  A    between atoms: C_2  and  O_3 
REMARK    2  A    between atoms: C_2  and  C_10 
REMARK    3  A    between atoms: O_3  and  C_4 
REMARK       I    between atoms: C_10  and  N_11 
REMARK    4  A    between atoms: N_11  and  C_12 
REMARK    5  A    between atoms: N_13  and  C_14 
REMARK    6  A    between atoms: C_26  and  C_27 
ROOT
HETATM    1  C   UNL     1      25.942  46.503  52.037  1.00  0.00     0.152 A 
HETATM    2  N   UNL     1      26.175  45.137  51.966  1.00  0.00    -0.044 N 
HETATM    3  N   UNL     1      26.961  44.685  52.987  1.00  0.00    -0.150 NA
HETATM    4  C   UNL     1      27.239  45.786  53.699  1.00  0.00     0.099 A 
HETATM    5  C   UNL     1      26.632  46.936  53.147  1.00  0.00     0.086 A 
ENDROOT
BRANCH   1   6
HETATM    6  N   UNL     1      25.162  47.173  51.101  1.00  0.00    -0.309 N 
HETATM    7  C   UNL     1      25.698  47.888  50.038  1.00  0.00     0.252 C 
HETATM    8  O   UNL     1      26.903  47.990  49.816  1.00  0.00    -0.270 OA
HETATM    9  H   UNL     1      24.156  47.015  51.158  1.00  0.00     0.170 HD
BRANCH   7  10
HETATM   10  C   UNL     1      24.627  48.588  49.153  1.00  0.00     0.217 C 
HETATM   11  C   UNL     1      25.229  49.738  48.346  1.00  0.00     0.050 C 
BRANCH  10  12
HETATM   12  O   UNL     1      23.576  49.185  49.921  1.00  0.00    -0.337 OA
BRANCH  12  13
HETATM   13  C   UNL     1      22.447  49.518  49.227  1.00  0.00     0.070 A 
HETATM   14  C   UNL     1      22.037  50.848  49.319  1.00  0.00     0.037 A 
HETATM   15  C   UNL     1      20.928  51.293  48.600  1.00  0.00     0.003 A 
HETATM   16  C   UNL     1      20.239  50.409  47.769  1.00  0.00     0.000 A 
HETATM   17  C   UNL     1      20.666  49.085  47.656  1.00  0.00     0.003 A 
HETATM   18  C   UNL     1      21.776  48.640  48.376  1.00  0.00     0.037 A 
ENDBRANCH  12  13
ENDBRANCH  10  12
ENDBRANCH   7  10
ENDBRANCH   1   6
BRANCH   2  19
HETATM   19  C   UNL     1      25.744  44.237  50.971  1.00  0.00     0.732 A 
HETATM   20  N   UNL     1      24.499  44.076  50.646  1.00  0.00    -0.067 NA
HETATM   21  C   UNL     1      24.251  43.185  49.624  1.00  0.00     0.065 A 
HETATM   22  C   UNL     1      25.208  42.497  48.969  1.00  0.00     0.036 A 
HETATM   23  C   UNL     1      22.795  43.041  49.240  1.00  0.00     0.060 C 
HETATM   24  C   UNL     1      24.947  41.530  47.851  1.00  0.00     0.046 C 
HETATM   25  C   UNL     1      26.619  42.706  49.374  1.00  0.00     0.268 A 
HETATM   26  C   UNL     1      23.470  41.154  47.717  1.00  0.00     0.005 C 
HETATM   27  C   UNL     1      22.577  42.379  47.878  1.00  0.00     0.006 C 
HETATM   28  O   UNL     1      27.552  42.136  48.822  1.00  0.00    -0.267 OA
HETATM   29  N   UNL     1      26.797  43.586  50.393  1.00  0.00    -0.152 N 
HETATM   30  H   UNL     1      27.740  43.790  50.710  1.00  0.00     0.188 HD
ENDBRANCH   2  19
BRANCH   4  31
HETATM   31  C   UNL     1      28.102  45.736  54.926  1.00  0.00     0.035 A 
HETATM   32  S   UNL     1      29.420  44.667  55.138  1.00  0.00    -0.100 SA
HETATM   33  C   UNL     1      29.757  45.287  56.697  1.00  0.00     0.050 A 
HETATM   34  C   UNL     1      28.882  46.289  57.053  1.00  0.00     0.008 A 
HETATM   35  C   UNL     1      27.926  46.551  56.026  1.00  0.00     0.022 A 
ENDBRANCH   4  31
TORSDOF 6
ENDMDL
MODEL 9
REMARK VINA RESULT:      -9.0      3.182      8.167
REMARK  6 active torsions:
REMARK  status: ('A' for Active; 'I' for Inactive)
REMARK    1  A    between atoms: C_2  and  O_3 
REMARK    2  A    between atoms: C_2  and  C_10 
REMARK    3  A    between atoms: O_3  and  C_4 
REMARK       I    between atoms: C_10  and  N_11 
REMARK    4  A    between atoms: N_11  and  C_12 
REMARK    5  A    between atoms: N_13  and  C_14 
REMARK    6  A    between atoms: C_26  and  C_27 
ROOT
HETATM    1  C   UNL     1      27.161  43.444  51.831  1.00  0.00     0.152 A 
HETATM    2  N   UNL     1      28.054  42.387  51.729  1.00  0.00    -0.044 N 
HETATM    3  N   UNL     1      28.995  42.397  52.718  1.00  0.00    -0.150 NA
HETATM    4  C   UNL     1      28.698  43.486  53.441  1.00  0.00     0.099 A 
HETATM    5  C   UNL     1      27.572  44.167  52.928  1.00  0.00     0.086 A 
ENDROOT
BRANCH   1   6
HETATM    6  N   UNL     1      26.118  43.624  50.930  1.00  0.00    -0.309 N 
HETATM    7  C   UNL     1      26.175  44.520  49.870  1.00  0.00     0.252 C 
HETATM    8  O   UNL     1      27.148  45.229  49.622  1.00  0.00    -0.270 OA
HETATM    9  H   UNL     1      25.338  42.970  51.007  1.00  0.00     0.170 HD
BRANCH   7  10
HETATM   10  C   UNL     1      24.868  44.575  49.028  1.00  0.00     0.217 C 
HETATM   11  C   UNL     1      23.994  45.766  49.426  1.00  0.00     0.050 C 
BRANCH  10  12
HETATM   12  O   UNL     1      24.036  43.426  49.217  1.00  0.00    -0.337 OA
BRANCH  12  13
HETATM   13  C   UNL     1      23.920  42.592  48.141  1.00  0.00     0.070 A 
HETATM   14  C   UNL     1      23.916  41.225  48.418  1.00  0.00     0.037 A 
HETATM   15  C   UNL     1      23.745  40.300  47.389  1.00  0.00     0.003 A 
HETATM   16  C   UNL     1      23.558  40.744  46.080  1.00  0.00     0.000 A 
HETATM   17  C   UNL     1      23.535  42.112  45.807  1.00  0.00     0.003 A 
HETATM   18  C   UNL     1      23.706  43.039  46.838  1.00  0.00     0.037 A 
ENDBRANCH  12  13
ENDBRANCH  10  12
ENDBRANCH   7  10
ENDBRANCH   1   6
BRANCH   2  19
HETATM   19  C   UNL     1      28.108  41.394  50.730  1.00  0.00     0.732 A 
HETATM   20  N   UNL     1      27.673  41.574  49.521  1.00  0.00    -0.067 NA
HETATM   21  C   UNL     1      27.837  40.513  48.656  1.00  0.00     0.065 A 
HETATM   22  C   UNL     1      28.408  39.341  48.993  1.00  0.00     0.036 A 
HETATM   23  C   UNL     1      27.353  40.761  47.244  1.00  0.00     0.060 C 
HETATM   24  C   UNL     1      28.597  38.184  48.055  1.00  0.00     0.046 C 
HETATM   25  C   UNL     1      28.889  39.173  50.386  1.00  0.00     0.268 A 
HETATM   26  C   UNL     1      27.806  38.333  46.754  1.00  0.00     0.005 C 
HETATM   27  C   UNL     1      27.893  39.759  46.221  1.00  0.00     0.006 C 
HETATM   28  O   UNL     1      29.435  38.148  50.774  1.00  0.00    -0.267 OA
HETATM   29  N   UNL     1      28.688  40.247  51.193  1.00  0.00    -0.152 N 
HETATM   30  H   UNL     1      29.009  40.208  52.156  1.00  0.00     0.188 HD
ENDBRANCH   2  19
BRANCH   4  31
HETATM   31  C   UNL     1      29.508  43.881  54.642  1.00  0.00     0.035 A 
HETATM   32  S   UNL     1      29.278  45.323  55.531  1.00  0.00    -0.100 SA
HETATM   33  C   UNL     1      30.547  44.937  56.611  1.00  0.00     0.050 A 
HETATM   34  C   UNL     1      31.139  43.733  56.302  1.00  0.00     0.008 A 
HETATM   35  C   UNL     1      30.535  43.120  55.164  1.00  0.00     0.022 A 
ENDBRANCH   4  31
TORSDOF 6
ENDMDL
MODEL 10
REMARK VINA RESULT:      -8.9      2.633      7.976
REMARK  6 active torsions:
REMARK  status: ('A' for Active; 'I' for Inactive)
REMARK    1  A    between atoms: C_2  and  O_3 
REMARK    2  A    between atoms: C_2  and  C_10 
REMARK    3  A    between atoms: O_3  and  C_4 
REMARK       I    between atoms: C_10  and  N_11 
REMARK    4  A    between atoms: N_11  and  C_12 
REMARK    5  A    between atoms: N_13  and  C_14 
REMARK    6  A    between atoms: C_26  and  C_27 
ROOT
HETATM    1  C   UNL     1      27.047  45.018  53.037  1.00  0.00     0.152 A 
HETATM    2  N   UNL     1      27.788  43.845  53.010  1.00  0.00    -0.044 N 
HETATM    3  N   UNL     1      28.653  43.748  54.061  1.00  0.00    -0.150 NA
HETATM    4  C   UNL     1      28.466  44.884  54.747  1.00  0.00     0.099 A 
HETATM    5  C   UNL     1      27.482  45.703  54.149  1.00  0.00     0.086 A 
ENDROOT
BRANCH   1   6
HETATM    6  N   UNL     1      26.101  45.320  52.064  1.00  0.00    -0.309 N 
HETATM    7  C   UNL     1      25.715  46.619  51.756  1.00  0.00     0.252 C 
HETATM    8  O   UNL     1      26.174  47.620  52.303  1.00  0.00    -0.270 OA
HETATM    9  H   UNL     1      25.782  44.541  51.488  1.00  0.00     0.170 HD
BRANCH   7  10
HETATM   10  C   UNL     1      24.608  46.699  50.666  1.00  0.00     0.217 C 
HETATM   11  C   UNL     1      24.259  45.316  50.116  1.00  0.00     0.050 C 
BRANCH  10  12
HETATM   12  O   UNL     1      25.009  47.462  49.523  1.00  0.00    -0.337 OA
BRANCH  12  13
HETATM   13  C   UNL     1      24.158  48.461  49.145  1.00  0.00     0.070 A 
HETATM   14  C   UNL     1      24.742  49.570  48.532  1.00  0.00     0.037 A 
HETATM   15  C   UNL     1      23.946  50.614  48.063  1.00  0.00     0.003 A 
HETATM   16  C   UNL     1      22.559  50.540  48.189  1.00  0.00     0.000 A 
HETATM   17  C   UNL     1      21.973  49.419  48.778  1.00  0.00     0.003 A 
HETATM   18  C   UNL     1      22.770  48.373  49.248  1.00  0.00     0.037 A 
ENDBRANCH  12  13
ENDBRANCH  10  12
ENDBRANCH   7  10
ENDBRANCH   1   6
BRANCH   2  19
HETATM   19  C   UNL     1      27.768  42.831  52.032  1.00  0.00     0.732 A 
HETATM   20  N   UNL     1      27.188  42.965  50.879  1.00  0.00    -0.067 NA
HETATM   21  C   UNL     1      27.296  41.891  50.020  1.00  0.00     0.065 A 
HETATM   22  C   UNL     1      27.950  40.750  50.312  1.00  0.00     0.036 A 
HETATM   23  C   UNL     1      26.642  42.085  48.670  1.00  0.00     0.060 C 
HETATM   24  C   UNL     1      28.077  39.579  49.381  1.00  0.00     0.046 C 
HETATM   25  C   UNL     1      28.595  40.635  51.642  1.00  0.00     0.268 A 
HETATM   26  C   UNL     1      27.135  39.666  48.178  1.00  0.00     0.005 C 
HETATM   27  C   UNL     1      27.101  41.080  47.611  1.00  0.00     0.006 C 
HETATM   28  O   UNL     1      29.224  39.642  51.984  1.00  0.00    -0.267 OA
HETATM   29  N   UNL     1      28.444  41.719  52.446  1.00  0.00    -0.152 N 
HETATM   30  H   UNL     1      28.875  41.716  53.366  1.00  0.00     0.188 HD
ENDBRANCH   2  19
BRANCH   4  31
HETATM   31  C   UNL     1      29.242  45.190  55.995  1.00  0.00     0.035 A 
HETATM   32  S   UNL     1      30.746  44.484  56.396  1.00  0.00    -0.100 SA
HETATM   33  C   UNL     1      30.843  45.363  57.861  1.00  0.00     0.050 A 
HETATM   34  C   UNL     1      29.749  46.179  58.045  1.00  0.00     0.008 A 
HETATM   35  C   UNL     1      28.824  46.081  56.964  1.00  0.00     0.022 A 
ENDBRANCH   4  31
TORSDOF 6
ENDMDL
