MODEL 1
REMARK VINA RESULT:      -9.1      0.000      0.000
REMARK  2 active torsions:
REMARK  status: ('A' for Active; 'I' for Inactive)
REMARK    1  A    between atoms: C_8  and  C_9 
REMARK       I    between atoms: N_10  and  C_11 
REMARK    2  A    between atoms: C_11  and  C_12 
ROOT
HETATM    1  C   UNL     1      26.919  44.867  52.100  1.00  0.00     0.124 C 
HETATM    2  N   UNL     1      26.281  46.035  51.497  1.00  0.00    -0.339 N 
HETATM    3  C   UNL     1      26.530  46.367  50.179  1.00  0.00     0.260 C 
HETATM    4  O   UNL     1      27.238  45.694  49.432  1.00  0.00    -0.267 OA
HETATM    5  C   UNL     1      25.712  46.899  52.524  1.00  0.00     0.127 C 
HETATM    6  C   UNL     1      26.473  46.519  53.784  1.00  0.00     0.022 C 
HETATM    7  C   UNL     1      26.685  45.023  53.610  1.00  0.00     0.032 C 
ENDROOT
BRANCH   1   8
HETATM    8  C   UNL     1      26.360  43.575  51.578  1.00  0.00     0.014 A 
HETATM    9  C   UNL     1      27.023  42.359  51.511  1.00  0.00     0.034 A 
HETATM   10  C   UNL     1      28.402  41.966  51.883  1.00  0.00     0.070 C 
HETATM   11  N   UNL     1      26.137  41.469  50.975  1.00  0.00    -0.282 N 
HETATM   12  H   UNL     1      26.284  40.488  50.764  1.00  0.00     0.189 HD
HETATM   13  N   UNL     1      24.932  41.993  50.728  1.00  0.00    -0.179 NA
HETATM   14  C   UNL     1      25.054  43.279  51.079  1.00  0.00     0.061 A 
HETATM   15  C   UNL     1      23.886  44.181  50.925  1.00  0.00     0.073 C 
ENDBRANCH   1   8
BRANCH   3  16
HETATM   16  C   UNL     1      25.815  47.538  49.625  1.00  0.00     0.108 A 
HETATM   17  C   UNL     1      26.537  48.729  49.148  1.00  0.00     0.304 A 
HETATM   18  O   UNL     1      27.759  48.826  49.206  1.00  0.00    -0.259 OA
HETATM   19  O   UNL     1      25.756  49.778  48.665  1.00  0.00    -0.274 OA
HETATM   20  C   UNL     1      24.359  49.663  48.550  1.00  0.00     0.089 A 
HETATM   21  C   UNL     1      23.704  48.498  48.943  1.00  0.00    -0.001 A 
HETATM   22  C   UNL     1      23.667  50.748  48.018  1.00  0.00     0.038 A 
HETATM   23  C   UNL     1      22.320  48.414  48.780  1.00  0.00     0.014 A 
HETATM   24  C   UNL     1      24.485  47.412  49.511  1.00  0.00     0.037 A 
HETATM   25  C   UNL     1      21.613  49.493  48.239  1.00  0.00     0.001 A 
HETATM   26  C   UNL     1      22.285  50.659  47.862  1.00  0.00     0.003 A 
ENDBRANCH   3  16
TORSDOF 2
ENDMDL
MODEL 2
REMARK VINA RESULT:      -9.0     10.453     12.925
REMARK  2 active torsions:
REMARK  status: ('A' for Active; 'I' for Inactive)
REMARK    1  A    between atoms: C_8  and  C_9 
REMARK       I    between atoms: N_10  and  C_11 
REMARK    2  A    between atoms: C_11  and  C_12 
ROOT
HETATM    1  C   UNL     1      29.447  50.307  41.355  1.00  0.00     0.124 C 
HETATM    2  N   UNL     1      30.708  50.909  41.784  1.00  0.00    -0.339 N 
HETATM    3  C   UNL     1      31.589  50.197  42.575  1.00  0.00     0.260 C 
HETATM    4  O   UNL     1      31.405  49.030  42.916  1.00  0.00    -0.267 OA
HETATM    5  C   UNL     1      30.688  52.351  41.574  1.00  0.00     0.127 C 
HETATM    6  C   UNL     1      29.209  52.691  41.511  1.00  0.00     0.022 C 
HETATM    7  C   UNL     1      28.614  51.478  40.812  1.00  0.00     0.032 C 
ENDROOT
BRANCH   1   8
HETATM    8  C   UNL     1      29.644  49.235  40.323  1.00  0.00     0.014 A 
HETATM    9  C   UNL     1      28.996  48.010  40.274  1.00  0.00     0.034 A 
HETATM   10  C   UNL     1      27.988  47.393  41.166  1.00  0.00     0.070 C 
HETATM   11  N   UNL     1      29.481  47.364  39.174  1.00  0.00    -0.282 N 
HETATM   12  H   UNL     1      29.247  46.437  38.838  1.00  0.00     0.189 HD
HETATM   13  N   UNL     1      30.362  48.085  38.472  1.00  0.00    -0.179 NA
HETATM   14  C   UNL     1      30.481  49.224  39.165  1.00  0.00     0.061 A 
HETATM   15  C   UNL     1      31.404  50.274  38.669  1.00  0.00     0.073 C 
ENDBRANCH   1   8
BRANCH   3  16
HETATM   16  C   UNL     1      32.865  50.856  42.934  1.00  0.00     0.108 A 
HETATM   17  C   UNL     1      32.985  51.704  44.132  1.00  0.00     0.304 A 
HETATM   18  O   UNL     1      32.037  51.930  44.878  1.00  0.00    -0.259 OA
HETATM   19  O   UNL     1      34.231  52.287  44.358  1.00  0.00    -0.274 OA
HETATM   20  C   UNL     1      35.338  52.000  43.538  1.00  0.00     0.089 A 
HETATM   21  C   UNL     1      35.216  51.137  42.451  1.00  0.00    -0.001 A 
HETATM   22  C   UNL     1      36.553  52.597  43.866  1.00  0.00     0.038 A 
HETATM   23  C   UNL     1      36.348  50.854  41.684  1.00  0.00     0.014 A 
HETATM   24  C   UNL     1      33.914  50.566  42.152  1.00  0.00     0.037 A 
HETATM   25  C   UNL     1      37.576  51.440  42.008  1.00  0.00     0.001 A 
HETATM   26  C   UNL     1      37.677  52.314  43.094  1.00  0.00     0.003 A 
ENDBRANCH   3  16
TORSDOF 2
ENDMDL
MODEL 3
REMARK VINA RESULT:      -8.5      2.105      3.217
REMARK  2 active torsions:
REMARK  status: ('A' for Active; 'I' for Inactive)
REMARK    1  A    between atoms: C_8  and  C_9 
REMARK       I    between atoms: N_10  and  C_11 
REMARK    2  A    between atoms: C_11  and  C_12 
ROOT
HETATM    1  C   UNL     1      27.916  45.440  53.629  1.00  0.00     0.124 C 
HETATM    2  N   UNL     1      26.860  46.011  52.796  1.00  0.00    -0.339 N 
HETATM    3  C   UNL     1      26.807  45.730  51.444  1.00  0.00     0.260 C 
HETATM    4  O   UNL     1      27.584  44.963  50.879  1.00  0.00    -0.267 OA
HETATM    5  C   UNL     1      26.189  47.103  53.489  1.00  0.00     0.127 C 
HETATM    6  C   UNL     1      27.196  47.542  54.540  1.00  0.00     0.022 C 
HETATM    7  C   UNL     1      27.853  46.232  54.945  1.00  0.00     0.032 C 
ENDROOT
BRANCH   1   8
HETATM    8  C   UNL     1      27.737  43.967  53.854  1.00  0.00     0.014 A 
HETATM    9  C   UNL     1      26.616  43.345  54.383  1.00  0.00     0.034 A 
HETATM   10  C   UNL     1      25.332  43.888  54.884  1.00  0.00     0.070 C 
HETATM   11  N   UNL     1      26.893  42.009  54.402  1.00  0.00    -0.282 N 
HETATM   12  H   UNL     1      26.308  41.253  54.741  1.00  0.00     0.189 HD
HETATM   13  N   UNL     1      28.087  41.699  53.884  1.00  0.00    -0.179 NA
HETATM   14  C   UNL     1      28.619  42.883  53.556  1.00  0.00     0.061 A 
HETATM   15  C   UNL     1      29.973  42.919  52.951  1.00  0.00     0.073 C 
ENDBRANCH   1   8
BRANCH   3  16
HETATM   16  C   UNL     1      25.685  46.309  50.672  1.00  0.00     0.108 A 
HETATM   17  C   UNL     1      24.378  45.635  50.587  1.00  0.00     0.304 A 
HETATM   18  O   UNL     1      24.158  44.554  51.124  1.00  0.00    -0.259 OA
HETATM   19  O   UNL     1      23.403  46.265  49.816  1.00  0.00    -0.274 OA
HETATM   20  C   UNL     1      23.626  47.526  49.234  1.00  0.00     0.089 A 
HETATM   21  C   UNL     1      24.848  48.177  49.388  1.00  0.00    -0.001 A 
HETATM   22  C   UNL     1      22.577  48.097  48.515  1.00  0.00     0.038 A 
HETATM   23  C   UNL     1      25.014  49.442  48.821  1.00  0.00     0.014 A 
HETATM   24  C   UNL     1      25.906  47.515  50.131  1.00  0.00     0.037 A 
HETATM   25  C   UNL     1      23.967  50.031  48.105  1.00  0.00     0.001 A 
HETATM   26  C   UNL     1      22.752  49.357  47.948  1.00  0.00     0.003 A 
ENDBRANCH   3  16
TORSDOF 2
ENDMDL
MODEL 4
REMARK VINA RESULT:      -8.3     11.144     12.768
REMARK  2 active torsions:
REMARK  status: ('A' for Active; 'I' for Inactive)
REMARK    1  A    between atoms: C_8  and  C_9 
REMARK       I    between atoms: N_10  and  C_11 
REMARK    2  A    between atoms: C_11  and  C_12 
ROOT
HETATM    1  C   UNL     1      31.323  51.719  40.631  1.00  0.00     0.124 C 
HETATM    2  N   UNL     1      30.199  50.814  40.400  1.00  0.00    -0.339 N 
HETATM    3  C   UNL     1      30.157  50.026  39.265  1.00  0.00     0.260 C 
HETATM    4  O   UNL     1      31.057  49.992  38.429  1.00  0.00    -0.267 OA
HETATM    5  C   UNL     1      29.084  51.141  41.280  1.00  0.00     0.127 C 
HETATM    6  C   UNL     1      29.342  52.586  41.674  1.00  0.00     0.022 C 
HETATM    7  C   UNL     1      30.859  52.645  41.766  1.00  0.00     0.032 C 
ENDROOT
BRANCH   1   8
HETATM    8  C   UNL     1      32.585  50.987  40.986  1.00  0.00     0.014 A 
HETATM    9  C   UNL     1      32.721  50.001  41.951  1.00  0.00     0.034 A 
HETATM   10  C   UNL     1      31.747  49.404  42.893  1.00  0.00     0.070 C 
HETATM   11  N   UNL     1      34.032  49.622  41.929  1.00  0.00    -0.282 N 
HETATM   12  H   UNL     1      34.495  48.935  42.513  1.00  0.00     0.189 HD
HETATM   13  N   UNL     1      34.757  50.248  40.995  1.00  0.00    -0.179 NA
HETATM   14  C   UNL     1      33.892  51.092  40.419  1.00  0.00     0.061 A 
HETATM   15  C   UNL     1      34.368  51.971  39.323  1.00  0.00     0.073 C 
ENDBRANCH   1   8
BRANCH   3  16
HETATM   16  C   UNL     1      29.010  49.103  39.121  1.00  0.00     0.108 A 
HETATM   17  C   UNL     1      27.817  49.470  38.338  1.00  0.00     0.304 A 
HETATM   18  O   UNL     1      27.700  50.561  37.789  1.00  0.00    -0.259 OA
HETATM   19  O   UNL     1      26.792  48.527  38.289  1.00  0.00    -0.274 OA
HETATM   20  C   UNL     1      26.932  47.255  38.874  1.00  0.00     0.089 A 
HETATM   21  C   UNL     1      28.099  46.905  39.549  1.00  0.00    -0.001 A 
HETATM   22  C   UNL     1      25.869  46.365  38.737  1.00  0.00     0.038 A 
HETATM   23  C   UNL     1      28.209  45.621  40.085  1.00  0.00     0.014 A 
HETATM   24  C   UNL     1      29.159  47.890  39.673  1.00  0.00     0.037 A 
HETATM   25  C   UNL     1      27.153  44.713  39.948  1.00  0.00     0.001 A 
HETATM   26  C   UNL     1      25.984  45.086  39.279  1.00  0.00     0.003 A 
ENDBRANCH   3  16
TORSDOF 2
ENDMDL
MODEL 5
REMARK VINA RESULT:      -8.2     11.612     14.125
REMARK  2 active torsions:
REMARK  status: ('A' for Active; 'I' for Inactive)
REMARK    1  A    between atoms: C_8  and  C_9 
REMARK       I    between atoms: N_10  and  C_11 
REMARK    2  A    between atoms: C_11  and  C_12 
ROOT
HETATM    1  C   UNL     1      29.265  51.087  41.078  1.00  0.00     0.124 C 
HETATM    2  N   UNL     1      30.671  51.363  40.792  1.00  0.00    -0.339 N 
HETATM    3  C   UNL     1      31.538  50.331  40.483  1.00  0.00     0.260 C 
HETATM    4  O   UNL     1      31.186  49.158  40.377  1.00  0.00    -0.267 OA
HETATM    5  C   UNL     1      31.031  52.709  41.220  1.00  0.00     0.127 C 
HETATM    6  C   UNL     1      29.972  53.058  42.253  1.00  0.00     0.022 C 
HETATM    7  C   UNL     1      28.726  52.385  41.699  1.00  0.00     0.032 C 
ENDROOT
BRANCH   1   8
HETATM    8  C   UNL     1      28.496  50.692  39.851  1.00  0.00     0.014 A 
HETATM    9  C   UNL     1      27.790  49.513  39.666  1.00  0.00     0.034 A 
HETATM   10  C   UNL     1      27.594  48.334  40.541  1.00  0.00     0.070 C 
HETATM   11  N   UNL     1      27.252  49.582  38.414  1.00  0.00    -0.282 N 
HETATM   12  H   UNL     1      26.689  48.888  37.935  1.00  0.00     0.189 HD
HETATM   13  N   UNL     1      27.510  50.731  37.780  1.00  0.00    -0.179 NA
HETATM   14  C   UNL     1      28.276  51.414  38.638  1.00  0.00     0.061 A 
HETATM   15  C   UNL     1      28.766  52.760  38.250  1.00  0.00     0.073 C 
ENDBRANCH   1   8
BRANCH   3  16
HETATM   16  C   UNL     1      32.937  50.692  40.162  1.00  0.00     0.108 A 
HETATM   17  C   UNL     1      33.292  51.362  38.899  1.00  0.00     0.304 A 
HETATM   18  O   UNL     1      32.458  51.633  38.041  1.00  0.00    -0.259 OA
HETATM   19  O   UNL     1      34.644  51.634  38.699  1.00  0.00    -0.274 OA
HETATM   20  C   UNL     1      35.603  51.372  39.694  1.00  0.00     0.089 A 
HETATM   21  C   UNL     1      35.232  50.801  40.910  1.00  0.00    -0.001 A 
HETATM   22  C   UNL     1      36.925  51.716  39.419  1.00  0.00     0.038 A 
HETATM   23  C   UNL     1      36.212  50.589  41.881  1.00  0.00     0.014 A 
HETATM   24  C   UNL     1      33.840  50.446  41.122  1.00  0.00     0.037 A 
HETATM   25  C   UNL     1      37.542  50.938  41.622  1.00  0.00     0.001 A 
HETATM   26  C   UNL     1      37.898  51.497  40.392  1.00  0.00     0.003 A 
ENDBRANCH   3  16
TORSDOF 2
ENDMDL
MODEL 6
REMARK VINA RESULT:      -8.2     10.842     12.818
REMARK  2 active torsions:
REMARK  status: ('A' for Active; 'I' for Inactive)
REMARK    1  A    between atoms: C_8  and  C_9 
REMARK       I    between atoms: N_10  and  C_11 
REMARK    2  A    between atoms: C_11  and  C_12 
ROOT
HETATM    1  C   UNL     1      33.253  50.631  40.340  1.00  0.00     0.124 C 
HETATM    2  N   UNL     1      32.033  49.837  40.209  1.00  0.00    -0.339 N 
HETATM    3  C   UNL     1      31.952  48.579  40.776  1.00  0.00     0.260 C 
HETATM    4  O   UNL     1      32.849  48.081  41.453  1.00  0.00    -0.267 OA
HETATM    5  C   UNL     1      31.170  50.387  39.172  1.00  0.00     0.127 C 
HETATM    6  C   UNL     1      32.113  51.206  38.307  1.00  0.00     0.022 C 
HETATM    7  C   UNL     1      33.096  51.770  39.321  1.00  0.00     0.032 C 
ENDROOT
BRANCH   1   8
HETATM    8  C   UNL     1      33.453  51.150  41.734  1.00  0.00     0.014 A 
HETATM    9  C   UNL     1      34.625  51.095  42.473  1.00  0.00     0.034 A 
HETATM   10  C   UNL     1      35.959  50.529  42.164  1.00  0.00     0.070 C 
HETATM   11  N   UNL     1      34.349  51.683  43.673  1.00  0.00    -0.282 N 
HETATM   12  H   UNL     1      34.967  51.804  44.469  1.00  0.00     0.189 HD
HETATM   13  N   UNL     1      33.104  52.162  43.764  1.00  0.00    -0.179 NA
HETATM   14  C   UNL     1      32.541  51.835  42.594  1.00  0.00     0.061 A 
HETATM   15  C   UNL     1      31.127  52.210  42.347  1.00  0.00     0.073 C 
ENDBRANCH   1   8
BRANCH   3  16
HETATM   16  C   UNL     1      30.670  47.853  40.639  1.00  0.00     0.108 A 
HETATM   17  C   UNL     1      29.483  48.228  41.426  1.00  0.00     0.304 A 
HETATM   18  O   UNL     1      29.498  49.138  42.249  1.00  0.00    -0.259 OA
HETATM   19  O   UNL     1      28.337  47.460  41.226  1.00  0.00    -0.274 OA
HETATM   20  C   UNL     1      28.291  46.445  40.253  1.00  0.00     0.089 A 
HETATM   21  C   UNL     1      29.408  46.155  39.471  1.00  0.00    -0.001 A 
HETATM   22  C   UNL     1      27.090  45.758  40.097  1.00  0.00     0.038 A 
HETATM   23  C   UNL     1      29.308  45.162  38.495  1.00  0.00     0.014 A 
HETATM   24  C   UNL     1      30.636  46.895  39.702  1.00  0.00     0.037 A 
HETATM   25  C   UNL     1      28.105  44.471  38.321  1.00  0.00     0.001 A 
HETATM   26  C   UNL     1      26.999  44.765  39.123  1.00  0.00     0.003 A 
ENDBRANCH   3  16
TORSDOF 2
ENDMDL
MODEL 7
REMARK VINA RESULT:      -8.1      2.923      7.710
REMARK  2 active torsions:
REMARK  status: ('A' for Active; 'I' for Inactive)
REMARK    1  A    between atoms: C_8  and  C_9 
REMARK       I    between atoms: N_10  and  C_11 
REMARK    2  A    between atoms: C_11  and  C_12 
ROOT
HETATM    1  C   UNL     1      24.557  44.630  50.125  1.00  0.00     0.124 C 
HETATM    2  N   UNL     1      25.332  43.397  50.242  1.00  0.00    -0.339 N 
HETATM    3  C   UNL     1      26.659  43.366  49.859  1.00  0.00     0.260 C 
HETATM    4  O   UNL     1      27.274  44.353  49.460  1.00  0.00    -0.267 OA
HETATM    5  C   UNL     1      24.452  42.252  50.444  1.00  0.00     0.127 C 
HETATM    6  C   UNL     1      23.108  42.727  49.916  1.00  0.00     0.022 C 
HETATM    7  C   UNL     1      23.094  44.197  50.305  1.00  0.00     0.032 C 
ENDROOT
BRANCH   1   8
HETATM    8  C   UNL     1      24.963  45.662  51.137  1.00  0.00     0.014 A 
HETATM    9  C   UNL     1      25.194  45.444  52.487  1.00  0.00     0.034 A 
HETATM   10  C   UNL     1      25.102  44.221  53.318  1.00  0.00     0.070 C 
HETATM   11  N   UNL     1      25.540  46.654  53.016  1.00  0.00    -0.282 N 
HETATM   12  H   UNL     1      25.760  46.876  53.981  1.00  0.00     0.189 HD
HETATM   13  N   UNL     1      25.599  47.639  52.113  1.00  0.00    -0.179 NA
HETATM   14  C   UNL     1      25.239  47.053  50.965  1.00  0.00     0.061 A 
HETATM   15  C   UNL     1      25.185  47.869  49.727  1.00  0.00     0.073 C 
ENDBRANCH   1   8
BRANCH   3  16
HETATM   16  C   UNL     1      27.391  42.093  50.047  1.00  0.00     0.108 A 
HETATM   17  C   UNL     1      27.872  41.668  51.373  1.00  0.00     0.304 A 
HETATM   18  O   UNL     1      27.716  42.350  52.381  1.00  0.00    -0.259 OA
HETATM   19  O   UNL     1      28.566  40.460  51.424  1.00  0.00    -0.274 OA
HETATM   20  C   UNL     1      28.711  39.645  50.286  1.00  0.00     0.089 A 
HETATM   21  C   UNL     1      28.186  40.037  49.057  1.00  0.00    -0.001 A 
HETATM   22  C   UNL     1      29.385  38.436  50.443  1.00  0.00     0.038 A 
HETATM   23  C   UNL     1      28.324  39.183  47.961  1.00  0.00     0.014 A 
HETATM   24  C   UNL     1      27.515  41.322  48.958  1.00  0.00     0.037 A 
HETATM   25  C   UNL     1      28.990  37.961  48.106  1.00  0.00     0.001 A 
HETATM   26  C   UNL     1      29.523  37.591  49.344  1.00  0.00     0.003 A 
ENDBRANCH   3  16
TORSDOF 2
ENDMDL
MODEL 8
REMARK VINA RESULT:      -7.8     10.664     12.250
REMARK  2 active torsions:
REMARK  status: ('A' for Active; 'I' for Inactive)
REMARK    1  A    between atoms: C_8  and  C_9 
REMARK       I    between atoms: N_10  and  C_11 
REMARK    2  A    between atoms: C_11  and  C_12 
ROOT
HETATM    1  C   UNL     1      30.987  49.204  41.158  1.00  0.00     0.124 C 
HETATM    2  N   UNL     1      29.728  49.118  40.421  1.00  0.00    -0.339 N 
HETATM    3  C   UNL     1      28.591  49.740  40.903  1.00  0.00     0.260 C 
HETATM    4  O   UNL     1      28.575  50.431  41.919  1.00  0.00    -0.267 OA
HETATM    5  C   UNL     1      29.789  48.064  39.416  1.00  0.00     0.127 C 
HETATM    6  C   UNL     1      30.905  47.157  39.906  1.00  0.00     0.022 C 
HETATM    7  C   UNL     1      31.891  48.137  40.522  1.00  0.00     0.032 C 
ENDROOT
BRANCH   1   8
HETATM    8  C   UNL     1      31.601  50.572  41.088  1.00  0.00     0.014 A 
HETATM    9  C   UNL     1      32.098  51.306  42.154  1.00  0.00     0.034 A 
HETATM   10  C   UNL     1      32.164  51.017  43.605  1.00  0.00     0.070 C 
HETATM   11  N   UNL     1      32.556  52.480  41.629  1.00  0.00    -0.282 N 
HETATM   12  H   UNL     1      32.969  53.266  42.118  1.00  0.00     0.189 HD
HETATM   13  N   UNL     1      32.441  52.556  40.299  1.00  0.00    -0.179 NA
HETATM   14  C   UNL     1      31.850  51.405  39.954  1.00  0.00     0.061 A 
HETATM   15  C   UNL     1      31.554  51.149  38.523  1.00  0.00     0.073 C 
ENDBRANCH   1   8
BRANCH   3  16
HETATM   16  C   UNL     1      27.364  49.646  40.081  1.00  0.00     0.108 A 
HETATM   17  C   UNL     1      27.167  50.487  38.888  1.00  0.00     0.304 A 
HETATM   18  O   UNL     1      27.991  51.323  38.528  1.00  0.00    -0.259 OA
HETATM   19  O   UNL     1      25.964  50.324  38.204  1.00  0.00    -0.274 OA
HETATM   20  C   UNL     1      25.033  49.338  38.577  1.00  0.00     0.089 A 
HETATM   21  C   UNL     1      25.274  48.506  39.668  1.00  0.00    -0.001 A 
HETATM   22  C   UNL     1      23.877  49.222  37.809  1.00  0.00     0.038 A 
HETATM   23  C   UNL     1      24.338  47.519  39.984  1.00  0.00     0.014 A 
HETATM   24  C   UNL     1      26.489  48.696  40.441  1.00  0.00     0.037 A 
HETATM   25  C   UNL     1      23.177  47.385  39.215  1.00  0.00     0.001 A 
HETATM   26  C   UNL     1      22.945  48.238  38.132  1.00  0.00     0.003 A 
ENDBRANCH   3  16
TORSDOF 2
ENDMDL
MODEL 9
REMARK VINA RESULT:      -7.7     10.477     12.468
REMARK  2 active torsions:
REMARK  status: ('A' for Active; 'I' for Inactive)
REMARK    1  A    between atoms: C_8  and  C_9 
REMARK       I    between atoms: N_10  and  C_11 
REMARK    2  A    between atoms: C_11  and  C_12 
ROOT
HETATM    1  C   UNL     1      27.449  49.955  39.666  1.00  0.00     0.124 C 
HETATM    2  N   UNL     1      28.780  50.413  40.059  1.00  0.00    -0.339 N 
HETATM    3  C   UNL     1      29.237  50.211  41.348  1.00  0.00     0.260 C 
HETATM    4  O   UNL     1      28.600  49.603  42.206  1.00  0.00    -0.267 OA
HETATM    5  C   UNL     1      29.314  51.350  39.079  1.00  0.00     0.127 C 
HETATM    6  C   UNL     1      28.079  51.868  38.359  1.00  0.00     0.022 C 
HETATM    7  C   UNL     1      27.173  50.647  38.322  1.00  0.00     0.032 C 
ENDROOT
BRANCH   1   8
HETATM    8  C   UNL     1      27.367  48.460  39.553  1.00  0.00     0.014 A 
HETATM    9  C   UNL     1      28.358  47.615  39.079  1.00  0.00     0.034 A 
HETATM   10  C   UNL     1      29.714  47.887  38.548  1.00  0.00     0.070 C 
HETATM   11  N   UNL     1      27.852  46.350  39.158  1.00  0.00    -0.282 N 
HETATM   12  H   UNL     1      28.294  45.480  38.880  1.00  0.00     0.189 HD
HETATM   13  N   UNL     1      26.626  46.293  39.689  1.00  0.00    -0.179 NA
HETATM   14  C   UNL     1      26.311  47.572  39.924  1.00  0.00     0.061 A 
HETATM   15  C   UNL     1      24.988  47.890  40.516  1.00  0.00     0.073 C 
ENDBRANCH   1   8
BRANCH   3  16
HETATM   16  C   UNL     1      30.611  50.663  41.660  1.00  0.00     0.108 A 
HETATM   17  C   UNL     1      30.867  51.949  42.330  1.00  0.00     0.304 A 
HETATM   18  O   UNL     1      29.965  52.721  42.641  1.00  0.00    -0.259 OA
HETATM   19  O   UNL     1      32.202  52.278  42.556  1.00  0.00    -0.274 OA
HETATM   20  C   UNL     1      33.243  51.382  42.249  1.00  0.00     0.089 A 
HETATM   21  C   UNL     1      32.970  50.141  41.679  1.00  0.00    -0.001 A 
HETATM   22  C   UNL     1      34.543  51.782  42.548  1.00  0.00     0.038 A 
HETATM   23  C   UNL     1      34.031  49.270  41.421  1.00  0.00     0.014 A 
HETATM   24  C   UNL     1      31.593  49.797  41.372  1.00  0.00     0.037 A 
HETATM   25  C   UNL     1      35.341  49.654  41.725  1.00  0.00     0.001 A 
HETATM   26  C   UNL     1      35.597  50.909  42.283  1.00  0.00     0.003 A 
ENDBRANCH   3  16
TORSDOF 2
ENDMDL
MODEL 10
REMARK VINA RESULT:      -7.7      4.623      8.398
REMARK  2 active torsions:
REMARK  status: ('A' for Active; 'I' for Inactive)
REMARK    1  A    between atoms: C_8  and  C_9 
REMARK       I    between atoms: N_10  and  C_11 
REMARK    2  A    between atoms: C_11  and  C_12 
ROOT
HETATM    1  C   UNL     1      18.489  49.233  48.525  1.00  0.00     0.124 C 
HETATM    2  N   UNL     1      19.925  49.248  48.795  1.00  0.00    -0.339 N 
HETATM    3  C   UNL     1      20.804  48.607  47.943  1.00  0.00     0.260 C 
HETATM    4  O   UNL     1      20.456  48.045  46.906  1.00  0.00    -0.267 OA
HETATM    5  C   UNL     1      20.189  49.678  50.163  1.00  0.00     0.127 C 
HETATM    6  C   UNL     1      18.880  49.411  50.887  1.00  0.00     0.022 C 
HETATM    7  C   UNL     1      17.837  49.726  49.826  1.00  0.00     0.032 C 
ENDROOT
BRANCH   1   8
HETATM    8  C   UNL     1      18.116  50.093  47.352  1.00  0.00     0.014 A 
HETATM    9  C   UNL     1      17.481  49.673  46.194  1.00  0.00     0.034 A 
HETATM   10  C   UNL     1      17.014  48.337  45.754  1.00  0.00     0.070 C 
HETATM   11  N   UNL     1      17.342  50.782  45.410  1.00  0.00    -0.282 N 
HETATM   12  H   UNL     1      16.938  50.847  44.482  1.00  0.00     0.189 HD
HETATM   13  N   UNL     1      17.794  51.903  45.981  1.00  0.00    -0.179 NA
HETATM   14  C   UNL     1      18.280  51.499  47.160  1.00  0.00     0.061 A 
HETATM   15  C   UNL     1      18.883  52.502  48.072  1.00  0.00     0.073 C 
ENDBRANCH   1   8
BRANCH   3  16
HETATM   16  C   UNL     1      22.247  48.702  48.257  1.00  0.00     0.108 A 
HETATM   17  C   UNL     1      23.069  49.826  47.779  1.00  0.00     0.304 A 
HETATM   18  O   UNL     1      22.612  50.725  47.079  1.00  0.00    -0.259 OA
HETATM   19  O   UNL     1      24.420  49.799  48.121  1.00  0.00    -0.274 OA
HETATM   20  C   UNL     1      24.946  48.801  48.961  1.00  0.00     0.089 A 
HETATM   21  C   UNL     1      24.133  47.785  49.458  1.00  0.00    -0.001 A 
HETATM   22  C   UNL     1      26.300  48.879  49.281  1.00  0.00     0.038 A 
HETATM   23  C   UNL     1      24.690  46.834  50.315  1.00  0.00     0.014 A 
HETATM   24  C   UNL     1      22.735  47.750  49.066  1.00  0.00     0.037 A 
HETATM   25  C   UNL     1      26.046  46.905  50.653  1.00  0.00     0.001 A 
HETATM   26  C   UNL     1      26.850  47.923  50.133  1.00  0.00     0.003 A 
ENDBRANCH   3  16
TORSDOF 2
ENDMDL
