MODEL 1
REMARK VINA RESULT:     -10.3      0.000      0.000
REMARK  6 active torsions:
REMARK  status: ('A' for Active; 'I' for Inactive)
REMARK    1  A    between atoms: C_5  and  N_6 
REMARK       I    between atoms: N_6  and  C_7 
REMARK    2  A    between atoms: C_7  and  C_8 
REMARK    3  A    between atoms: C_8  and  N_9 
REMARK    4  A    between atoms: C_12  and  C_13 
REMARK       I    between atoms: C_13  and  N_14 
REMARK    5  A    between atoms: N_14  and  N_15 
REMARK       I    between atoms: N_15  and  C_16 
REMARK       I    between atoms: C_16  and  N_17 
REMARK    6  A    between atoms: N_17  and  C_18 
ROOT
HETATM    1  N   UNL     1      26.828  43.327  51.200  1.00  0.00    -0.358 N 
HETATM    2  C   UNL     1      27.259  44.256  50.315  1.00  0.00     0.092 A 
HETATM    3  C   UNL     1      26.512  45.400  50.073  1.00  0.00     0.034 A 
HETATM    4  C   UNL     1      25.308  45.593  50.751  1.00  0.00     0.036 A 
HETATM    5  C   UNL     1      24.866  44.616  51.640  1.00  0.00     0.034 A 
HETATM    6  C   UNL     1      25.649  43.486  51.848  1.00  0.00     0.092 A 
ENDROOT
BRANCH   4   7
HETATM    7  C   UNL     1      24.612  46.896  50.581  1.00  0.00     0.270 C 
HETATM    8  N   UNL     1      23.497  46.912  49.774  1.00  0.00    -0.262 N 
HETATM    9  H   UNL     1      23.345  46.242  49.020  1.00  0.00     0.190 HD
HETATM   10  O   UNL     1      25.035  47.887  51.169  1.00  0.00    -0.266 OA
BRANCH   8  11
HETATM   11  N   UNL     1      22.864  48.154  49.573  1.00  0.00    -0.249 N 
HETATM   12  C   UNL     1      21.640  48.118  48.935  1.00  0.00     0.335 C 
HETATM   13  N   UNL     1      21.143  49.378  48.726  1.00  0.00    -0.337 N 
HETATM   14  O   UNL     1      21.085  47.069  48.630  1.00  0.00    -0.246 OA
HETATM   15  H   UNL     1      21.491  50.081  49.364  1.00  0.00     0.164 HD
HETATM   16  H   UNL     1      23.494  48.911  49.307  1.00  0.00     0.192 HD
BRANCH  13  17
HETATM   17  C   UNL     1      19.817  49.599  48.158  1.00  0.00     0.086 C 
HETATM   18  C   UNL     1      18.706  49.414  49.204  1.00  0.00     0.025 C 
HETATM   19  C   UNL     1      18.685  50.536  50.240  1.00  0.00     0.002 C 
HETATM   20  C   UNL     1      18.589  51.907  49.580  1.00  0.00     0.000 C 
HETATM   21  C   UNL     1      19.695  52.120  48.550  1.00  0.00     0.002 C 
HETATM   22  C   UNL     1      19.737  50.992  47.517  1.00  0.00     0.025 C 
ENDBRANCH  13  17
ENDBRANCH   8  11
ENDBRANCH   4   7
BRANCH   1  23
HETATM   23  C   UNL     1      27.718  42.191  51.562  1.00  0.00     0.230 C 
BRANCH  23  24
HETATM   24  C   UNL     1      28.167  42.414  53.000  1.00  0.00     0.240 C 
HETATM   25  N   UNL     1      29.134  43.392  53.153  1.00  0.00    -0.326 N 
HETATM   26  H   UNL     1      29.633  43.729  52.337  1.00  0.00     0.169 HD
HETATM   27  O   UNL     1      27.636  41.767  53.899  1.00  0.00    -0.271 OA
BRANCH  25  28
HETATM   28  C   UNL     1      29.572  43.954  54.375  1.00  0.00     0.034 A 
HETATM   29  C   UNL     1      30.648  43.465  55.119  1.00  0.00     0.030 A 
HETATM   30  C   UNL     1      30.993  44.054  56.342  1.00  0.00     0.009 A 
HETATM   31  C   UNL     1      30.275  45.146  56.836  1.00  0.00    -0.062 A 
HETATM   32  C   UNL     1      30.624  45.744  58.167  1.00  0.00     0.048 C 
HETATM   33  C   UNL     1      29.191  45.629  56.099  1.00  0.00     0.009 A 
HETATM   34  C   UNL     1      28.844  45.039  54.879  1.00  0.00     0.030 A 
ENDBRANCH  25  28
ENDBRANCH  23  24
ENDBRANCH   1  23
TORSDOF 6
ENDMDL
MODEL 2
REMARK VINA RESULT:     -10.0      1.572      2.140
REMARK  6 active torsions:
REMARK  status: ('A' for Active; 'I' for Inactive)
REMARK    1  A    between atoms: C_5  and  N_6 
REMARK       I    between atoms: N_6  and  C_7 
REMARK    2  A    between atoms: C_7  and  C_8 
REMARK    3  A    between atoms: C_8  and  N_9 
REMARK    4  A    between atoms: C_12  and  C_13 
REMARK       I    between atoms: C_13  and  N_14 
REMARK    5  A    between atoms: N_14  and  N_15 
REMARK       I    between atoms: N_15  and  C_16 
REMARK       I    between atoms: C_16  and  N_17 
REMARK    6  A    between atoms: N_17  and  C_18 
ROOT
HETATM    1  N   UNL     1      27.115  41.974  50.704  1.00  0.00    -0.358 N 
HETATM    2  C   UNL     1      27.338  43.263  50.356  1.00  0.00     0.092 A 
HETATM    3  C   UNL     1      26.281  44.098  50.025  1.00  0.00     0.034 A 
HETATM    4  C   UNL     1      24.976  43.604  50.054  1.00  0.00     0.036 A 
HETATM    5  C   UNL     1      24.765  42.268  50.390  1.00  0.00     0.034 A 
HETATM    6  C   UNL     1      25.857  41.470  50.713  1.00  0.00     0.092 A 
ENDROOT
BRANCH   4   7
HETATM    7  C   UNL     1      23.861  44.563  49.843  1.00  0.00     0.270 C 
HETATM    8  N   UNL     1      24.196  45.886  49.657  1.00  0.00    -0.262 N 
HETATM    9  H   UNL     1      25.056  46.299  50.020  1.00  0.00     0.190 HD
HETATM   10  O   UNL     1      22.705  44.151  49.822  1.00  0.00    -0.266 OA
BRANCH   8  11
HETATM   11  N   UNL     1      23.139  46.805  49.505  1.00  0.00    -0.249 N 
HETATM   12  C   UNL     1      23.474  48.140  49.606  1.00  0.00     0.335 C 
HETATM   13  N   UNL     1      22.369  48.945  49.513  1.00  0.00    -0.337 N 
HETATM   14  O   UNL     1      24.630  48.523  49.738  1.00  0.00    -0.246 OA
HETATM   15  H   UNL     1      21.588  48.535  49.019  1.00  0.00     0.164 HD
HETATM   16  H   UNL     1      22.265  46.519  49.946  1.00  0.00     0.192 HD
BRANCH  13  17
HETATM   17  C   UNL     1      22.475  50.400  49.492  1.00  0.00     0.086 C 
HETATM   18  C   UNL     1      22.162  50.978  48.103  1.00  0.00     0.025 C 
HETATM   19  C   UNL     1      20.682  50.866  47.742  1.00  0.00     0.002 C 
HETATM   20  C   UNL     1      19.795  51.500  48.809  1.00  0.00     0.000 C 
HETATM   21  C   UNL     1      20.076  50.926  50.195  1.00  0.00     0.002 C 
HETATM   22  C   UNL     1      21.559  51.017  50.560  1.00  0.00     0.025 C 
ENDBRANCH  13  17
ENDBRANCH   8  11
ENDBRANCH   4   7
BRANCH   1  23
HETATM   23  C   UNL     1      28.242  41.145  51.208  1.00  0.00     0.230 C 
BRANCH  23  24
HETATM   24  C   UNL     1      28.529  41.597  52.633  1.00  0.00     0.240 C 
HETATM   25  N   UNL     1      29.352  42.706  52.727  1.00  0.00    -0.326 N 
HETATM   26  H   UNL     1      29.877  43.005  51.913  1.00  0.00     0.169 HD
HETATM   27  O   UNL     1      28.002  40.999  53.568  1.00  0.00    -0.271 OA
BRANCH  25  28
HETATM   28  C   UNL     1      29.606  43.465  53.894  1.00  0.00     0.034 A 
HETATM   29  C   UNL     1      30.644  43.198  54.789  1.00  0.00     0.030 A 
HETATM   30  C   UNL     1      30.804  43.972  55.945  1.00  0.00     0.009 A 
HETATM   31  C   UNL     1      29.935  45.031  56.219  1.00  0.00    -0.062 A 
HETATM   32  C   UNL     1      30.087  45.830  57.481  1.00  0.00     0.048 C 
HETATM   33  C   UNL     1      28.889  45.292  55.331  1.00  0.00     0.009 A 
HETATM   34  C   UNL     1      28.727  44.517  54.178  1.00  0.00     0.030 A 
ENDBRANCH  25  28
ENDBRANCH  23  24
ENDBRANCH   1  23
TORSDOF 6
ENDMDL
MODEL 3
REMARK VINA RESULT:      -9.4      1.565      2.213
REMARK  6 active torsions:
REMARK  status: ('A' for Active; 'I' for Inactive)
REMARK    1  A    between atoms: C_5  and  N_6 
REMARK       I    between atoms: N_6  and  C_7 
REMARK    2  A    between atoms: C_7  and  C_8 
REMARK    3  A    between atoms: C_8  and  N_9 
REMARK    4  A    between atoms: C_12  and  C_13 
REMARK       I    between atoms: C_13  and  N_14 
REMARK    5  A    between atoms: N_14  and  N_15 
REMARK       I    between atoms: N_15  and  C_16 
REMARK       I    between atoms: C_16  and  N_17 
REMARK    6  A    between atoms: N_17  and  C_18 
ROOT
HETATM    1  N   UNL     1      26.298  42.671  50.228  1.00  0.00    -0.358 N 
HETATM    2  C   UNL     1      25.078  42.257  50.643  1.00  0.00     0.092 A 
HETATM    3  C   UNL     1      23.952  43.032  50.407  1.00  0.00     0.034 A 
HETATM    4  C   UNL     1      24.080  44.248  49.734  1.00  0.00     0.036 A 
HETATM    5  C   UNL     1      25.346  44.672  49.335  1.00  0.00     0.034 A 
HETATM    6  C   UNL     1      26.445  43.861  49.596  1.00  0.00     0.092 A 
ENDROOT
BRANCH   4   7
HETATM    7  C   UNL     1      22.838  44.976  49.365  1.00  0.00     0.270 C 
HETATM    8  N   UNL     1      22.937  46.339  49.191  1.00  0.00    -0.262 N 
HETATM    9  H   UNL     1      23.651  46.908  49.646  1.00  0.00     0.190 HD
HETATM   10  O   UNL     1      21.793  44.351  49.213  1.00  0.00    -0.266 OA
BRANCH   8  11
HETATM   11  N   UNL     1      21.752  47.039  48.889  1.00  0.00    -0.249 N 
HETATM   12  C   UNL     1      21.910  48.282  48.309  1.00  0.00     0.335 C 
HETATM   13  N   UNL     1      20.705  48.906  48.121  1.00  0.00    -0.337 N 
HETATM   14  O   UNL     1      23.006  48.728  47.994  1.00  0.00    -0.246 OA
HETATM   15  H   UNL     1      19.912  48.283  48.049  1.00  0.00     0.164 HD
HETATM   16  H   UNL     1      21.021  46.955  49.595  1.00  0.00     0.192 HD
BRANCH  13  17
HETATM   17  C   UNL     1      20.601  50.189  47.433  1.00  0.00     0.086 C 
HETATM   18  C   UNL     1      19.231  50.371  46.761  1.00  0.00     0.025 C 
HETATM   19  C   UNL     1      18.106  50.580  47.774  1.00  0.00     0.002 C 
HETATM   20  C   UNL     1      18.410  51.738  48.718  1.00  0.00     0.000 C 
HETATM   21  C   UNL     1      19.759  51.568  49.410  1.00  0.00     0.002 C 
HETATM   22  C   UNL     1      20.890  51.341  48.406  1.00  0.00     0.025 C 
ENDBRANCH  13  17
ENDBRANCH   8  11
ENDBRANCH   4   7
BRANCH   1  23
HETATM   23  C   UNL     1      27.463  41.755  50.349  1.00  0.00     0.230 C 
BRANCH  23  24
HETATM   24  C   UNL     1      27.986  41.878  51.774  1.00  0.00     0.240 C 
HETATM   25  N   UNL     1      28.708  43.033  52.020  1.00  0.00    -0.326 N 
HETATM   26  H   UNL     1      29.032  43.593  51.239  1.00  0.00     0.169 HD
HETATM   27  O   UNL     1      27.711  41.002  52.590  1.00  0.00    -0.271 OA
BRANCH  25  28
HETATM   28  C   UNL     1      29.120  43.510  53.287  1.00  0.00     0.034 A 
HETATM   29  C   UNL     1      28.461  44.517  53.995  1.00  0.00     0.030 A 
HETATM   30  C   UNL     1      28.956  44.963  55.226  1.00  0.00     0.009 A 
HETATM   31  C   UNL     1      30.113  44.403  55.775  1.00  0.00    -0.062 A 
HETATM   32  C   UNL     1      30.661  44.914  57.074  1.00  0.00     0.048 C 
HETATM   33  C   UNL     1      30.780  43.403  55.063  1.00  0.00     0.009 A 
HETATM   34  C   UNL     1      30.287  42.960  53.831  1.00  0.00     0.030 A 
ENDBRANCH  25  28
ENDBRANCH  23  24
ENDBRANCH   1  23
TORSDOF 6
ENDMDL
MODEL 4
REMARK VINA RESULT:      -9.1      2.281      3.097
REMARK  6 active torsions:
REMARK  status: ('A' for Active; 'I' for Inactive)
REMARK    1  A    between atoms: C_5  and  N_6 
REMARK       I    between atoms: N_6  and  C_7 
REMARK    2  A    between atoms: C_7  and  C_8 
REMARK    3  A    between atoms: C_8  and  N_9 
REMARK    4  A    between atoms: C_12  and  C_13 
REMARK       I    between atoms: C_13  and  N_14 
REMARK    5  A    between atoms: N_14  and  N_15 
REMARK       I    between atoms: N_15  and  C_16 
REMARK       I    between atoms: C_16  and  N_17 
REMARK    6  A    between atoms: N_17  and  C_18 
ROOT
HETATM    1  N   UNL     1      24.506  42.040  49.545  1.00  0.00    -0.358 N 
HETATM    2  C   UNL     1      23.920  42.046  48.325  1.00  0.00     0.092 A 
HETATM    3  C   UNL     1      22.866  42.906  48.052  1.00  0.00     0.034 A 
HETATM    4  C   UNL     1      22.409  43.774  49.045  1.00  0.00     0.036 A 
HETATM    5  C   UNL     1      23.006  43.738  50.304  1.00  0.00     0.034 A 
HETATM    6  C   UNL     1      24.058  42.858  50.529  1.00  0.00     0.092 A 
ENDROOT
BRANCH   4   7
HETATM    7  C   UNL     1      21.384  44.783  48.673  1.00  0.00     0.270 C 
HETATM    8  N   UNL     1      21.576  46.070  49.124  1.00  0.00    -0.262 N 
HETATM    9  H   UNL     1      22.115  46.293  49.961  1.00  0.00     0.190 HD
HETATM   10  O   UNL     1      20.430  44.448  47.976  1.00  0.00    -0.266 OA
BRANCH   8  11
HETATM   11  N   UNL     1      20.582  47.019  48.813  1.00  0.00    -0.249 N 
HETATM   12  C   UNL     1      21.021  48.203  48.257  1.00  0.00     0.335 C 
HETATM   13  N   UNL     1      19.989  49.080  48.058  1.00  0.00    -0.337 N 
HETATM   14  O   UNL     1      22.196  48.400  47.967  1.00  0.00    -0.246 OA
HETATM   15  H   UNL     1      19.079  48.649  47.963  1.00  0.00     0.164 HD
HETATM   16  H   UNL     1      19.836  47.090  49.505  1.00  0.00     0.192 HD
BRANCH  13  17
HETATM   17  C   UNL     1      20.185  50.363  47.389  1.00  0.00     0.086 C 
HETATM   18  C   UNL     1      18.936  50.799  46.606  1.00  0.00     0.025 C 
HETATM   19  C   UNL     1      17.784  51.209  47.522  1.00  0.00     0.002 C 
HETATM   20  C   UNL     1      18.212  52.287  48.512  1.00  0.00     0.000 C 
HETATM   21  C   UNL     1      19.440  51.867  49.314  1.00  0.00     0.002 C 
HETATM   22  C   UNL     1      20.594  51.437  48.407  1.00  0.00     0.025 C 
ENDBRANCH  13  17
ENDBRANCH   8  11
ENDBRANCH   4   7
BRANCH   1  23
HETATM   23  C   UNL     1      25.732  41.229  49.766  1.00  0.00     0.230 C 
BRANCH  23  24
HETATM   24  C   UNL     1      26.738  42.121  50.481  1.00  0.00     0.240 C 
HETATM   25  N   UNL     1      26.914  41.825  51.821  1.00  0.00    -0.326 N 
HETATM   26  H   UNL     1      26.245  41.224  52.290  1.00  0.00     0.169 HD
HETATM   27  O   UNL     1      27.333  42.983  49.840  1.00  0.00    -0.271 OA
BRANCH  25  28
HETATM   28  C   UNL     1      27.927  42.336  52.667  1.00  0.00     0.034 A 
HETATM   29  C   UNL     1      29.285  42.050  52.520  1.00  0.00     0.030 A 
HETATM   30  C   UNL     1      30.222  42.563  53.425  1.00  0.00     0.009 A 
HETATM   31  C   UNL     1      29.818  43.377  54.486  1.00  0.00    -0.062 A 
HETATM   32  C   UNL     1      30.822  43.888  55.477  1.00  0.00     0.048 C 
HETATM   33  C   UNL     1      28.457  43.655  54.642  1.00  0.00     0.009 A 
HETATM   34  C   UNL     1      27.521  43.140  53.739  1.00  0.00     0.030 A 
ENDBRANCH  25  28
ENDBRANCH  23  24
ENDBRANCH   1  23
TORSDOF 6
ENDMDL
MODEL 5
REMARK VINA RESULT:      -9.0      1.612      2.252
REMARK  6 active torsions:
REMARK  status: ('A' for Active; 'I' for Inactive)
REMARK    1  A    between atoms: C_5  and  N_6 
REMARK       I    between atoms: N_6  and  C_7 
REMARK    2  A    between atoms: C_7  and  C_8 
REMARK    3  A    between atoms: C_8  and  N_9 
REMARK    4  A    between atoms: C_12  and  C_13 
REMARK       I    between atoms: C_13  and  N_14 
REMARK    5  A    between atoms: N_14  and  N_15 
REMARK       I    between atoms: N_15  and  C_16 
REMARK       I    between atoms: C_16  and  N_17 
REMARK    6  A    between atoms: N_17  and  C_18 
ROOT
HETATM    1  N   UNL     1      25.963  44.954  50.406  1.00  0.00    -0.358 N 
HETATM    2  C   UNL     1      24.678  44.745  50.037  1.00  0.00     0.092 A 
HETATM    3  C   UNL     1      23.827  45.816  49.805  1.00  0.00     0.034 A 
HETATM    4  C   UNL     1      24.304  47.120  49.949  1.00  0.00     0.036 A 
HETATM    5  C   UNL     1      25.623  47.318  50.354  1.00  0.00     0.034 A 
HETATM    6  C   UNL     1      26.436  46.213  50.576  1.00  0.00     0.092 A 
ENDROOT
BRANCH   4   7
HETATM    7  C   UNL     1      23.413  48.238  49.546  1.00  0.00     0.270 C 
HETATM    8  N   UNL     1      22.090  47.934  49.308  1.00  0.00    -0.262 N 
HETATM    9  H   UNL     1      21.775  47.008  49.021  1.00  0.00     0.190 HD
HETATM   10  O   UNL     1      23.870  49.374  49.458  1.00  0.00    -0.266 OA
BRANCH   8  11
HETATM   11  N   UNL     1      21.254  48.983  48.879  1.00  0.00    -0.249 N 
HETATM   12  C   UNL     1      20.130  48.614  48.167  1.00  0.00     0.335 C 
HETATM   13  N   UNL     1      19.424  49.706  47.737  1.00  0.00    -0.337 N 
HETATM   14  O   UNL     1      19.822  47.442  47.983  1.00  0.00    -0.246 OA
HETATM   15  H   UNL     1      19.565  50.543  48.287  1.00  0.00     0.164 HD
HETATM   16  H   UNL     1      21.750  49.811  48.549  1.00  0.00     0.192 HD
BRANCH  13  17
HETATM   17  C   UNL     1      18.144  49.574  47.049  1.00  0.00     0.086 C 
HETATM   18  C   UNL     1      16.964  49.540  48.033  1.00  0.00     0.025 C 
HETATM   19  C   UNL     1      16.713  50.895  48.693  1.00  0.00     0.002 C 
HETATM   20  C   UNL     1      16.528  51.998  47.656  1.00  0.00     0.000 C 
HETATM   21  C   UNL     1      17.699  52.062  46.680  1.00  0.00     0.002 C 
HETATM   22  C   UNL     1      17.970  50.706  46.026  1.00  0.00     0.025 C 
ENDBRANCH  13  17
ENDBRANCH   8  11
ENDBRANCH   4   7
BRANCH   1  23
HETATM   23  C   UNL     1      26.898  43.800  50.494  1.00  0.00     0.230 C 
BRANCH  23  24
HETATM   24  C   UNL     1      27.258  43.626  51.963  1.00  0.00     0.240 C 
HETATM   25  N   UNL     1      28.602  43.792  52.246  1.00  0.00    -0.326 N 
HETATM   26  H   UNL     1      29.274  43.792  51.487  1.00  0.00     0.169 HD
HETATM   27  O   UNL     1      26.364  43.398  52.775  1.00  0.00    -0.271 OA
BRANCH  25  28
HETATM   28  C   UNL     1      29.181  43.902  53.533  1.00  0.00     0.034 A 
HETATM   29  C   UNL     1      28.847  44.893  54.458  1.00  0.00     0.030 A 
HETATM   30  C   UNL     1      29.496  44.959  55.696  1.00  0.00     0.009 A 
HETATM   31  C   UNL     1      30.483  44.029  56.035  1.00  0.00    -0.062 A 
HETATM   32  C   UNL     1      31.204  44.131  57.347  1.00  0.00     0.048 C 
HETATM   33  C   UNL     1      30.827  43.044  55.106  1.00  0.00     0.009 A 
HETATM   34  C   UNL     1      30.180  42.980  53.868  1.00  0.00     0.030 A 
ENDBRANCH  25  28
ENDBRANCH  23  24
ENDBRANCH   1  23
TORSDOF 6
ENDMDL
MODEL 6
REMARK VINA RESULT:      -8.9      1.997     11.631
REMARK  6 active torsions:
REMARK  status: ('A' for Active; 'I' for Inactive)
REMARK    1  A    between atoms: C_5  and  N_6 
REMARK       I    between atoms: N_6  and  C_7 
REMARK    2  A    between atoms: C_7  and  C_8 
REMARK    3  A    between atoms: C_8  and  N_9 
REMARK    4  A    between atoms: C_12  and  C_13 
REMARK       I    between atoms: C_13  and  N_14 
REMARK    5  A    between atoms: N_14  and  N_15 
REMARK       I    between atoms: N_15  and  C_16 
REMARK       I    between atoms: C_16  and  N_17 
REMARK    6  A    between atoms: N_17  and  C_18 
ROOT
HETATM    1  N   UNL     1      21.411  47.708  48.028  1.00  0.00    -0.358 N 
HETATM    2  C   UNL     1      22.191  48.575  48.715  1.00  0.00     0.092 A 
HETATM    3  C   UNL     1      23.329  48.131  49.373  1.00  0.00     0.034 A 
HETATM    4  C   UNL     1      23.672  46.779  49.323  1.00  0.00     0.036 A 
HETATM    5  C   UNL     1      22.845  45.895  48.632  1.00  0.00     0.034 A 
HETATM    6  C   UNL     1      21.715  46.388  47.990  1.00  0.00     0.092 A 
ENDROOT
BRANCH   4   7
HETATM    7  C   UNL     1      24.974  46.367  49.909  1.00  0.00     0.270 C 
HETATM    8  N   UNL     1      25.386  45.073  49.678  1.00  0.00    -0.262 N 
HETATM    9  H   UNL     1      24.739  44.308  49.486  1.00  0.00     0.190 HD
HETATM   10  O   UNL     1      25.632  47.180  50.551  1.00  0.00    -0.266 OA
BRANCH   8  11
HETATM   11  N   UNL     1      26.595  44.665  50.272  1.00  0.00    -0.249 N 
HETATM   12  C   UNL     1      26.487  43.784  51.330  1.00  0.00     0.335 C 
HETATM   13  N   UNL     1      27.711  43.504  51.880  1.00  0.00    -0.337 N 
HETATM   14  O   UNL     1      25.415  43.312  51.688  1.00  0.00    -0.246 OA
HETATM   15  H   UNL     1      28.495  43.632  51.254  1.00  0.00     0.164 HD
HETATM   16  H   UNL     1      27.291  45.404  50.365  1.00  0.00     0.192 HD
BRANCH  13  17
HETATM   17  C   UNL     1      27.869  42.522  52.948  1.00  0.00     0.086 C 
HETATM   18  C   UNL     1      29.222  41.798  52.865  1.00  0.00     0.025 C 
HETATM   19  C   UNL     1      30.395  42.706  53.233  1.00  0.00     0.002 C 
HETATM   20  C   UNL     1      30.201  43.345  54.604  1.00  0.00     0.000 C 
HETATM   21  C   UNL     1      28.871  44.086  54.702  1.00  0.00     0.002 C 
HETATM   22  C   UNL     1      27.690  43.191  54.318  1.00  0.00     0.025 C 
ENDBRANCH  13  17
ENDBRANCH   8  11
ENDBRANCH   4   7
BRANCH   1  23
HETATM   23  C   UNL     1      20.290  48.228  47.200  1.00  0.00     0.230 C 
BRANCH  23  24
HETATM   24  C   UNL     1      19.278  48.848  48.154  1.00  0.00     0.240 C 
HETATM   25  N   UNL     1      19.008  50.183  47.912  1.00  0.00    -0.326 N 
HETATM   26  H   UNL     1      19.623  50.713  47.304  1.00  0.00     0.169 HD
HETATM   27  O   UNL     1      18.758  48.142  49.014  1.00  0.00    -0.271 OA
BRANCH  25  28
HETATM   28  C   UNL     1      17.965  50.946  48.491  1.00  0.00     0.034 A 
HETATM   29  C   UNL     1      18.171  52.001  49.381  1.00  0.00     0.030 A 
HETATM   30  C   UNL     1      17.083  52.680  49.943  1.00  0.00     0.009 A 
HETATM   31  C   UNL     1      15.772  52.322  49.617  1.00  0.00    -0.062 A 
HETATM   32  C   UNL     1      14.611  53.026  50.255  1.00  0.00     0.048 C 
HETATM   33  C   UNL     1      15.565  51.258  48.735  1.00  0.00     0.009 A 
HETATM   34  C   UNL     1      16.651  50.578  48.176  1.00  0.00     0.030 A 
ENDBRANCH  25  28
ENDBRANCH  23  24
ENDBRANCH   1  23
TORSDOF 6
ENDMDL
MODEL 7
REMARK VINA RESULT:      -8.7      2.153      2.517
REMARK  6 active torsions:
REMARK  status: ('A' for Active; 'I' for Inactive)
REMARK    1  A    between atoms: C_5  and  N_6 
REMARK       I    between atoms: N_6  and  C_7 
REMARK    2  A    between atoms: C_7  and  C_8 
REMARK    3  A    between atoms: C_8  and  N_9 
REMARK    4  A    between atoms: C_12  and  C_13 
REMARK       I    between atoms: C_13  and  N_14 
REMARK    5  A    between atoms: N_14  and  N_15 
REMARK       I    between atoms: N_15  and  C_16 
REMARK       I    between atoms: C_16  and  N_17 
REMARK    6  A    between atoms: N_17  and  C_18 
ROOT
HETATM    1  N   UNL     1      27.170  42.755  51.056  1.00  0.00    -0.358 N 
HETATM    2  C   UNL     1      27.473  44.011  50.656  1.00  0.00     0.092 A 
HETATM    3  C   UNL     1      26.486  44.852  50.162  1.00  0.00     0.034 A 
HETATM    4  C   UNL     1      25.169  44.397  50.083  1.00  0.00     0.036 A 
HETATM    5  C   UNL     1      24.877  43.092  50.475  1.00  0.00     0.034 A 
HETATM    6  C   UNL     1      25.902  42.287  50.962  1.00  0.00     0.092 A 
ENDROOT
BRANCH   4   7
HETATM    7  C   UNL     1      24.116  45.371  49.694  1.00  0.00     0.270 C 
HETATM    8  N   UNL     1      22.822  44.904  49.627  1.00  0.00    -0.262 N 
HETATM    9  H   UNL     1      22.591  43.927  49.449  1.00  0.00     0.190 HD
HETATM   10  O   UNL     1      24.425  46.538  49.470  1.00  0.00    -0.266 OA
BRANCH   8  11
HETATM   11  N   UNL     1      21.828  45.813  49.213  1.00  0.00    -0.249 N 
HETATM   12  C   UNL     1      20.853  45.309  48.376  1.00  0.00     0.335 C 
HETATM   13  N   UNL     1      19.978  46.285  47.977  1.00  0.00    -0.337 N 
HETATM   14  O   UNL     1      20.794  44.124  48.070  1.00  0.00    -0.246 OA
HETATM   15  H   UNL     1      19.912  47.076  48.603  1.00  0.00     0.164 HD
HETATM   16  H   UNL     1      22.175  46.747  48.997  1.00  0.00     0.192 HD
BRANCH  13  17
HETATM   17  C   UNL     1      18.801  45.981  47.169  1.00  0.00     0.086 C 
HETATM   18  C   UNL     1      17.550  45.769  48.035  1.00  0.00     0.025 C 
HETATM   19  C   UNL     1      17.047  47.067  48.665  1.00  0.00     0.002 C 
HETATM   20  C   UNL     1      16.807  48.145  47.613  1.00  0.00     0.000 C 
HETATM   21  C   UNL     1      18.044  48.385  46.754  1.00  0.00     0.002 C 
HETATM   22  C   UNL     1      18.567  47.089  46.132  1.00  0.00     0.025 C 
ENDBRANCH  13  17
ENDBRANCH   8  11
ENDBRANCH   4   7
BRANCH   1  23
HETATM   23  C   UNL     1      28.209  41.929  51.728  1.00  0.00     0.230 C 
BRANCH  23  24
HETATM   24  C   UNL     1      28.296  42.405  53.172  1.00  0.00     0.240 C 
HETATM   25  N   UNL     1      29.420  43.159  53.460  1.00  0.00    -0.326 N 
HETATM   26  H   UNL     1      30.195  43.165  52.806  1.00  0.00     0.169 HD
HETATM   27  O   UNL     1      27.381  42.134  53.946  1.00  0.00    -0.271 OA
BRANCH  25  28
HETATM   28  C   UNL     1      29.650  43.903  54.641  1.00  0.00     0.034 A 
HETATM   29  C   UNL     1      28.978  45.084  54.964  1.00  0.00     0.030 A 
HETATM   30  C   UNL     1      29.295  45.785  56.134  1.00  0.00     0.009 A 
HETATM   31  C   UNL     1      30.280  45.313  57.004  1.00  0.00    -0.062 A 
HETATM   32  C   UNL     1      30.643  46.092  58.235  1.00  0.00     0.048 C 
HETATM   33  C   UNL     1      30.962  44.138  56.677  1.00  0.00     0.009 A 
HETATM   34  C   UNL     1      30.649  43.439  55.507  1.00  0.00     0.030 A 
ENDBRANCH  25  28
ENDBRANCH  23  24
ENDBRANCH   1  23
TORSDOF 6
ENDMDL
MODEL 8
REMARK VINA RESULT:      -8.2      5.070      8.360
REMARK  6 active torsions:
REMARK  status: ('A' for Active; 'I' for Inactive)
REMARK    1  A    between atoms: C_5  and  N_6 
REMARK       I    between atoms: N_6  and  C_7 
REMARK    2  A    between atoms: C_7  and  C_8 
REMARK    3  A    between atoms: C_8  and  N_9 
REMARK    4  A    between atoms: C_12  and  C_13 
REMARK       I    between atoms: C_13  and  N_14 
REMARK    5  A    between atoms: N_14  and  N_15 
REMARK       I    between atoms: N_15  and  C_16 
REMARK       I    between atoms: C_16  and  N_17 
REMARK    6  A    between atoms: N_17  and  C_18 
ROOT
HETATM    1  N   UNL     1      25.224  44.428  51.803  1.00  0.00    -0.358 N 
HETATM    2  C   UNL     1      25.975  43.306  51.713  1.00  0.00     0.092 A 
HETATM    3  C   UNL     1      25.881  42.482  50.600  1.00  0.00     0.034 A 
HETATM    4  C   UNL     1      25.007  42.817  49.565  1.00  0.00     0.036 A 
HETATM    5  C   UNL     1      24.223  43.963  49.684  1.00  0.00     0.034 A 
HETATM    6  C   UNL     1      24.351  44.756  50.819  1.00  0.00     0.092 A 
ENDROOT
BRANCH   4   7
HETATM    7  C   UNL     1      25.045  41.997  48.326  1.00  0.00     0.270 C 
HETATM    8  N   UNL     1      26.261  41.873  47.691  1.00  0.00    -0.262 N 
HETATM    9  H   UNL     1      27.004  42.567  47.771  1.00  0.00     0.190 HD
HETATM   10  O   UNL     1      24.018  41.455  47.929  1.00  0.00    -0.266 OA
BRANCH   8  11
HETATM   11  N   UNL     1      26.290  41.137  46.491  1.00  0.00    -0.249 N 
HETATM   12  C   UNL     1      27.538  40.899  45.952  1.00  0.00     0.335 C 
HETATM   13  N   UNL     1      27.453  40.239  44.755  1.00  0.00    -0.337 N 
HETATM   14  O   UNL     1      28.574  41.230  46.516  1.00  0.00    -0.246 OA
HETATM   15  H   UNL     1      26.608  39.697  44.629  1.00  0.00     0.164 HD
HETATM   16  H   UNL     1      25.547  41.373  45.833  1.00  0.00     0.192 HD
BRANCH  13  17
HETATM   17  C   UNL     1      28.641  39.786  44.037  1.00  0.00     0.086 C 
HETATM   18  C   UNL     1      28.348  38.561  43.157  1.00  0.00     0.025 C 
HETATM   19  C   UNL     1      27.485  38.905  41.945  1.00  0.00     0.002 C 
HETATM   20  C   UNL     1      28.097  40.034  41.123  1.00  0.00     0.000 C 
HETATM   21  C   UNL     1      28.379  41.268  41.975  1.00  0.00     0.002 C 
HETATM   22  C   UNL     1      29.228  40.932  43.202  1.00  0.00     0.025 C 
ENDBRANCH  13  17
ENDBRANCH   8  11
ENDBRANCH   4   7
BRANCH   1  23
HETATM   23  C   UNL     1      25.456  45.377  52.925  1.00  0.00     0.230 C 
BRANCH  23  24
HETATM   24  C   UNL     1      26.377  44.680  53.918  1.00  0.00     0.240 C 
HETATM   25  N   UNL     1      27.720  44.961  53.747  1.00  0.00    -0.326 N 
HETATM   26  H   UNL     1      28.031  45.401  52.887  1.00  0.00     0.169 HD
HETATM   27  O   UNL     1      25.885  43.975  54.796  1.00  0.00    -0.271 OA
BRANCH  25  28
HETATM   28  C   UNL     1      28.767  44.635  54.642  1.00  0.00     0.034 A 
HETATM   29  C   UNL     1      29.202  45.470  55.672  1.00  0.00     0.030 A 
HETATM   30  C   UNL     1      30.273  45.091  56.491  1.00  0.00     0.009 A 
HETATM   31  C   UNL     1      30.919  43.867  56.299  1.00  0.00    -0.062 A 
HETATM   32  C   UNL     1      32.093  43.487  57.154  1.00  0.00     0.048 C 
HETATM   33  C   UNL     1      30.492  43.035  55.262  1.00  0.00     0.009 A 
HETATM   34  C   UNL     1      29.424  43.415  54.442  1.00  0.00     0.030 A 
ENDBRANCH  25  28
ENDBRANCH  23  24
ENDBRANCH   1  23
TORSDOF 6
ENDMDL
MODEL 9
REMARK VINA RESULT:      -8.0      2.352      3.990
REMARK  6 active torsions:
REMARK  status: ('A' for Active; 'I' for Inactive)
REMARK    1  A    between atoms: C_5  and  N_6 
REMARK       I    between atoms: N_6  and  C_7 
REMARK    2  A    between atoms: C_7  and  C_8 
REMARK    3  A    between atoms: C_8  and  N_9 
REMARK    4  A    between atoms: C_12  and  C_13 
REMARK       I    between atoms: C_13  and  N_14 
REMARK    5  A    between atoms: N_14  and  N_15 
REMARK       I    between atoms: N_15  and  C_16 
REMARK       I    between atoms: C_16  and  N_17 
REMARK    6  A    between atoms: N_17  and  C_18 
ROOT
HETATM    1  N   UNL     1      24.318  45.670  49.213  1.00  0.00    -0.358 N 
HETATM    2  C   UNL     1      23.107  45.457  48.650  1.00  0.00     0.092 A 
HETATM    3  C   UNL     1      22.173  46.480  48.574  1.00  0.00     0.034 A 
HETATM    4  C   UNL     1      22.489  47.741  49.082  1.00  0.00     0.036 A 
HETATM    5  C   UNL     1      23.731  47.938  49.682  1.00  0.00     0.034 A 
HETATM    6  C   UNL     1      24.633  46.881  49.735  1.00  0.00     0.092 A 
ENDROOT
BRANCH   4   7
HETATM    7  C   UNL     1      21.527  48.849  48.849  1.00  0.00     0.270 C 
HETATM    8  N   UNL     1      20.660  49.156  49.874  1.00  0.00    -0.262 N 
HETATM    9  H   UNL     1      20.374  48.480  50.582  1.00  0.00     0.190 HD
HETATM   10  O   UNL     1      21.550  49.454  47.781  1.00  0.00    -0.266 OA
BRANCH   8  11
HETATM   11  N   UNL     1      19.715  50.174  49.638  1.00  0.00    -0.249 N 
HETATM   12  C   UNL     1      18.421  49.759  49.396  1.00  0.00     0.335 C 
HETATM   13  N   UNL     1      17.598  50.817  49.111  1.00  0.00    -0.337 N 
HETATM   14  O   UNL     1      18.082  48.584  49.461  1.00  0.00    -0.246 OA
HETATM   15  H   UNL     1      17.908  51.705  49.482  1.00  0.00     0.164 HD
HETATM   16  H   UNL     1      20.060  50.946  49.069  1.00  0.00     0.192 HD
BRANCH  13  17
HETATM   17  C   UNL     1      16.162  50.645  48.917  1.00  0.00     0.086 C 
HETATM   18  C   UNL     1      15.365  51.857  49.426  1.00  0.00     0.025 C 
HETATM   19  C   UNL     1      15.554  53.092  48.547  1.00  0.00     0.002 C 
HETATM   20  C   UNL     1      15.226  52.797  47.087  1.00  0.00     0.000 C 
HETATM   21  C   UNL     1      16.020  51.608  46.556  1.00  0.00     0.002 C 
HETATM   22  C   UNL     1      15.853  50.370  47.439  1.00  0.00     0.025 C 
ENDBRANCH  13  17
ENDBRANCH   8  11
ENDBRANCH   4   7
BRANCH   1  23
HETATM   23  C   UNL     1      25.358  44.609  49.140  1.00  0.00     0.230 C 
BRANCH  23  24
HETATM   24  C   UNL     1      26.442  44.973  50.146  1.00  0.00     0.240 C 
HETATM   25  N   UNL     1      26.186  44.554  51.439  1.00  0.00    -0.326 N 
HETATM   26  H   UNL     1      25.251  44.250  51.688  1.00  0.00     0.169 HD
HETATM   27  O   UNL     1      27.450  45.556  49.753  1.00  0.00    -0.271 OA
BRANCH  25  28
HETATM   28  C   UNL     1      27.101  44.559  52.519  1.00  0.00     0.034 A 
HETATM   29  C   UNL     1      27.007  45.415  53.618  1.00  0.00     0.030 A 
HETATM   30  C   UNL     1      27.977  45.387  54.627  1.00  0.00     0.009 A 
HETATM   31  C   UNL     1      29.052  44.497  54.558  1.00  0.00    -0.062 A 
HETATM   32  C   UNL     1      30.111  44.501  55.622  1.00  0.00     0.048 C 
HETATM   33  C   UNL     1      29.155  43.648  53.454  1.00  0.00     0.009 A 
HETATM   34  C   UNL     1      28.187  43.678  52.444  1.00  0.00     0.030 A 
ENDBRANCH  25  28
ENDBRANCH  23  24
ENDBRANCH   1  23
TORSDOF 6
ENDMDL
MODEL 10
REMARK VINA RESULT:      -8.0     12.540     16.588
REMARK  6 active torsions:
REMARK  status: ('A' for Active; 'I' for Inactive)
REMARK    1  A    between atoms: C_5  and  N_6 
REMARK       I    between atoms: N_6  and  C_7 
REMARK    2  A    between atoms: C_7  and  C_8 
REMARK    3  A    between atoms: C_8  and  N_9 
REMARK    4  A    between atoms: C_12  and  C_13 
REMARK       I    between atoms: C_13  and  N_14 
REMARK    5  A    between atoms: N_14  and  N_15 
REMARK       I    between atoms: N_15  and  C_16 
REMARK       I    between atoms: C_16  and  N_17 
REMARK    6  A    between atoms: N_17  and  C_18 
ROOT
HETATM    1  N   UNL     1      29.576  51.916  40.283  1.00  0.00    -0.358 N 
HETATM    2  C   UNL     1      29.446  52.681  41.392  1.00  0.00     0.092 A 
HETATM    3  C   UNL     1      30.351  52.568  42.437  1.00  0.00     0.034 A 
HETATM    4  C   UNL     1      31.405  51.659  42.341  1.00  0.00     0.036 A 
HETATM    5  C   UNL     1      31.511  50.861  41.205  1.00  0.00     0.034 A 
HETATM    6  C   UNL     1      30.578  51.009  40.184  1.00  0.00     0.092 A 
ENDROOT
BRANCH   4   7
HETATM    7  C   UNL     1      32.439  51.674  43.409  1.00  0.00     0.270 C 
HETATM    8  N   UNL     1      33.730  51.973  43.031  1.00  0.00    -0.262 N 
HETATM    9  H   UNL     1      34.086  51.810  42.089  1.00  0.00     0.190 HD
HETATM   10  O   UNL     1      32.113  51.442  44.570  1.00  0.00    -0.266 OA
BRANCH   8  11
HETATM   11  N   UNL     1      34.720  51.940  44.032  1.00  0.00    -0.249 N 
HETATM   12  C   UNL     1      35.948  52.470  43.692  1.00  0.00     0.335 C 
HETATM   13  N   UNL     1      36.857  52.326  44.707  1.00  0.00    -0.337 N 
HETATM   14  O   UNL     1      36.156  53.015  42.615  1.00  0.00    -0.246 OA
HETATM   15  H   UNL     1      36.452  52.239  45.629  1.00  0.00     0.164 HD
HETATM   16  H   UNL     1      34.731  51.084  44.587  1.00  0.00     0.192 HD
BRANCH  13  17
HETATM   17  C   UNL     1      38.199  52.896  44.626  1.00  0.00     0.086 C 
HETATM   18  C   UNL     1      38.166  54.427  44.508  1.00  0.00     0.025 C 
HETATM   19  C   UNL     1      37.725  55.105  45.804  1.00  0.00     0.002 C 
HETATM   20  C   UNL     1      38.583  54.666  46.986  1.00  0.00     0.000 C 
HETATM   21  C   UNL     1      38.614  53.147  47.133  1.00  0.00     0.002 C 
HETATM   22  C   UNL     1      39.037  52.458  45.835  1.00  0.00     0.025 C 
ENDBRANCH  13  17
ENDBRANCH   8  11
ENDBRANCH   4   7
BRANCH   1  23
HETATM   23  C   UNL     1      28.692  52.165  39.113  1.00  0.00     0.230 C 
BRANCH  23  24
HETATM   24  C   UNL     1      27.969  50.860  38.811  1.00  0.00     0.240 C 
HETATM   25  N   UNL     1      26.853  50.629  39.596  1.00  0.00    -0.326 N 
HETATM   26  H   UNL     1      26.711  51.184  40.433  1.00  0.00     0.169 HD
HETATM   27  O   UNL     1      28.381  50.145  37.900  1.00  0.00    -0.271 OA
BRANCH  25  28
HETATM   28  C   UNL     1      25.879  49.622  39.394  1.00  0.00     0.034 A 
HETATM   29  C   UNL     1      25.893  48.381  40.034  1.00  0.00     0.030 A 
HETATM   30  C   UNL     1      24.914  47.422  39.748  1.00  0.00     0.009 A 
HETATM   31  C   UNL     1      23.900  47.692  38.825  1.00  0.00    -0.062 A 
HETATM   32  C   UNL     1      22.878  46.644  38.493  1.00  0.00     0.048 C 
HETATM   33  C   UNL     1      23.890  48.928  38.176  1.00  0.00     0.009 A 
HETATM   34  C   UNL     1      24.870  49.886  38.459  1.00  0.00     0.030 A 
ENDBRANCH  25  28
ENDBRANCH  23  24
ENDBRANCH   1  23
TORSDOF 6
ENDMDL
