MODEL 1
REMARK VINA RESULT:      -9.6      0.000      0.000
REMARK  10 active torsions:
REMARK  status: ('A' for Active; 'I' for Inactive)
REMARK    1  A    between atoms: N_5  and  C_7 
REMARK    2  A    between atoms: C_7  and  C_8 
REMARK    3  A    between atoms: C_8  and  C_9 
REMARK    4  A    between atoms: C_9  and  N_10 
REMARK       I    between atoms: N_10  and  C_11 
REMARK    5  A    between atoms: C_11  and  C_12 
REMARK    6  A    between atoms: C_12  and  C_13 
REMARK    7  A    between atoms: C_13  and  C_14 
REMARK    8  A    between atoms: C_14  and  N_15 
REMARK       I    between atoms: N_15  and  C_16 
REMARK    9  A    between atoms: C_16  and  C_17 
REMARK   10  A    between atoms: C_17  and  N_18 
ROOT
HETATM    1  N   UNL     1      26.306  44.251  50.205  1.00  0.00    -0.360 N 
HETATM    2  C   UNL     1      25.887  43.293  51.104  1.00  0.00     0.235 C 
HETATM    3  O   UNL     1      24.704  43.006  51.274  1.00  0.00    -0.272 OA
HETATM    4  H   UNL     1      27.279  44.554  50.232  1.00  0.00     0.162 HD
ENDROOT
BRANCH   1   5
HETATM    5  C   UNL     1      25.376  44.921  49.320  1.00  0.00     0.123 C 
BRANCH   5   6
HETATM    6  C   UNL     1      24.997  46.313  49.827  1.00  0.00     0.029 C 
BRANCH   6   7
HETATM    7  C   UNL     1      26.224  47.210  49.961  1.00  0.00     0.104 C 
BRANCH   7   8
HETATM    8  C   UNL     1      26.143  48.536  49.221  1.00  0.00     0.217 C 
HETATM    9  N   UNL     1      24.890  48.961  48.847  1.00  0.00    -0.361 N 
HETATM   10  H   UNL     1      24.114  48.308  48.889  1.00  0.00     0.162 HD
HETATM   11  O   UNL     1      27.125  49.269  49.080  1.00  0.00    -0.274 OA
BRANCH   9  12
HETATM   12  C   UNL     1      24.691  50.173  48.081  1.00  0.00     0.124 C 
BRANCH  12  13
HETATM   13  C   UNL     1      23.219  50.536  47.893  1.00  0.00     0.047 C 
BRANCH  13  14
HETATM   14  C   UNL     1      22.189  49.472  48.281  1.00  0.00     0.236 C 
BRANCH  14  15
HETATM   15  N   UNL     1      21.095  49.961  49.202  1.00  0.00    -0.071 N 
HETATM   16  C   UNL     1      20.473  51.264  48.776  1.00  0.00     0.235 C 
HETATM   17  C   UNL     1      19.420  51.710  49.780  1.00  0.00     0.032 C 
HETATM   18  C   UNL     1      18.351  50.648  50.050  1.00  0.00    -0.016 C 
HETATM   19  C   UNL     1      17.400  50.479  48.863  1.00  0.00     0.010 C 
HETATM   20  C   UNL     1      19.024  49.327  50.436  1.00  0.00     0.032 C 
HETATM   21  C   UNL     1      20.066  48.873  49.423  1.00  0.00     0.235 C 
HETATM   22  H   UNL     1      21.547  50.077  50.137  1.00  0.00     0.279 HD
ENDBRANCH  14  15
ENDBRANCH  13  14
ENDBRANCH  12  13
ENDBRANCH   9  12
ENDBRANCH   7   8
ENDBRANCH   6   7
ENDBRANCH   5   6
ENDBRANCH   1   5
BRANCH   2  23
HETATM   23  C   UNL     1      26.995  42.675  51.945  1.00  0.00     0.235 C 
BRANCH  23  24
HETATM   24  N   UNL     1      27.408  43.636  52.951  1.00  0.00    -0.299 N 
HETATM   25  C   UNL     1      28.584  43.398  53.657  1.00  0.00     0.262 C 
HETATM   26  O   UNL     1      29.349  42.473  53.386  1.00  0.00    -0.267 OA
HETATM   27  C   UNL     1      28.847  44.367  54.705  1.00  0.00     0.075 A 
HETATM   28  C   UNL     1      28.012  45.463  54.782  1.00  0.00     0.115 A 
HETATM   29  C   UNL     1      29.846  44.368  55.733  1.00  0.00    -0.026 A 
HETATM   30  S   UNL     1      28.451  46.511  56.054  1.00  0.00    -0.073 SA
HETATM   31  N   UNL     1      26.946  45.729  53.984  1.00  0.00    -0.235 NA
HETATM   32  C   UNL     1      29.713  45.480  56.545  1.00  0.00    -0.008 A 
HETATM   33  C   UNL     1      30.570  45.793  57.734  1.00  0.00     0.047 C 
HETATM   34  C   UNL     1      31.306  44.528  58.201  1.00  0.00     0.005 C 
HETATM   35  C   UNL     1      31.931  43.771  57.021  1.00  0.00     0.005 C 
HETATM   36  C   UNL     1      30.871  43.307  56.007  1.00  0.00     0.041 C 
HETATM   37  C   UNL     1      26.681  44.799  53.124  1.00  0.00     0.214 C 
ENDBRANCH  23  24
ENDBRANCH   2  23
TORSDOF 10
ENDMDL
MODEL 2
REMARK VINA RESULT:      -9.4      1.650      2.180
REMARK  10 active torsions:
REMARK  status: ('A' for Active; 'I' for Inactive)
REMARK    1  A    between atoms: N_5  and  C_7 
REMARK    2  A    between atoms: C_7  and  C_8 
REMARK    3  A    between atoms: C_8  and  C_9 
REMARK    4  A    between atoms: C_9  and  N_10 
REMARK       I    between atoms: N_10  and  C_11 
REMARK    5  A    between atoms: C_11  and  C_12 
REMARK    6  A    between atoms: C_12  and  C_13 
REMARK    7  A    between atoms: C_13  and  C_14 
REMARK    8  A    between atoms: C_14  and  N_15 
REMARK       I    between atoms: N_15  and  C_16 
REMARK    9  A    between atoms: C_16  and  C_17 
REMARK   10  A    between atoms: C_17  and  N_18 
ROOT
HETATM    1  N   UNL     1      25.102  43.879  50.003  1.00  0.00    -0.360 N 
HETATM    2  C   UNL     1      26.455  43.909  50.264  1.00  0.00     0.235 C 
HETATM    3  O   UNL     1      27.260  44.518  49.562  1.00  0.00    -0.272 OA
HETATM    4  H   UNL     1      24.518  43.226  50.525  1.00  0.00     0.162 HD
ENDROOT
BRANCH   1   5
HETATM    5  C   UNL     1      24.519  44.651  48.926  1.00  0.00     0.123 C 
BRANCH   5   6
HETATM    6  C   UNL     1      23.577  45.740  49.441  1.00  0.00     0.029 C 
BRANCH   6   7
HETATM    7  C   UNL     1      24.348  46.859  50.138  1.00  0.00     0.104 C 
BRANCH   7   8
HETATM    8  C   UNL     1      24.097  48.256  49.594  1.00  0.00     0.217 C 
HETATM    9  N   UNL     1      22.794  48.693  49.584  1.00  0.00    -0.361 N 
HETATM   10  H   UNL     1      22.047  48.023  49.739  1.00  0.00     0.162 HD
HETATM   11  O   UNL     1      25.020  49.021  49.301  1.00  0.00    -0.274 OA
BRANCH   9  12
HETATM   12  C   UNL     1      22.422  49.978  49.030  1.00  0.00     0.124 C 
BRANCH  12  13
HETATM   13  C   UNL     1      20.922  50.115  48.773  1.00  0.00     0.047 C 
BRANCH  13  14
HETATM   14  C   UNL     1      19.996  49.198  49.576  1.00  0.00     0.236 C 
BRANCH  14  15
HETATM   15  N   UNL     1      19.004  48.421  48.742  1.00  0.00    -0.071 N 
HETATM   16  C   UNL     1      17.833  47.887  49.522  1.00  0.00     0.235 C 
HETATM   17  C   UNL     1      16.911  47.076  48.621  1.00  0.00     0.032 C 
HETATM   18  C   UNL     1      16.447  47.845  47.381  1.00  0.00    -0.016 C 
HETATM   19  C   UNL     1      15.432  48.936  47.732  1.00  0.00     0.010 C 
HETATM   20  C   UNL     1      17.662  48.410  46.640  1.00  0.00     0.032 C 
HETATM   21  C   UNL     1      18.575  49.234  47.538  1.00  0.00     0.235 C 
HETATM   22  H   UNL     1      19.544  47.626  48.332  1.00  0.00     0.279 HD
ENDBRANCH  14  15
ENDBRANCH  13  14
ENDBRANCH  12  13
ENDBRANCH   9  12
ENDBRANCH   7   8
ENDBRANCH   6   7
ENDBRANCH   5   6
ENDBRANCH   1   5
BRANCH   2  23
HETATM   23  C   UNL     1      26.901  43.054  51.442  1.00  0.00     0.235 C 
BRANCH  23  24
HETATM   24  N   UNL     1      27.311  43.929  52.525  1.00  0.00    -0.299 N 
HETATM   25  C   UNL     1      28.468  43.615  53.233  1.00  0.00     0.262 C 
HETATM   26  O   UNL     1      29.221  42.698  52.908  1.00  0.00    -0.267 OA
HETATM   27  C   UNL     1      28.728  44.498  54.355  1.00  0.00     0.075 A 
HETATM   28  C   UNL     1      27.912  45.602  54.499  1.00  0.00     0.115 A 
HETATM   29  C   UNL     1      29.706  44.403  55.399  1.00  0.00    -0.026 A 
HETATM   30  S   UNL     1      28.344  46.542  55.854  1.00  0.00    -0.073 SA
HETATM   31  N   UNL     1      26.867  45.947  53.704  1.00  0.00    -0.235 NA
HETATM   32  C   UNL     1      29.576  45.453  56.290  1.00  0.00    -0.008 A 
HETATM   33  C   UNL     1      30.415  45.659  57.514  1.00  0.00     0.047 C 
HETATM   34  C   UNL     1      31.119  44.349  57.899  1.00  0.00     0.005 C 
HETATM   35  C   UNL     1      31.753  43.669  56.677  1.00  0.00     0.005 C 
HETATM   36  C   UNL     1      30.706  43.303  55.611  1.00  0.00     0.041 C 
HETATM   37  C   UNL     1      26.602  45.089  52.772  1.00  0.00     0.214 C 
ENDBRANCH  23  24
ENDBRANCH   2  23
TORSDOF 10
ENDMDL
MODEL 3
REMARK VINA RESULT:      -9.3      2.259      3.400
REMARK  10 active torsions:
REMARK  status: ('A' for Active; 'I' for Inactive)
REMARK    1  A    between atoms: N_5  and  C_7 
REMARK    2  A    between atoms: C_7  and  C_8 
REMARK    3  A    between atoms: C_8  and  C_9 
REMARK    4  A    between atoms: C_9  and  N_10 
REMARK       I    between atoms: N_10  and  C_11 
REMARK    5  A    between atoms: C_11  and  C_12 
REMARK    6  A    between atoms: C_12  and  C_13 
REMARK    7  A    between atoms: C_13  and  C_14 
REMARK    8  A    between atoms: C_14  and  N_15 
REMARK       I    between atoms: N_15  and  C_16 
REMARK    9  A    between atoms: C_16  and  C_17 
REMARK   10  A    between atoms: C_17  and  N_18 
ROOT
HETATM    1  N   UNL     1      23.846  45.226  50.296  1.00  0.00    -0.360 N 
HETATM    2  C   UNL     1      25.075  44.619  50.439  1.00  0.00     0.235 C 
HETATM    3  O   UNL     1      25.964  44.698  49.594  1.00  0.00    -0.272 OA
HETATM    4  H   UNL     1      23.103  44.985  50.952  1.00  0.00     0.162 HD
ENDROOT
BRANCH   1   5
HETATM    5  C   UNL     1      23.551  46.089  49.172  1.00  0.00     0.123 C 
BRANCH   5   6
HETATM    6  C   UNL     1      22.614  45.425  48.163  1.00  0.00     0.029 C 
BRANCH   6   7
HETATM    7  C   UNL     1      21.504  44.644  48.863  1.00  0.00     0.104 C 
BRANCH   7   8
HETATM    8  C   UNL     1      20.109  45.230  48.718  1.00  0.00     0.217 C 
HETATM    9  N   UNL     1      19.987  46.589  48.883  1.00  0.00    -0.361 N 
HETATM   10  H   UNL     1      20.760  47.110  49.282  1.00  0.00     0.162 HD
HETATM   11  O   UNL     1      19.150  44.552  48.338  1.00  0.00    -0.274 OA
BRANCH   9  12
HETATM   12  C   UNL     1      18.700  47.252  48.834  1.00  0.00     0.124 C 
BRANCH  12  13
HETATM   13  C   UNL     1      18.303  47.700  47.429  1.00  0.00     0.047 C 
BRANCH  13  14
HETATM   14  C   UNL     1      19.349  48.482  46.630  1.00  0.00     0.236 C 
BRANCH  14  15
HETATM   15  N   UNL     1      19.416  49.956  46.956  1.00  0.00    -0.071 N 
HETATM   16  C   UNL     1      18.070  50.618  47.082  1.00  0.00     0.235 C 
HETATM   17  C   UNL     1      18.227  52.107  47.360  1.00  0.00     0.032 C 
HETATM   18  C   UNL     1      19.107  52.406  48.575  1.00  0.00    -0.016 C 
HETATM   19  C   UNL     1      18.406  52.056  49.890  1.00  0.00     0.010 C 
HETATM   20  C   UNL     1      20.448  51.680  48.432  1.00  0.00     0.032 C 
HETATM   21  C   UNL     1      20.291  50.189  48.170  1.00  0.00     0.235 C 
HETATM   22  H   UNL     1      19.950  50.393  46.171  1.00  0.00     0.279 HD
ENDBRANCH  14  15
ENDBRANCH  13  14
ENDBRANCH  12  13
ENDBRANCH   9  12
ENDBRANCH   7   8
ENDBRANCH   6   7
ENDBRANCH   5   6
ENDBRANCH   1   5
BRANCH   2  23
HETATM   23  C   UNL     1      25.225  43.759  51.686  1.00  0.00     0.235 C 
BRANCH  23  24
HETATM   24  N   UNL     1      26.000  44.494  52.669  1.00  0.00    -0.299 N 
HETATM   25  C   UNL     1      27.238  43.987  53.055  1.00  0.00     0.262 C 
HETATM   26  O   UNL     1      27.757  43.011  52.515  1.00  0.00    -0.267 OA
HETATM   27  C   UNL     1      27.879  44.746  54.113  1.00  0.00     0.075 A 
HETATM   28  C   UNL     1      27.283  45.929  54.500  1.00  0.00     0.115 A 
HETATM   29  C   UNL     1      29.056  44.453  54.878  1.00  0.00    -0.026 A 
HETATM   30  S   UNL     1      28.153  46.705  55.743  1.00  0.00    -0.073 SA
HETATM   31  N   UNL     1      26.136  46.459  54.003  1.00  0.00    -0.235 NA
HETATM   32  C   UNL     1      29.291  45.443  55.815  1.00  0.00    -0.008 A 
HETATM   33  C   UNL     1      30.419  45.452  56.801  1.00  0.00     0.047 C 
HETATM   34  C   UNL     1      31.006  44.040  56.945  1.00  0.00     0.005 C 
HETATM   35  C   UNL     1      31.229  43.379  55.577  1.00  0.00     0.005 C 
HETATM   36  C   UNL     1      29.916  43.226  54.790  1.00  0.00     0.041 C 
HETATM   37  C   UNL     1      25.538  45.712  53.131  1.00  0.00     0.214 C 
ENDBRANCH  23  24
ENDBRANCH   2  23
TORSDOF 10
ENDMDL
MODEL 4
REMARK VINA RESULT:      -9.3      1.982      2.605
REMARK  10 active torsions:
REMARK  status: ('A' for Active; 'I' for Inactive)
REMARK    1  A    between atoms: N_5  and  C_7 
REMARK    2  A    between atoms: C_7  and  C_8 
REMARK    3  A    between atoms: C_8  and  C_9 
REMARK    4  A    between atoms: C_9  and  N_10 
REMARK       I    between atoms: N_10  and  C_11 
REMARK    5  A    between atoms: C_11  and  C_12 
REMARK    6  A    between atoms: C_12  and  C_13 
REMARK    7  A    between atoms: C_13  and  C_14 
REMARK    8  A    between atoms: C_14  and  N_15 
REMARK       I    between atoms: N_15  and  C_16 
REMARK    9  A    between atoms: C_16  and  C_17 
REMARK   10  A    between atoms: C_17  and  N_18 
ROOT
HETATM    1  N   UNL     1      25.111  42.613  50.796  1.00  0.00    -0.360 N 
HETATM    2  C   UNL     1      26.436  42.907  50.556  1.00  0.00     0.235 C 
HETATM    3  O   UNL     1      26.815  43.528  49.565  1.00  0.00    -0.272 OA
HETATM    4  H   UNL     1      24.884  41.959  51.545  1.00  0.00     0.162 HD
ENDROOT
BRANCH   1   5
HETATM    5  C   UNL     1      24.055  43.105  49.937  1.00  0.00     0.123 C 
BRANCH   5   6
HETATM    6  C   UNL     1      23.511  44.455  50.405  1.00  0.00     0.029 C 
BRANCH   6   7
HETATM    7  C   UNL     1      23.717  45.536  49.347  1.00  0.00     0.104 C 
BRANCH   7   8
HETATM    8  C   UNL     1      22.517  45.807  48.454  1.00  0.00     0.217 C 
HETATM    9  N   UNL     1      21.293  45.389  48.918  1.00  0.00    -0.361 N 
HETATM   10  H   UNL     1      21.254  44.757  49.710  1.00  0.00     0.162 HD
HETATM   11  O   UNL     1      22.604  46.486  47.428  1.00  0.00    -0.274 OA
BRANCH   9  12
HETATM   12  C   UNL     1      20.087  45.531  48.128  1.00  0.00     0.124 C 
BRANCH  12  13
HETATM   13  C   UNL     1      19.302  46.802  48.447  1.00  0.00     0.047 C 
BRANCH  13  14
HETATM   14  C   UNL     1      19.666  47.535  49.741  1.00  0.00     0.236 C 
BRANCH  14  15
HETATM   15  N   UNL     1      20.190  48.938  49.543  1.00  0.00    -0.071 N 
HETATM   16  C   UNL     1      20.414  49.312  48.102  1.00  0.00     0.235 C 
HETATM   17  C   UNL     1      20.988  50.717  47.994  1.00  0.00     0.032 C 
HETATM   18  C   UNL     1      20.145  51.772  48.715  1.00  0.00    -0.016 C 
HETATM   19  C   UNL     1      18.836  52.061  47.976  1.00  0.00     0.010 C 
HETATM   20  C   UNL     1      19.901  51.336  50.162  1.00  0.00     0.032 C 
HETATM   21  C   UNL     1      19.312  49.936  50.269  1.00  0.00     0.235 C 
HETATM   22  H   UNL     1      21.097  48.975  50.060  1.00  0.00     0.279 HD
ENDBRANCH  14  15
ENDBRANCH  13  14
ENDBRANCH  12  13
ENDBRANCH   9  12
ENDBRANCH   7   8
ENDBRANCH   6   7
ENDBRANCH   5   6
ENDBRANCH   1   5
BRANCH   2  23
HETATM   23  C   UNL     1      27.416  42.327  51.566  1.00  0.00     0.235 C 
BRANCH  23  24
HETATM   24  N   UNL     1      27.719  43.342  52.558  1.00  0.00    -0.299 N 
HETATM   25  C   UNL     1      28.833  43.165  53.373  1.00  0.00     0.262 C 
HETATM   26  O   UNL     1      29.640  42.250  53.211  1.00  0.00    -0.267 OA
HETATM   27  C   UNL     1      28.983  44.186  54.394  1.00  0.00     0.075 A 
HETATM   28  C   UNL     1      28.121  45.262  54.349  1.00  0.00     0.115 A 
HETATM   29  C   UNL     1      29.888  44.258  55.503  1.00  0.00    -0.026 A 
HETATM   30  S   UNL     1      28.424  46.375  55.605  1.00  0.00    -0.073 SA
HETATM   31  N   UNL     1      27.123  45.465  53.452  1.00  0.00    -0.235 NA
HETATM   32  C   UNL     1      29.660  45.400  56.249  1.00  0.00    -0.008 A 
HETATM   33  C   UNL     1      30.404  45.786  57.491  1.00  0.00     0.047 C 
HETATM   34  C   UNL     1      31.125  44.563  58.078  1.00  0.00     0.005 C 
HETATM   35  C   UNL     1      31.867  43.771  56.991  1.00  0.00     0.005 C 
HETATM   36  C   UNL     1      30.910  43.236  55.912  1.00  0.00     0.041 C 
HETATM   37  C   UNL     1      26.953  44.491  52.615  1.00  0.00     0.214 C 
ENDBRANCH  23  24
ENDBRANCH   2  23
TORSDOF 10
ENDMDL
MODEL 5
REMARK VINA RESULT:      -9.1      1.712      2.649
REMARK  10 active torsions:
REMARK  status: ('A' for Active; 'I' for Inactive)
REMARK    1  A    between atoms: N_5  and  C_7 
REMARK    2  A    between atoms: C_7  and  C_8 
REMARK    3  A    between atoms: C_8  and  C_9 
REMARK    4  A    between atoms: C_9  and  N_10 
REMARK       I    between atoms: N_10  and  C_11 
REMARK    5  A    between atoms: C_11  and  C_12 
REMARK    6  A    between atoms: C_12  and  C_13 
REMARK    7  A    between atoms: C_13  and  C_14 
REMARK    8  A    between atoms: C_14  and  N_15 
REMARK       I    between atoms: N_15  and  C_16 
REMARK    9  A    between atoms: C_16  and  C_17 
REMARK   10  A    between atoms: C_17  and  N_18 
ROOT
HETATM    1  N   UNL     1      25.337  45.295  50.318  1.00  0.00    -0.360 N 
HETATM    2  C   UNL     1      24.802  44.272  51.070  1.00  0.00     0.235 C 
HETATM    3  O   UNL     1      23.592  44.107  51.213  1.00  0.00    -0.272 OA
HETATM    4  H   UNL     1      26.340  45.471  50.376  1.00  0.00     0.162 HD
ENDROOT
BRANCH   1   5
HETATM    5  C   UNL     1      24.500  46.197  49.555  1.00  0.00     0.123 C 
BRANCH   5   6
HETATM    6  C   UNL     1      25.090  47.604  49.473  1.00  0.00     0.029 C 
BRANCH   6   7
HETATM    7  C   UNL     1      24.019  48.671  49.686  1.00  0.00     0.104 C 
BRANCH   7   8
HETATM    8  C   UNL     1      22.762  48.505  48.849  1.00  0.00     0.217 C 
HETATM    9  N   UNL     1      21.581  48.334  49.531  1.00  0.00    -0.361 N 
HETATM   10  H   UNL     1      21.609  48.126  50.524  1.00  0.00     0.162 HD
HETATM   11  O   UNL     1      22.766  48.651  47.624  1.00  0.00    -0.274 OA
BRANCH   9  12
HETATM   12  C   UNL     1      20.328  48.100  48.844  1.00  0.00     0.124 C 
BRANCH  12  13
HETATM   13  C   UNL     1      19.104  48.508  49.663  1.00  0.00     0.047 C 
BRANCH  13  14
HETATM   14  C   UNL     1      17.805  48.753  48.891  1.00  0.00     0.236 C 
BRANCH  14  15
HETATM   15  N   UNL     1      17.475  50.210  48.661  1.00  0.00    -0.071 N 
HETATM   16  C   UNL     1      16.077  50.450  48.158  1.00  0.00     0.235 C 
HETATM   17  C   UNL     1      15.844  51.933  47.905  1.00  0.00     0.032 C 
HETATM   18  C   UNL     1      16.153  52.809  49.122  1.00  0.00    -0.016 C 
HETATM   19  C   UNL     1      15.101  52.652  50.222  1.00  0.00     0.010 C 
HETATM   20  C   UNL     1      17.564  52.504  49.632  1.00  0.00     0.032 C 
HETATM   21  C   UNL     1      17.792  51.023  49.899  1.00  0.00     0.235 C 
HETATM   22  H   UNL     1      18.166  50.546  47.953  1.00  0.00     0.279 HD
ENDBRANCH  14  15
ENDBRANCH  13  14
ENDBRANCH  12  13
ENDBRANCH   9  12
ENDBRANCH   7   8
ENDBRANCH   6   7
ENDBRANCH   5   6
ENDBRANCH   1   5
BRANCH   2  23
HETATM   23  C   UNL     1      25.823  43.406  51.795  1.00  0.00     0.235 C 
BRANCH  23  24
HETATM   24  N   UNL     1      26.457  44.202  52.831  1.00  0.00    -0.299 N 
HETATM   25  C   UNL     1      27.713  43.816  53.291  1.00  0.00     0.262 C 
HETATM   26  O   UNL     1      28.361  42.904  52.779  1.00  0.00    -0.267 OA
HETATM   27  C   UNL     1      28.207  44.621  54.394  1.00  0.00     0.075 A 
HETATM   28  C   UNL     1      27.471  45.732  54.751  1.00  0.00     0.115 A 
HETATM   29  C   UNL     1      29.357  44.436  55.230  1.00  0.00    -0.026 A 
HETATM   30  S   UNL     1      28.179  46.575  56.053  1.00  0.00    -0.073 SA
HETATM   31  N   UNL     1      26.310  46.152  54.186  1.00  0.00    -0.235 NA
HETATM   32  C   UNL     1      29.432  45.432  56.188  1.00  0.00    -0.008 A 
HETATM   33  C   UNL     1      30.489  45.540  57.244  1.00  0.00     0.047 C 
HETATM   34  C   UNL     1      31.205  44.192  57.415  1.00  0.00     0.005 C 
HETATM   35  C   UNL     1      31.579  43.576  56.058  1.00  0.00     0.005 C 
HETATM   36  C   UNL     1      30.340  43.303  55.188  1.00  0.00     0.041 C 
HETATM   37  C   UNL     1      25.847  45.361  53.272  1.00  0.00     0.214 C 
ENDBRANCH  23  24
ENDBRANCH   2  23
TORSDOF 10
ENDMDL
MODEL 6
REMARK VINA RESULT:      -9.0      2.522      4.007
REMARK  10 active torsions:
REMARK  status: ('A' for Active; 'I' for Inactive)
REMARK    1  A    between atoms: N_5  and  C_7 
REMARK    2  A    between atoms: C_7  and  C_8 
REMARK    3  A    between atoms: C_8  and  C_9 
REMARK    4  A    between atoms: C_9  and  N_10 
REMARK       I    between atoms: N_10  and  C_11 
REMARK    5  A    between atoms: C_11  and  C_12 
REMARK    6  A    between atoms: C_12  and  C_13 
REMARK    7  A    between atoms: C_13  and  C_14 
REMARK    8  A    between atoms: C_14  and  N_15 
REMARK       I    between atoms: N_15  and  C_16 
REMARK    9  A    between atoms: C_16  and  C_17 
REMARK   10  A    between atoms: C_17  and  N_18 
ROOT
HETATM    1  N   UNL     1      23.790  46.712  50.164  1.00  0.00    -0.360 N 
HETATM    2  C   UNL     1      24.892  46.172  50.792  1.00  0.00     0.235 C 
HETATM    3  O   UNL     1      26.037  46.578  50.602  1.00  0.00    -0.272 OA
HETATM    4  H   UNL     1      22.897  46.226  50.241  1.00  0.00     0.162 HD
ENDROOT
BRANCH   1   5
HETATM    5  C   UNL     1      23.897  47.871  49.303  1.00  0.00     0.123 C 
BRANCH   5   6
HETATM    6  C   UNL     1      22.620  48.114  48.498  1.00  0.00     0.029 C 
BRANCH   6   7
HETATM    7  C   UNL     1      21.888  46.806  48.207  1.00  0.00     0.104 C 
BRANCH   7   8
HETATM    8  C   UNL     1      20.451  46.958  47.737  1.00  0.00     0.217 C 
HETATM    9  N   UNL     1      19.487  46.308  48.470  1.00  0.00    -0.361 N 
HETATM   10  H   UNL     1      19.770  45.609  49.149  1.00  0.00     0.162 HD
HETATM   11  O   UNL     1      20.137  47.733  46.829  1.00  0.00    -0.274 OA
BRANCH   9  12
HETATM   12  C   UNL     1      18.092  46.324  48.083  1.00  0.00     0.124 C 
BRANCH  12  13
HETATM   13  C   UNL     1      17.271  47.379  48.821  1.00  0.00     0.047 C 
BRANCH  13  14
HETATM   14  C   UNL     1      16.855  48.617  48.022  1.00  0.00     0.236 C 
BRANCH  14  15
HETATM   15  N   UNL     1      17.453  49.914  48.515  1.00  0.00    -0.071 N 
HETATM   16  C   UNL     1      18.464  49.744  49.617  1.00  0.00     0.235 C 
HETATM   17  C   UNL     1      18.978  51.096  50.090  1.00  0.00     0.032 C 
HETATM   18  C   UNL     1      19.534  51.962  48.956  1.00  0.00    -0.016 C 
HETATM   19  C   UNL     1      20.876  51.435  48.441  1.00  0.00     0.010 C 
HETATM   20  C   UNL     1      18.496  52.074  47.836  1.00  0.00     0.032 C 
HETATM   21  C   UNL     1      17.994  50.721  47.353  1.00  0.00     0.235 C 
HETATM   22  H   UNL     1      16.647  50.480  48.863  1.00  0.00     0.279 HD
ENDBRANCH  14  15
ENDBRANCH  13  14
ENDBRANCH  12  13
ENDBRANCH   9  12
ENDBRANCH   7   8
ENDBRANCH   6   7
ENDBRANCH   5   6
ENDBRANCH   1   5
BRANCH   2  23
HETATM   23  C   UNL     1      24.601  44.968  51.676  1.00  0.00     0.235 C 
BRANCH  23  24
HETATM   24  N   UNL     1      25.853  44.475  52.219  1.00  0.00    -0.299 N 
HETATM   25  C   UNL     1      26.286  44.968  53.448  1.00  0.00     0.262 C 
HETATM   26  O   UNL     1      25.599  45.710  54.148  1.00  0.00    -0.267 OA
HETATM   27  C   UNL     1      27.595  44.484  53.847  1.00  0.00     0.075 A 
HETATM   28  C   UNL     1      28.179  43.509  53.065  1.00  0.00     0.115 A 
HETATM   29  C   UNL     1      28.434  44.883  54.939  1.00  0.00    -0.026 A 
HETATM   30  S   UNL     1      29.706  43.041  53.663  1.00  0.00    -0.073 SA
HETATM   31  N   UNL     1      27.662  42.955  51.938  1.00  0.00    -0.235 NA
HETATM   32  C   UNL     1      29.624  44.178  54.926  1.00  0.00    -0.008 A 
HETATM   33  C   UNL     1      30.745  44.353  55.905  1.00  0.00     0.047 C 
HETATM   34  C   UNL     1      30.604  45.697  56.635  1.00  0.00     0.005 C 
HETATM   35  C   UNL     1      29.164  45.931  57.114  1.00  0.00     0.005 C 
HETATM   36  C   UNL     1      28.165  45.964  55.945  1.00  0.00     0.041 C 
HETATM   37  C   UNL     1      26.540  43.475  51.556  1.00  0.00     0.214 C 
ENDBRANCH  23  24
ENDBRANCH   2  23
TORSDOF 10
ENDMDL
MODEL 7
REMARK VINA RESULT:      -9.0      2.049      2.989
REMARK  10 active torsions:
REMARK  status: ('A' for Active; 'I' for Inactive)
REMARK    1  A    between atoms: N_5  and  C_7 
REMARK    2  A    between atoms: C_7  and  C_8 
REMARK    3  A    between atoms: C_8  and  C_9 
REMARK    4  A    between atoms: C_9  and  N_10 
REMARK       I    between atoms: N_10  and  C_11 
REMARK    5  A    between atoms: C_11  and  C_12 
REMARK    6  A    between atoms: C_12  and  C_13 
REMARK    7  A    between atoms: C_13  and  C_14 
REMARK    8  A    between atoms: C_14  and  N_15 
REMARK       I    between atoms: N_15  and  C_16 
REMARK    9  A    between atoms: C_16  and  C_17 
REMARK   10  A    between atoms: C_17  and  N_18 
ROOT
HETATM    1  N   UNL     1      23.303  45.002  49.803  1.00  0.00    -0.360 N 
HETATM    2  C   UNL     1      24.598  44.701  50.168  1.00  0.00     0.235 C 
HETATM    3  O   UNL     1      25.569  44.942  49.454  1.00  0.00    -0.272 OA
HETATM    4  H   UNL     1      22.538  44.629  50.365  1.00  0.00     0.162 HD
ENDROOT
BRANCH   1   5
HETATM    5  C   UNL     1      23.005  45.720  48.582  1.00  0.00     0.123 C 
BRANCH   5   6
HETATM    6  C   UNL     1      22.419  47.105  48.855  1.00  0.00     0.029 C 
BRANCH   6   7
HETATM    7  C   UNL     1      23.460  48.202  48.646  1.00  0.00     0.104 C 
BRANCH   7   8
HETATM    8  C   UNL     1      22.912  49.530  48.149  1.00  0.00     0.217 C 
HETATM    9  N   UNL     1      21.859  50.067  48.850  1.00  0.00    -0.361 N 
HETATM   10  H   UNL     1      21.365  49.488  49.521  1.00  0.00     0.162 HD
HETATM   11  O   UNL     1      23.463  50.171  47.250  1.00  0.00    -0.274 OA
BRANCH   9  12
HETATM   12  C   UNL     1      21.210  51.294  48.434  1.00  0.00     0.124 C 
BRANCH  12  13
HETATM   13  C   UNL     1      19.825  51.484  49.049  1.00  0.00     0.047 C 
BRANCH  13  14
HETATM   14  C   UNL     1      18.948  52.587  48.452  1.00  0.00     0.236 C 
BRANCH  14  15
HETATM   15  N   UNL     1      17.608  52.114  47.935  1.00  0.00    -0.071 N 
HETATM   16  C   UNL     1      17.587  51.831  46.457  1.00  0.00     0.235 C 
HETATM   17  C   UNL     1      16.194  51.411  46.010  1.00  0.00     0.032 C 
HETATM   18  C   UNL     1      15.632  50.232  46.808  1.00  0.00    -0.016 C 
HETATM   19  C   UNL     1      16.333  48.917  46.455  1.00  0.00     0.010 C 
HETATM   20  C   UNL     1      15.713  50.538  48.307  1.00  0.00     0.032 C 
HETATM   21  C   UNL     1      17.110  50.943  48.756  1.00  0.00     0.235 C 
HETATM   22  H   UNL     1      16.936  52.883  48.155  1.00  0.00     0.279 HD
ENDBRANCH  14  15
ENDBRANCH  13  14
ENDBRANCH  12  13
ENDBRANCH   9  12
ENDBRANCH   7   8
ENDBRANCH   6   7
ENDBRANCH   5   6
ENDBRANCH   1   5
BRANCH   2  23
HETATM   23  C   UNL     1      24.737  43.958  51.490  1.00  0.00     0.235 C 
BRANCH  23  24
HETATM   24  N   UNL     1      25.610  44.721  52.363  1.00  0.00    -0.299 N 
HETATM   25  C   UNL     1      26.802  44.138  52.786  1.00  0.00     0.262 C 
HETATM   26  O   UNL     1      27.204  43.056  52.360  1.00  0.00    -0.267 OA
HETATM   27  C   UNL     1      27.548  44.946  53.734  1.00  0.00     0.075 A 
HETATM   28  C   UNL     1      27.085  46.221  53.985  1.00  0.00     0.115 A 
HETATM   29  C   UNL     1      28.711  44.625  54.508  1.00  0.00    -0.026 A 
HETATM   30  S   UNL     1      28.066  47.046  55.111  1.00  0.00    -0.073 SA
HETATM   31  N   UNL     1      25.983  46.805  53.448  1.00  0.00    -0.235 NA
HETATM   32  C   UNL     1      29.072  45.690  55.315  1.00  0.00    -0.008 A 
HETATM   33  C   UNL     1      30.224  45.698  56.273  1.00  0.00     0.047 C 
HETATM   34  C   UNL     1      30.670  44.260  56.576  1.00  0.00     0.005 C 
HETATM   35  C   UNL     1      30.784  43.422  55.294  1.00  0.00     0.005 C 
HETATM   36  C   UNL     1      29.440  43.314  54.554  1.00  0.00     0.041 C 
HETATM   37  C   UNL     1      25.288  46.026  52.683  1.00  0.00     0.214 C 
ENDBRANCH  23  24
ENDBRANCH   2  23
TORSDOF 10
ENDMDL
MODEL 8
REMARK VINA RESULT:      -9.0      2.057      3.075
REMARK  10 active torsions:
REMARK  status: ('A' for Active; 'I' for Inactive)
REMARK    1  A    between atoms: N_5  and  C_7 
REMARK    2  A    between atoms: C_7  and  C_8 
REMARK    3  A    between atoms: C_8  and  C_9 
REMARK    4  A    between atoms: C_9  and  N_10 
REMARK       I    between atoms: N_10  and  C_11 
REMARK    5  A    between atoms: C_11  and  C_12 
REMARK    6  A    between atoms: C_12  and  C_13 
REMARK    7  A    between atoms: C_13  and  C_14 
REMARK    8  A    between atoms: C_14  and  N_15 
REMARK       I    between atoms: N_15  and  C_16 
REMARK    9  A    between atoms: C_16  and  C_17 
REMARK   10  A    between atoms: C_17  and  N_18 
ROOT
HETATM    1  N   UNL     1      23.833  45.161  49.758  1.00  0.00    -0.360 N 
HETATM    2  C   UNL     1      24.999  44.447  49.935  1.00  0.00     0.235 C 
HETATM    3  O   UNL     1      26.043  44.712  49.344  1.00  0.00    -0.272 OA
HETATM    4  H   UNL     1      22.968  44.790  50.150  1.00  0.00     0.162 HD
ENDROOT
BRANCH   1   5
HETATM    5  C   UNL     1      23.786  46.346  48.927  1.00  0.00     0.123 C 
BRANCH   5   6
HETATM    6  C   UNL     1      23.920  47.631  49.744  1.00  0.00     0.029 C 
BRANCH   6   7
HETATM    7  C   UNL     1      24.557  48.749  48.924  1.00  0.00     0.104 C 
BRANCH   7   8
HETATM    8  C   UNL     1      23.591  49.567  48.081  1.00  0.00     0.217 C 
HETATM    9  N   UNL     1      22.263  49.508  48.428  1.00  0.00    -0.361 N 
HETATM   10  H   UNL     1      21.953  48.791  49.076  1.00  0.00     0.162 HD
HETATM   11  O   UNL     1      23.982  50.354  47.215  1.00  0.00    -0.274 OA
BRANCH   9  12
HETATM   12  C   UNL     1      21.241  50.190  47.662  1.00  0.00     0.124 C 
BRANCH  12  13
HETATM   13  C   UNL     1      20.550  51.310  48.437  1.00  0.00     0.047 C 
BRANCH  13  14
HETATM   14  C   UNL     1      19.882  50.928  49.760  1.00  0.00     0.236 C 
BRANCH  14  15
HETATM   15  N   UNL     1      18.373  51.003  49.747  1.00  0.00    -0.071 N 
HETATM   16  C   UNL     1      17.829  52.406  49.776  1.00  0.00     0.235 C 
HETATM   17  C   UNL     1      16.307  52.391  49.812  1.00  0.00     0.032 C 
HETATM   18  C   UNL     1      15.682  51.579  48.676  1.00  0.00    -0.016 C 
HETATM   19  C   UNL     1      15.818  52.286  47.325  1.00  0.00     0.010 C 
HETATM   20  C   UNL     1      16.293  50.174  48.650  1.00  0.00     0.032 C 
HETATM   21  C   UNL     1      17.814  50.189  48.598  1.00  0.00     0.235 C 
HETATM   22  H   UNL     1      18.059  50.487  50.599  1.00  0.00     0.279 HD
ENDBRANCH  14  15
ENDBRANCH  13  14
ENDBRANCH  12  13
ENDBRANCH   9  12
ENDBRANCH   7   8
ENDBRANCH   6   7
ENDBRANCH   5   6
ENDBRANCH   1   5
BRANCH   2  23
HETATM   23  C   UNL     1      24.878  43.239  50.854  1.00  0.00     0.235 C 
BRANCH  23  24
HETATM   24  N   UNL     1      26.129  43.073  51.571  1.00  0.00    -0.299 N 
HETATM   25  C   UNL     1      26.326  43.797  52.743  1.00  0.00     0.262 C 
HETATM   26  O   UNL     1      25.444  44.480  53.262  1.00  0.00    -0.267 OA
HETATM   27  C   UNL     1      27.647  43.631  53.322  1.00  0.00     0.075 A 
HETATM   28  C   UNL     1      28.479  42.691  52.750  1.00  0.00     0.115 A 
HETATM   29  C   UNL     1      28.274  44.324  54.409  1.00  0.00    -0.026 A 
HETATM   30  S   UNL     1      29.987  42.608  53.540  1.00  0.00    -0.073 SA
HETATM   31  N   UNL     1      28.199  41.904  51.679  1.00  0.00    -0.235 NA
HETATM   32  C   UNL     1      29.564  43.865  54.605  1.00  0.00    -0.008 A 
HETATM   33  C   UNL     1      30.519  44.380  55.639  1.00  0.00     0.047 C 
HETATM   34  C   UNL     1      30.060  45.756  56.143  1.00  0.00     0.005 C 
HETATM   35  C   UNL     1      28.557  45.771  56.456  1.00  0.00     0.005 C 
HETATM   36  C   UNL     1      27.706  45.457  55.214  1.00  0.00     0.041 C 
HETATM   37  C   UNL     1      27.052  42.144  51.128  1.00  0.00     0.214 C 
ENDBRANCH  23  24
ENDBRANCH   2  23
TORSDOF 10
ENDMDL
MODEL 9
REMARK VINA RESULT:      -8.9      2.457      3.420
REMARK  10 active torsions:
REMARK  status: ('A' for Active; 'I' for Inactive)
REMARK    1  A    between atoms: N_5  and  C_7 
REMARK    2  A    between atoms: C_7  and  C_8 
REMARK    3  A    between atoms: C_8  and  C_9 
REMARK    4  A    between atoms: C_9  and  N_10 
REMARK       I    between atoms: N_10  and  C_11 
REMARK    5  A    between atoms: C_11  and  C_12 
REMARK    6  A    between atoms: C_12  and  C_13 
REMARK    7  A    between atoms: C_13  and  C_14 
REMARK    8  A    between atoms: C_14  and  N_15 
REMARK       I    between atoms: N_15  and  C_16 
REMARK    9  A    between atoms: C_16  and  C_17 
REMARK   10  A    between atoms: C_17  and  N_18 
ROOT
HETATM    1  N   UNL     1      23.895  45.072  49.943  1.00  0.00    -0.360 N 
HETATM    2  C   UNL     1      24.518  44.985  51.170  1.00  0.00     0.235 C 
HETATM    3  O   UNL     1      24.111  44.262  52.077  1.00  0.00    -0.272 OA
HETATM    4  H   UNL     1      24.186  45.807  49.299  1.00  0.00     0.162 HD
ENDROOT
BRANCH   1   5
HETATM    5  C   UNL     1      22.765  44.234  49.603  1.00  0.00     0.123 C 
BRANCH   5   6
HETATM    6  C   UNL     1      21.697  44.995  48.817  1.00  0.00     0.029 C 
BRANCH   6   7
HETATM    7  C   UNL     1      22.181  46.389  48.425  1.00  0.00     0.104 C 
BRANCH   7   8
HETATM    8  C   UNL     1      21.124  47.480  48.468  1.00  0.00     0.217 C 
HETATM    9  N   UNL     1      21.328  48.507  49.358  1.00  0.00    -0.361 N 
HETATM   10  H   UNL     1      22.040  48.405  50.075  1.00  0.00     0.162 HD
HETATM   11  O   UNL     1      20.195  47.525  47.656  1.00  0.00    -0.274 OA
BRANCH   9  12
HETATM   12  C   UNL     1      20.360  49.568  49.538  1.00  0.00     0.124 C 
BRANCH  12  13
HETATM   13  C   UNL     1      20.890  50.944  49.139  1.00  0.00     0.047 C 
BRANCH  13  14
HETATM   14  C   UNL     1      19.876  51.937  48.566  1.00  0.00     0.236 C 
BRANCH  14  15
HETATM   15  N   UNL     1      18.434  51.626  48.898  1.00  0.00    -0.071 N 
HETATM   16  C   UNL     1      17.758  52.676  49.737  1.00  0.00     0.235 C 
HETATM   17  C   UNL     1      16.330  52.264  50.067  1.00  0.00     0.032 C 
HETATM   18  C   UNL     1      15.497  51.923  48.828  1.00  0.00    -0.016 C 
HETATM   19  C   UNL     1      15.136  53.173  48.021  1.00  0.00     0.010 C 
HETATM   20  C   UNL     1      16.238  50.887  47.978  1.00  0.00     0.032 C 
HETATM   21  C   UNL     1      17.660  51.308  47.635  1.00  0.00     0.235 C 
HETATM   22  H   UNL     1      18.455  50.721  49.418  1.00  0.00     0.279 HD
ENDBRANCH  14  15
ENDBRANCH  13  14
ENDBRANCH  12  13
ENDBRANCH   9  12
ENDBRANCH   7   8
ENDBRANCH   6   7
ENDBRANCH   5   6
ENDBRANCH   1   5
BRANCH   2  23
HETATM   23  C   UNL     1      25.701  45.923  51.357  1.00  0.00     0.235 C 
BRANCH  23  24
HETATM   24  N   UNL     1      26.735  45.227  52.101  1.00  0.00    -0.299 N 
HETATM   25  C   UNL     1      26.969  45.598  53.422  1.00  0.00     0.262 C 
HETATM   26  O   UNL     1      26.262  46.405  54.024  1.00  0.00    -0.267 OA
HETATM   27  C   UNL     1      28.088  44.907  54.037  1.00  0.00     0.075 A 
HETATM   28  C   UNL     1      28.680  43.888  53.319  1.00  0.00     0.115 A 
HETATM   29  C   UNL     1      28.731  45.130  55.299  1.00  0.00    -0.026 A 
HETATM   30  S   UNL     1      29.971  43.173  54.173  1.00  0.00    -0.073 SA
HETATM   31  N   UNL     1      28.335  43.466  52.076  1.00  0.00    -0.235 NA
HETATM   32  C   UNL     1      29.789  44.256  55.472  1.00  0.00    -0.008 A 
HETATM   33  C   UNL     1      30.698  44.221  56.662  1.00  0.00     0.047 C 
HETATM   34  C   UNL     1      30.597  45.539  57.444  1.00  0.00     0.005 C 
HETATM   35  C   UNL     1      29.136  45.966  57.645  1.00  0.00     0.005 C 
HETATM   36  C   UNL     1      28.413  46.197  56.307  1.00  0.00     0.041 C 
HETATM   37  C   UNL     1      27.398  44.163  51.518  1.00  0.00     0.214 C 
ENDBRANCH  23  24
ENDBRANCH   2  23
TORSDOF 10
ENDMDL
MODEL 10
REMARK VINA RESULT:      -8.6      2.393      3.992
REMARK  10 active torsions:
REMARK  status: ('A' for Active; 'I' for Inactive)
REMARK    1  A    between atoms: N_5  and  C_7 
REMARK    2  A    between atoms: C_7  and  C_8 
REMARK    3  A    between atoms: C_8  and  C_9 
REMARK    4  A    between atoms: C_9  and  N_10 
REMARK       I    between atoms: N_10  and  C_11 
REMARK    5  A    between atoms: C_11  and  C_12 
REMARK    6  A    between atoms: C_12  and  C_13 
REMARK    7  A    between atoms: C_13  and  C_14 
REMARK    8  A    between atoms: C_14  and  N_15 
REMARK       I    between atoms: N_15  and  C_16 
REMARK    9  A    between atoms: C_16  and  C_17 
REMARK   10  A    between atoms: C_17  and  N_18 
ROOT
HETATM    1  N   UNL     1      24.776  47.536  49.609  1.00  0.00    -0.360 N 
HETATM    2  C   UNL     1      25.442  47.274  50.787  1.00  0.00     0.235 C 
HETATM    3  O   UNL     1      26.428  47.910  51.155  1.00  0.00    -0.272 OA
HETATM    4  H   UNL     1      24.073  46.871  49.287  1.00  0.00     0.162 HD
ENDROOT
BRANCH   1   5
HETATM    5  C   UNL     1      25.137  48.654  48.763  1.00  0.00     0.123 C 
BRANCH   5   6
HETATM    6  C   UNL     1      24.108  49.782  48.825  1.00  0.00     0.029 C 
BRANCH   6   7
HETATM    7  C   UNL     1      22.833  49.415  48.069  1.00  0.00     0.104 C 
BRANCH   7   8
HETATM    8  C   UNL     1      21.551  49.493  48.882  1.00  0.00     0.217 C 
HETATM    9  N   UNL     1      21.326  50.660  49.574  1.00  0.00    -0.361 N 
HETATM   10  H   UNL     1      22.086  51.323  49.684  1.00  0.00     0.162 HD
HETATM   11  O   UNL     1      20.683  48.618  48.824  1.00  0.00    -0.274 OA
BRANCH   9  12
HETATM   12  C   UNL     1      20.174  50.828  50.435  1.00  0.00     0.124 C 
BRANCH  12  13
HETATM   13  C   UNL     1      19.107  51.748  49.844  1.00  0.00     0.047 C 
BRANCH  13  14
HETATM   14  C   UNL     1      17.728  51.134  49.589  1.00  0.00     0.236 C 
BRANCH  14  15
HETATM   15  N   UNL     1      17.454  50.782  48.145  1.00  0.00    -0.071 N 
HETATM   16  C   UNL     1      16.098  51.215  47.655  1.00  0.00     0.235 C 
HETATM   17  C   UNL     1      15.884  50.780  46.212  1.00  0.00     0.032 C 
HETATM   18  C   UNL     1      16.991  51.252  45.266  1.00  0.00    -0.016 C 
HETATM   19  C   UNL     1      16.917  52.758  45.007  1.00  0.00     0.010 C 
HETATM   20  C   UNL     1      18.356  50.832  45.821  1.00  0.00     0.032 C 
HETATM   21  C   UNL     1      18.576  51.282  47.258  1.00  0.00     0.235 C 
HETATM   22  H   UNL     1      17.532  49.742  48.090  1.00  0.00     0.279 HD
ENDBRANCH  14  15
ENDBRANCH  13  14
ENDBRANCH  12  13
ENDBRANCH   9  12
ENDBRANCH   7   8
ENDBRANCH   6   7
ENDBRANCH   5   6
ENDBRANCH   1   5
BRANCH   2  23
HETATM   23  C   UNL     1      24.923  46.072  51.564  1.00  0.00     0.235 C 
BRANCH  23  24
HETATM   24  N   UNL     1      26.053  45.364  52.136  1.00  0.00    -0.299 N 
HETATM   25  C   UNL     1      26.459  45.689  53.427  1.00  0.00     0.262 C 
HETATM   26  O   UNL     1      25.832  46.463  54.149  1.00  0.00    -0.267 OA
HETATM   27  C   UNL     1      27.657  44.992  53.860  1.00  0.00     0.075 A 
HETATM   28  C   UNL     1      28.156  44.009  53.030  1.00  0.00     0.115 A 
HETATM   29  C   UNL     1      28.462  45.178  55.032  1.00  0.00    -0.026 A 
HETATM   30  S   UNL     1      29.557  43.282  53.675  1.00  0.00    -0.073 SA
HETATM   31  N   UNL     1      27.652  43.628  51.829  1.00  0.00    -0.235 NA
HETATM   32  C   UNL     1      29.541  44.313  55.027  1.00  0.00    -0.008 A 
HETATM   33  C   UNL     1      30.602  44.247  56.083  1.00  0.00     0.047 C 
HETATM   34  C   UNL     1      30.595  45.534  56.921  1.00  0.00     0.005 C 
HETATM   35  C   UNL     1      29.170  45.932  57.332  1.00  0.00     0.005 C 
HETATM   36  C   UNL     1      28.272  46.201  56.113  1.00  0.00     0.041 C 
HETATM   37  C   UNL     1      26.642  44.332  51.428  1.00  0.00     0.214 C 
ENDBRANCH  23  24
ENDBRANCH   2  23
TORSDOF 10
ENDMDL
