MODEL 1
REMARK VINA RESULT:      -9.3      0.000      0.000
REMARK  5 active torsions:
REMARK  status: ('A' for Active; 'I' for Inactive)
REMARK    1  A    between atoms: C_5  and  C_6 
REMARK    2  A    between atoms: C_9  and  O_10 
REMARK    3  A    between atoms: O_10  and  C_11 
REMARK    4  A    between atoms: C_11  and  C_12 
REMARK       I    between atoms: C_12  and  N_13 
REMARK    5  A    between atoms: N_13  and  C_14 
ROOT
HETATM    1  C   UNL     1      24.315  44.619  51.278  1.00  0.00     0.278 C 
ENDROOT
BRANCH   1   2
HETATM    2  O   UNL     1      25.290  43.581  51.312  1.00  0.00    -0.342 OA
BRANCH   2   3
HETATM    3  C   UNL     1      26.350  43.771  52.154  1.00  0.00     0.069 A 
HETATM    4  C   UNL     1      26.023  44.181  53.446  1.00  0.00     0.038 A 
HETATM    5  C   UNL     1      27.023  44.368  54.404  1.00  0.00     0.018 A 
HETATM    6  C   UNL     1      28.367  44.124  54.088  1.00  0.00     0.015 A 
HETATM    7  C   UNL     1      28.682  43.692  52.790  1.00  0.00     0.018 A 
HETATM    8  C   UNL     1      27.681  43.513  51.827  1.00  0.00     0.038 A 
BRANCH   6   9
HETATM    9  C   UNL     1      29.406  44.307  55.092  1.00  0.00     0.198 A 
HETATM   10  N   UNL     1      29.585  45.491  55.775  1.00  0.00    -0.136 NA
HETATM   11  N   UNL     1      30.597  45.304  56.611  1.00  0.00     0.024 NA
HETATM   12  N   UNL     1      30.980  44.038  56.399  1.00  0.00    -0.196 N 
HETATM   13  C   UNL     1      32.047  43.429  57.145  1.00  0.00     0.200 C 
HETATM   14  N   UNL     1      30.285  43.359  55.469  1.00  0.00    -0.137 NA
ENDBRANCH   6   9
ENDBRANCH   2   3
ENDBRANCH   1   2
BRANCH   1  15
HETATM   15  C   UNL     1      24.416  45.559  50.071  1.00  0.00     0.246 C 
HETATM   16  N   UNL     1      24.319  46.893  50.412  1.00  0.00    -0.324 N 
HETATM   17  H   UNL     1      24.169  47.081  51.398  1.00  0.00     0.169 HD
HETATM   18  O   UNL     1      24.552  45.101  48.938  1.00  0.00    -0.271 OA
BRANCH  16  19
HETATM   19  C   UNL     1      24.369  48.018  49.567  1.00  0.00     0.047 A 
HETATM   20  C   UNL     1      25.638  48.586  49.276  1.00  0.00     0.019 A 
HETATM   21  C   UNL     1      25.708  49.699  48.434  1.00  0.00     0.044 A 
HETATM   22  C   UNL     1      26.980  48.291  49.670  1.00  0.00     0.033 A 
HETATM   23  N   UNL     1      27.036  50.051  48.325  1.00  0.00    -0.365 N 
HETATM   24  C   UNL     1      24.578  50.284  47.855  1.00  0.00     0.030 A 
HETATM   25  H   UNL     1      27.378  50.827  47.775  1.00  0.00     0.165 HD
HETATM   26  C   UNL     1      27.812  49.208  49.072  1.00  0.00     0.089 A 
HETATM   27  C   UNL     1      23.339  49.716  48.150  1.00  0.00     0.005 A 
HETATM   28  C   UNL     1      23.234  48.607  48.991  1.00  0.00     0.030 A 
ENDBRANCH  16  19
ENDBRANCH   1  15
TORSDOF 5
ENDMDL
MODEL 2
REMARK VINA RESULT:      -9.1      2.070      7.830
REMARK  5 active torsions:
REMARK  status: ('A' for Active; 'I' for Inactive)
REMARK    1  A    between atoms: C_5  and  C_6 
REMARK    2  A    between atoms: C_9  and  O_10 
REMARK    3  A    between atoms: O_10  and  C_11 
REMARK    4  A    between atoms: C_11  and  C_12 
REMARK       I    between atoms: C_12  and  N_13 
REMARK    5  A    between atoms: N_13  and  C_14 
ROOT
HETATM    1  C   UNL     1      27.867  41.562  52.052  1.00  0.00     0.278 C 
ENDROOT
BRANCH   1   2
HETATM    2  O   UNL     1      26.602  41.813  51.448  1.00  0.00    -0.342 OA
BRANCH   2   3
HETATM    3  C   UNL     1      26.328  43.115  51.131  1.00  0.00     0.069 A 
HETATM    4  C   UNL     1      27.261  43.738  50.301  1.00  0.00     0.038 A 
HETATM    5  C   UNL     1      27.064  45.056  49.880  1.00  0.00     0.018 A 
HETATM    6  C   UNL     1      25.917  45.763  50.266  1.00  0.00     0.015 A 
HETATM    7  C   UNL     1      24.976  45.119  51.084  1.00  0.00     0.018 A 
HETATM    8  C   UNL     1      25.177  43.801  51.513  1.00  0.00     0.038 A 
BRANCH   6   9
HETATM    9  C   UNL     1      25.708  47.132  49.814  1.00  0.00     0.198 A 
HETATM   10  N   UNL     1      24.555  47.839  50.082  1.00  0.00    -0.136 NA
HETATM   11  N   UNL     1      24.705  49.040  49.542  1.00  0.00     0.024 NA
HETATM   12  N   UNL     1      25.920  49.007  48.978  1.00  0.00    -0.196 N 
HETATM   13  C   UNL     1      26.481  50.147  48.305  1.00  0.00     0.200 C 
HETATM   14  N   UNL     1      26.599  47.853  49.108  1.00  0.00    -0.137 NA
ENDBRANCH   6   9
ENDBRANCH   2   3
ENDBRANCH   1   2
BRANCH   1  15
HETATM   15  C   UNL     1      28.049  42.177  53.445  1.00  0.00     0.246 C 
HETATM   16  N   UNL     1      29.170  42.978  53.542  1.00  0.00    -0.324 N 
HETATM   17  H   UNL     1      29.737  43.038  52.702  1.00  0.00     0.169 HD
HETATM   18  O   UNL     1      27.249  41.926  54.343  1.00  0.00    -0.271 OA
BRANCH  16  19
HETATM   19  C   UNL     1      29.640  43.693  54.660  1.00  0.00     0.047 A 
HETATM   20  C   UNL     1      28.950  44.873  55.043  1.00  0.00     0.019 A 
HETATM   21  C   UNL     1      29.398  45.593  56.154  1.00  0.00     0.044 A 
HETATM   22  C   UNL     1      27.821  45.584  54.529  1.00  0.00     0.033 A 
HETATM   23  N   UNL     1      28.569  46.684  56.301  1.00  0.00    -0.365 N 
HETATM   24  C   UNL     1      30.502  45.201  56.916  1.00  0.00     0.030 A 
HETATM   25  H   UNL     1      28.664  47.379  57.028  1.00  0.00     0.165 HD
HETATM   26  C   UNL     1      27.615  46.689  55.321  1.00  0.00     0.089 A 
HETATM   27  C   UNL     1      31.170  44.040  56.528  1.00  0.00     0.005 A 
HETATM   28  C   UNL     1      30.751  43.301  55.420  1.00  0.00     0.030 A 
ENDBRANCH  16  19
ENDBRANCH   1  15
TORSDOF 5
ENDMDL
MODEL 3
REMARK VINA RESULT:      -9.1      2.049      8.416
REMARK  5 active torsions:
REMARK  status: ('A' for Active; 'I' for Inactive)
REMARK    1  A    between atoms: C_5  and  C_6 
REMARK    2  A    between atoms: C_9  and  O_10 
REMARK    3  A    between atoms: O_10  and  C_11 
REMARK    4  A    between atoms: C_11  and  C_12 
REMARK       I    between atoms: C_12  and  N_13 
REMARK    5  A    between atoms: N_13  and  C_14 
ROOT
HETATM    1  C   UNL     1      28.394  42.609  52.089  1.00  0.00     0.278 C 
ENDROOT
BRANCH   1   2
HETATM    2  O   UNL     1      27.171  42.472  51.371  1.00  0.00    -0.342 OA
BRANCH   2   3
HETATM    3  C   UNL     1      26.510  43.630  51.072  1.00  0.00     0.069 A 
HETATM    4  C   UNL     1      27.189  44.504  50.222  1.00  0.00     0.038 A 
HETATM    5  C   UNL     1      26.593  45.701  49.816  1.00  0.00     0.018 A 
HETATM    6  C   UNL     1      25.298  46.031  50.237  1.00  0.00     0.015 A 
HETATM    7  C   UNL     1      24.617  45.135  51.075  1.00  0.00     0.018 A 
HETATM    8  C   UNL     1      25.217  43.939  51.489  1.00  0.00     0.038 A 
BRANCH   6   9
HETATM    9  C   UNL     1      24.674  47.273  49.801  1.00  0.00     0.198 A 
HETATM   10  N   UNL     1      25.368  48.459  49.691  1.00  0.00    -0.136 NA
HETATM   11  N   UNL     1      24.507  49.371  49.261  1.00  0.00     0.024 NA
HETATM   12  N   UNL     1      23.350  48.708  49.133  1.00  0.00    -0.196 N 
HETATM   13  C   UNL     1      22.155  49.345  48.651  1.00  0.00     0.200 C 
HETATM   14  N   UNL     1      23.380  47.402  49.452  1.00  0.00    -0.137 NA
ENDBRANCH   6   9
ENDBRANCH   2   3
ENDBRANCH   1   2
BRANCH   1  15
HETATM   15  C   UNL     1      28.239  43.058  53.547  1.00  0.00     0.246 C 
HETATM   16  N   UNL     1      29.060  44.118  53.878  1.00  0.00    -0.324 N 
HETATM   17  H   UNL     1      29.672  44.444  53.138  1.00  0.00     0.169 HD
HETATM   18  O   UNL     1      27.455  42.478  54.295  1.00  0.00    -0.271 OA
BRANCH  16  19
HETATM   19  C   UNL     1      29.179  44.779  55.116  1.00  0.00     0.047 A 
HETATM   20  C   UNL     1      30.196  44.353  56.011  1.00  0.00     0.019 A 
HETATM   21  C   UNL     1      30.333  45.000  57.242  1.00  0.00     0.044 A 
HETATM   22  C   UNL     1      31.196  43.331  55.978  1.00  0.00     0.033 A 
HETATM   23  N   UNL     1      31.374  44.395  57.913  1.00  0.00    -0.365 N 
HETATM   24  C   UNL     1      29.512  46.060  57.637  1.00  0.00     0.030 A 
HETATM   25  H   UNL     1      31.693  44.664  58.834  1.00  0.00     0.165 HD
HETATM   26  C   UNL     1      31.900  43.383  57.158  1.00  0.00     0.089 A 
HETATM   27  C   UNL     1      28.518  46.467  56.748  1.00  0.00     0.005 A 
HETATM   28  C   UNL     1      28.351  45.838  55.513  1.00  0.00     0.030 A 
ENDBRANCH  16  19
ENDBRANCH   1  15
TORSDOF 5
ENDMDL
MODEL 4
REMARK VINA RESULT:      -8.5      3.357      4.912
REMARK  5 active torsions:
REMARK  status: ('A' for Active; 'I' for Inactive)
REMARK    1  A    between atoms: C_5  and  C_6 
REMARK    2  A    between atoms: C_9  and  O_10 
REMARK    3  A    between atoms: O_10  and  C_11 
REMARK    4  A    between atoms: C_11  and  C_12 
REMARK       I    between atoms: C_12  and  N_13 
REMARK    5  A    between atoms: N_13  and  C_14 
ROOT
HETATM    1  C   UNL     1      23.793  47.284  49.648  1.00  0.00     0.278 C 
ENDROOT
BRANCH   1   2
HETATM    2  O   UNL     1      24.503  47.861  50.741  1.00  0.00    -0.342 OA
BRANCH   2   3
HETATM    3  C   UNL     1      25.272  47.008  51.483  1.00  0.00     0.069 A 
HETATM    4  C   UNL     1      25.754  45.890  50.802  1.00  0.00     0.038 A 
HETATM    5  C   UNL     1      26.583  44.971  51.449  1.00  0.00     0.018 A 
HETATM    6  C   UNL     1      26.962  45.169  52.784  1.00  0.00     0.015 A 
HETATM    7  C   UNL     1      26.488  46.308  53.452  1.00  0.00     0.018 A 
HETATM    8  C   UNL     1      25.650  47.225  52.807  1.00  0.00     0.038 A 
BRANCH   6   9
HETATM    9  C   UNL     1      27.838  44.216  53.451  1.00  0.00     0.198 A 
HETATM   10  N   UNL     1      27.689  42.851  53.329  1.00  0.00    -0.136 NA
HETATM   11  N   UNL     1      28.652  42.292  54.048  1.00  0.00     0.024 NA
HETATM   12  N   UNL     1      29.328  43.325  54.568  1.00  0.00    -0.196 N 
HETATM   13  C   UNL     1      30.487  43.139  55.397  1.00  0.00     0.200 C 
HETATM   14  N   UNL     1      28.878  44.549  54.239  1.00  0.00    -0.137 NA
ENDBRANCH   6   9
ENDBRANCH   2   3
ENDBRANCH   1   2
BRANCH   1  15
HETATM   15  C   UNL     1      22.891  48.258  48.881  1.00  0.00     0.246 C 
HETATM   16  N   UNL     1      21.843  48.740  49.641  1.00  0.00    -0.324 N 
HETATM   17  H   UNL     1      21.787  48.377  50.587  1.00  0.00     0.169 HD
HETATM   18  O   UNL     1      23.125  48.524  47.704  1.00  0.00    -0.271 OA
BRANCH  16  19
HETATM   19  C   UNL     1      20.831  49.642  49.262  1.00  0.00     0.047 A 
HETATM   20  C   UNL     1      19.499  49.158  49.167  1.00  0.00     0.019 A 
HETATM   21  C   UNL     1      18.479  50.039  48.798  1.00  0.00     0.044 A 
HETATM   22  C   UNL     1      18.882  47.882  49.356  1.00  0.00     0.033 A 
HETATM   23  N   UNL     1      17.303  49.323  48.773  1.00  0.00    -0.365 N 
HETATM   24  C   UNL     1      18.709  51.390  48.520  1.00  0.00     0.030 A 
HETATM   25  H   UNL     1      16.401  49.713  48.536  1.00  0.00     0.165 HD
HETATM   26  C   UNL     1      17.536  48.017  49.105  1.00  0.00     0.089 A 
HETATM   27  C   UNL     1      20.021  51.851  48.618  1.00  0.00     0.005 A 
HETATM   28  C   UNL     1      21.064  50.995  48.978  1.00  0.00     0.030 A 
ENDBRANCH  16  19
ENDBRANCH   1  15
TORSDOF 5
ENDMDL
MODEL 5
REMARK VINA RESULT:      -8.2      4.203     10.117
REMARK  5 active torsions:
REMARK  status: ('A' for Active; 'I' for Inactive)
REMARK    1  A    between atoms: C_5  and  C_6 
REMARK    2  A    between atoms: C_9  and  O_10 
REMARK    3  A    between atoms: O_10  and  C_11 
REMARK    4  A    between atoms: C_11  and  C_12 
REMARK       I    between atoms: C_12  and  N_13 
REMARK    5  A    between atoms: N_13  and  C_14 
ROOT
HETATM    1  C   UNL     1      24.273  47.513  49.975  1.00  0.00     0.278 C 
ENDROOT
BRANCH   1   2
HETATM    2  O   UNL     1      24.292  48.669  49.142  1.00  0.00    -0.342 OA
BRANCH   2   3
HETATM    3  C   UNL     1      23.110  49.346  49.016  1.00  0.00     0.069 A 
HETATM    4  C   UNL     1      21.959  48.577  49.191  1.00  0.00     0.038 A 
HETATM    5  C   UNL     1      20.696  49.170  49.123  1.00  0.00     0.018 A 
HETATM    6  C   UNL     1      20.566  50.549  48.902  1.00  0.00     0.015 A 
HETATM    7  C   UNL     1      21.732  51.315  48.748  1.00  0.00     0.018 A 
HETATM    8  C   UNL     1      22.998  50.719  48.806  1.00  0.00     0.038 A 
BRANCH   6   9
HETATM    9  C   UNL     1      19.249  51.167  48.846  1.00  0.00     0.198 A 
HETATM   10  N   UNL     1      18.383  50.986  47.788  1.00  0.00    -0.136 NA
HETATM   11  N   UNL     1      17.284  51.672  48.068  1.00  0.00     0.024 NA
HETATM   12  N   UNL     1      17.529  52.231  49.261  1.00  0.00    -0.196 N 
HETATM   13  C   UNL     1      16.555  53.041  49.939  1.00  0.00     0.200 C 
HETATM   14  N   UNL     1      18.730  51.960  49.802  1.00  0.00    -0.137 NA
ENDBRANCH   6   9
ENDBRANCH   2   3
ENDBRANCH   1   2
BRANCH   1  15
HETATM   15  C   UNL     1      25.544  47.296  50.804  1.00  0.00     0.246 C 
HETATM   16  N   UNL     1      25.419  46.282  51.733  1.00  0.00    -0.324 N 
HETATM   17  H   UNL     1      24.510  45.832  51.768  1.00  0.00     0.169 HD
HETATM   18  O   UNL     1      26.533  48.002  50.620  1.00  0.00    -0.271 OA
BRANCH  16  19
HETATM   19  C   UNL     1      26.377  45.816  52.654  1.00  0.00     0.047 A 
HETATM   20  C   UNL     1      26.610  46.582  53.827  1.00  0.00     0.019 A 
HETATM   21  C   UNL     1      27.552  46.133  54.756  1.00  0.00     0.044 A 
HETATM   22  C   UNL     1      26.090  47.811  54.340  1.00  0.00     0.033 A 
HETATM   23  N   UNL     1      27.590  47.052  55.783  1.00  0.00    -0.365 N 
HETATM   24  C   UNL     1      28.281  44.953  54.587  1.00  0.00     0.030 A 
HETATM   25  H   UNL     1      28.189  46.978  56.594  1.00  0.00     0.165 HD
HETATM   26  C   UNL     1      26.712  48.072  55.539  1.00  0.00     0.089 A 
HETATM   27  C   UNL     1      28.041  44.211  53.430  1.00  0.00     0.005 A 
HETATM   28  C   UNL     1      27.111  44.634  52.479  1.00  0.00     0.030 A 
ENDBRANCH  16  19
ENDBRANCH   1  15
TORSDOF 5
ENDMDL
MODEL 6
REMARK VINA RESULT:      -8.2      2.338      8.545
REMARK  5 active torsions:
REMARK  status: ('A' for Active; 'I' for Inactive)
REMARK    1  A    between atoms: C_5  and  C_6 
REMARK    2  A    between atoms: C_9  and  O_10 
REMARK    3  A    between atoms: O_10  and  C_11 
REMARK    4  A    between atoms: C_11  and  C_12 
REMARK       I    between atoms: C_12  and  N_13 
REMARK    5  A    between atoms: N_13  and  C_14 
ROOT
HETATM    1  C   UNL     1      25.285  43.328  51.019  1.00  0.00     0.278 C 
ENDROOT
BRANCH   1   2
HETATM    2  O   UNL     1      25.071  43.784  49.686  1.00  0.00    -0.342 OA
BRANCH   2   3
HETATM    3  C   UNL     1      24.450  44.995  49.551  1.00  0.00     0.069 A 
HETATM    4  C   UNL     1      25.034  46.049  50.254  1.00  0.00     0.038 A 
HETATM    5  C   UNL     1      24.508  47.339  50.160  1.00  0.00     0.018 A 
HETATM    6  C   UNL     1      23.401  47.599  49.340  1.00  0.00     0.015 A 
HETATM    7  C   UNL     1      22.835  46.535  48.621  1.00  0.00     0.018 A 
HETATM    8  C   UNL     1      23.357  45.239  48.723  1.00  0.00     0.038 A 
BRANCH   6   9
HETATM    9  C   UNL     1      22.863  48.948  49.232  1.00  0.00     0.198 A 
HETATM   10  N   UNL     1      23.653  50.076  49.308  1.00  0.00    -0.136 NA
HETATM   11  N   UNL     1      22.850  51.120  49.159  1.00  0.00     0.024 NA
HETATM   12  N   UNL     1      21.630  50.588  49.003  1.00  0.00    -0.196 N 
HETATM   13  C   UNL     1      20.467  51.400  48.777  1.00  0.00     0.200 C 
HETATM   14  N   UNL     1      21.564  49.245  49.038  1.00  0.00    -0.137 NA
ENDBRANCH   6   9
ENDBRANCH   2   3
ENDBRANCH   1   2
BRANCH   1  15
HETATM   15  C   UNL     1      26.712  43.526  51.547  1.00  0.00     0.246 C 
HETATM   16  N   UNL     1      26.793  43.470  52.924  1.00  0.00    -0.324 N 
HETATM   17  H   UNL     1      25.912  43.333  53.408  1.00  0.00     0.169 HD
HETATM   18  O   UNL     1      27.639  43.729  50.766  1.00  0.00    -0.271 OA
BRANCH  16  19
HETATM   19  C   UNL     1      27.933  43.610  53.739  1.00  0.00     0.047 A 
HETATM   20  C   UNL     1      28.118  44.836  54.433  1.00  0.00     0.019 A 
HETATM   21  C   UNL     1      29.240  44.991  55.251  1.00  0.00     0.044 A 
HETATM   22  C   UNL     1      27.392  46.065  54.504  1.00  0.00     0.033 A 
HETATM   23  N   UNL     1      29.184  46.257  55.792  1.00  0.00    -0.365 N 
HETATM   24  C   UNL     1      30.196  43.987  55.425  1.00  0.00     0.030 A 
HETATM   25  H   UNL     1      29.873  46.639  56.425  1.00  0.00     0.165 HD
HETATM   26  C   UNL     1      28.072  46.916  55.343  1.00  0.00     0.089 A 
HETATM   27  C   UNL     1      30.001  42.789  54.738  1.00  0.00     0.005 A 
HETATM   28  C   UNL     1      28.894  42.603  53.908  1.00  0.00     0.030 A 
ENDBRANCH  16  19
ENDBRANCH   1  15
TORSDOF 5
ENDMDL
MODEL 7
REMARK VINA RESULT:      -8.1      8.621     12.148
REMARK  5 active torsions:
REMARK  status: ('A' for Active; 'I' for Inactive)
REMARK    1  A    between atoms: C_5  and  C_6 
REMARK    2  A    between atoms: C_9  and  O_10 
REMARK    3  A    between atoms: O_10  and  C_11 
REMARK    4  A    between atoms: C_11  and  C_12 
REMARK       I    between atoms: C_12  and  N_13 
REMARK    5  A    between atoms: N_13  and  C_14 
ROOT
HETATM    1  C   UNL     1      17.496  52.694  49.502  1.00  0.00     0.278 C 
ENDROOT
BRANCH   1   2
HETATM    2  O   UNL     1      17.853  51.323  49.650  1.00  0.00    -0.342 OA
BRANCH   2   3
HETATM    3  C   UNL     1      19.172  51.015  49.461  1.00  0.00     0.069 A 
HETATM    4  C   UNL     1      19.565  50.853  48.133  1.00  0.00     0.038 A 
HETATM    5  C   UNL     1      20.898  50.576  47.818  1.00  0.00     0.018 A 
HETATM    6  C   UNL     1      21.863  50.480  48.830  1.00  0.00     0.015 A 
HETATM    7  C   UNL     1      21.460  50.667  50.161  1.00  0.00     0.018 A 
HETATM    8  C   UNL     1      20.122  50.936  50.477  1.00  0.00     0.038 A 
BRANCH   6   9
HETATM    9  C   UNL     1      23.255  50.206  48.498  1.00  0.00     0.198 A 
HETATM   10  N   UNL     1      23.817  50.553  47.288  1.00  0.00    -0.136 NA
HETATM   11  N   UNL     1      25.086  50.171  47.329  1.00  0.00     0.024 NA
HETATM   12  N   UNL     1      25.233  49.617  48.540  1.00  0.00    -0.196 N 
HETATM   13  C   UNL     1      26.494  49.100  48.995  1.00  0.00     0.200 C 
HETATM   14  N   UNL     1      24.136  49.604  49.319  1.00  0.00    -0.137 NA
ENDBRANCH   6   9
ENDBRANCH   2   3
ENDBRANCH   1   2
BRANCH   1  15
HETATM   15  C   UNL     1      16.001  52.992  49.670  1.00  0.00     0.246 C 
HETATM   16  N   UNL     1      15.707  54.340  49.616  1.00  0.00    -0.324 N 
HETATM   17  H   UNL     1      16.505  54.956  49.500  1.00  0.00     0.169 HD
HETATM   18  O   UNL     1      15.202  52.075  49.849  1.00  0.00    -0.271 OA
BRANCH  16  19
HETATM   19  C   UNL     1      14.451  54.967  49.733  1.00  0.00     0.047 A 
HETATM   20  C   UNL     1      14.000  55.332  51.029  1.00  0.00     0.019 A 
HETATM   21  C   UNL     1      12.759  55.961  51.164  1.00  0.00     0.044 A 
HETATM   22  C   UNL     1      14.531  55.197  52.349  1.00  0.00     0.033 A 
HETATM   23  N   UNL     1      12.560  56.196  52.507  1.00  0.00    -0.365 N 
HETATM   24  C   UNL     1      11.935  56.254  50.074  1.00  0.00     0.030 A 
HETATM   25  H   UNL     1      11.739  56.641  52.894  1.00  0.00     0.165 HD
HETATM   26  C   UNL     1      13.624  55.735  53.232  1.00  0.00     0.089 A 
HETATM   27  C   UNL     1      12.392  55.890  48.808  1.00  0.00     0.005 A 
HETATM   28  C   UNL     1      13.624  55.256  48.638  1.00  0.00     0.030 A 
ENDBRANCH  16  19
ENDBRANCH   1  15
TORSDOF 5
ENDMDL
MODEL 8
REMARK VINA RESULT:      -7.8      8.676     12.242
REMARK  5 active torsions:
REMARK  status: ('A' for Active; 'I' for Inactive)
REMARK    1  A    between atoms: C_5  and  C_6 
REMARK    2  A    between atoms: C_9  and  O_10 
REMARK    3  A    between atoms: O_10  and  C_11 
REMARK    4  A    between atoms: C_11  and  C_12 
REMARK       I    between atoms: C_12  and  N_13 
REMARK    5  A    between atoms: N_13  and  C_14 
ROOT
HETATM    1  C   UNL     1      17.265  52.575  49.244  1.00  0.00     0.278 C 
ENDROOT
BRANCH   1   2
HETATM    2  O   UNL     1      17.834  51.328  49.634  1.00  0.00    -0.342 OA
BRANCH   2   3
HETATM    3  C   UNL     1      19.133  51.113  49.266  1.00  0.00     0.069 A 
HETATM    4  C   UNL     1      20.016  50.846  50.313  1.00  0.00     0.038 A 
HETATM    5  C   UNL     1      21.360  50.572  50.052  1.00  0.00     0.018 A 
HETATM    6  C   UNL     1      21.838  50.536  48.735  1.00  0.00     0.015 A 
HETATM    7  C   UNL     1      20.936  50.785  47.688  1.00  0.00     0.018 A 
HETATM    8  C   UNL     1      19.590  51.070  47.950  1.00  0.00     0.038 A 
BRANCH   6   9
HETATM    9  C   UNL     1      23.237  50.236  48.465  1.00  0.00     0.198 A 
HETATM   10  N   UNL     1      23.845  50.525  47.261  1.00  0.00    -0.136 NA
HETATM   11  N   UNL     1      25.107  50.135  47.364  1.00  0.00     0.024 NA
HETATM   12  N   UNL     1      25.207  49.634  48.602  1.00  0.00    -0.196 N 
HETATM   13  C   UNL     1      26.447  49.127  49.124  1.00  0.00     0.200 C 
HETATM   14  N   UNL     1      24.084  49.664  49.342  1.00  0.00    -0.137 NA
ENDBRANCH   6   9
ENDBRANCH   2   3
ENDBRANCH   1   2
BRANCH   1  15
HETATM   15  C   UNL     1      15.911  52.895  49.889  1.00  0.00     0.246 C 
HETATM   16  N   UNL     1      15.800  54.210  50.293  1.00  0.00    -0.324 N 
HETATM   17  H   UNL     1      16.622  54.785  50.140  1.00  0.00     0.169 HD
HETATM   18  O   UNL     1      15.062  52.015  50.017  1.00  0.00    -0.271 OA
BRANCH  16  19
HETATM   19  C   UNL     1      14.708  54.845  50.917  1.00  0.00     0.047 A 
HETATM   20  C   UNL     1      13.568  55.153  50.128  1.00  0.00     0.019 A 
HETATM   21  C   UNL     1      12.473  55.777  50.730  1.00  0.00     0.044 A 
HETATM   22  C   UNL     1      13.231  54.985  48.749  1.00  0.00     0.033 A 
HETATM   23  N   UNL     1      11.519  55.969  49.754  1.00  0.00    -0.365 N 
HETATM   24  C   UNL     1      12.442  56.112  52.087  1.00  0.00     0.030 A 
HETATM   25  H   UNL     1      10.620  56.403  49.911  1.00  0.00     0.165 HD
HETATM   26  C   UNL     1      11.969  55.498  48.552  1.00  0.00     0.089 A 
HETATM   27  C   UNL     1      13.568  55.802  52.849  1.00  0.00     0.005 A 
HETATM   28  C   UNL     1      14.682  55.184  52.277  1.00  0.00     0.030 A 
ENDBRANCH  16  19
ENDBRANCH   1  15
TORSDOF 5
ENDMDL
MODEL 9
REMARK VINA RESULT:      -7.7      1.665      2.245
REMARK  5 active torsions:
REMARK  status: ('A' for Active; 'I' for Inactive)
REMARK    1  A    between atoms: C_5  and  C_6 
REMARK    2  A    between atoms: C_9  and  O_10 
REMARK    3  A    between atoms: O_10  and  C_11 
REMARK    4  A    between atoms: C_11  and  C_12 
REMARK       I    between atoms: C_12  and  N_13 
REMARK    5  A    between atoms: N_13  and  C_14 
ROOT
HETATM    1  C   UNL     1      25.071  44.639  50.375  1.00  0.00     0.278 C 
ENDROOT
BRANCH   1   2
HETATM    2  O   UNL     1      25.034  45.356  51.606  1.00  0.00    -0.342 OA
BRANCH   2   3
HETATM    3  C   UNL     1      26.110  45.196  52.434  1.00  0.00     0.069 A 
HETATM    4  C   UNL     1      26.170  46.076  53.515  1.00  0.00     0.038 A 
HETATM    5  C   UNL     1      27.205  45.980  54.448  1.00  0.00     0.018 A 
HETATM    6  C   UNL     1      28.184  44.984  54.327  1.00  0.00     0.015 A 
HETATM    7  C   UNL     1      28.101  44.091  53.248  1.00  0.00     0.018 A 
HETATM    8  C   UNL     1      27.069  44.193  52.307  1.00  0.00     0.038 A 
BRANCH   6   9
HETATM    9  C   UNL     1      29.253  44.877  55.310  1.00  0.00     0.198 A 
HETATM   10  N   UNL     1      29.563  45.891  56.191  1.00  0.00    -0.136 NA
HETATM   11  N   UNL     1      30.565  45.457  56.942  1.00  0.00     0.024 NA
HETATM   12  N   UNL     1      30.815  44.222  56.490  1.00  0.00    -0.196 N 
HETATM   13  C   UNL     1      31.828  43.385  57.074  1.00  0.00     0.200 C 
HETATM   14  N   UNL     1      30.039  43.796  55.477  1.00  0.00    -0.137 NA
ENDBRANCH   6   9
ENDBRANCH   2   3
ENDBRANCH   1   2
BRANCH   1  15
HETATM   15  C   UNL     1      24.134  45.179  49.287  1.00  0.00     0.246 C 
HETATM   16  N   UNL     1      23.526  46.368  49.637  1.00  0.00    -0.324 N 
HETATM   17  H   UNL     1      23.750  46.717  50.563  1.00  0.00     0.169 HD
HETATM   18  O   UNL     1      23.974  44.554  48.241  1.00  0.00    -0.271 OA
BRANCH  16  19
HETATM   19  C   UNL     1      22.614  47.137  48.888  1.00  0.00     0.047 A 
HETATM   20  C   UNL     1      22.973  48.470  48.555  1.00  0.00     0.019 A 
HETATM   21  C   UNL     1      22.084  49.248  47.808  1.00  0.00     0.044 A 
HETATM   22  C   UNL     1      24.107  49.298  48.824  1.00  0.00     0.033 A 
HETATM   23  N   UNL     1      22.664  50.485  47.633  1.00  0.00    -0.365 N 
HETATM   24  C   UNL     1      20.848  48.770  47.364  1.00  0.00     0.030 A 
HETATM   25  H   UNL     1      22.238  51.249  47.127  1.00  0.00     0.165 HD
HETATM   26  C   UNL     1      23.886  50.527  48.247  1.00  0.00     0.089 A 
HETATM   27  C   UNL     1      20.509  47.459  47.699  1.00  0.00     0.005 A 
HETATM   28  C   UNL     1      21.372  46.658  48.449  1.00  0.00     0.030 A 
ENDBRANCH  16  19
ENDBRANCH   1  15
TORSDOF 5
ENDMDL
MODEL 10
REMARK VINA RESULT:      -7.7      3.103      9.225
REMARK  5 active torsions:
REMARK  status: ('A' for Active; 'I' for Inactive)
REMARK    1  A    between atoms: C_5  and  C_6 
REMARK    2  A    between atoms: C_9  and  O_10 
REMARK    3  A    between atoms: O_10  and  C_11 
REMARK    4  A    between atoms: C_11  and  C_12 
REMARK       I    between atoms: C_12  and  N_13 
REMARK    5  A    between atoms: N_13  and  C_14 
ROOT
HETATM    1  C   UNL     1      27.137  43.147  52.041  1.00  0.00     0.278 C 
ENDROOT
BRANCH   1   2
HETATM    2  O   UNL     1      26.749  44.441  51.586  1.00  0.00    -0.342 OA
BRANCH   2   3
HETATM    3  C   UNL     1      25.625  44.499  50.810  1.00  0.00     0.069 A 
HETATM    4  C   UNL     1      24.692  43.485  51.031  1.00  0.00     0.038 A 
HETATM    5  C   UNL     1      23.488  43.466  50.323  1.00  0.00     0.018 A 
HETATM    6  C   UNL     1      23.188  44.477  49.399  1.00  0.00     0.015 A 
HETATM    7  C   UNL     1      24.124  45.503  49.201  1.00  0.00     0.018 A 
HETATM    8  C   UNL     1      25.336  45.518  49.904  1.00  0.00     0.038 A 
BRANCH   6   9
HETATM    9  C   UNL     1      21.925  44.462  48.673  1.00  0.00     0.198 A 
HETATM   10  N   UNL     1      21.634  43.531  47.699  1.00  0.00    -0.136 NA
HETATM   11  N   UNL     1      20.412  43.800  47.262  1.00  0.00     0.024 NA
HETATM   12  N   UNL     1      20.025  44.865  47.976  1.00  0.00    -0.196 N 
HETATM   13  C   UNL     1      18.723  45.455  47.822  1.00  0.00     0.200 C 
HETATM   14  N   UNL     1      20.915  45.330  48.871  1.00  0.00    -0.137 NA
ENDBRANCH   6   9
ENDBRANCH   2   3
ENDBRANCH   1   2
BRANCH   1  15
HETATM   15  C   UNL     1      27.668  43.103  53.479  1.00  0.00     0.246 C 
HETATM   16  N   UNL     1      28.856  43.789  53.640  1.00  0.00    -0.324 N 
HETATM   17  H   UNL     1      29.236  44.207  52.797  1.00  0.00     0.169 HD
HETATM   18  O   UNL     1      27.056  42.486  54.348  1.00  0.00    -0.271 OA
BRANCH  16  19
HETATM   19  C   UNL     1      29.619  43.954  54.812  1.00  0.00     0.047 A 
HETATM   20  C   UNL     1      29.237  44.973  55.725  1.00  0.00     0.019 A 
HETATM   21  C   UNL     1      29.979  45.148  56.897  1.00  0.00     0.044 A 
HETATM   22  C   UNL     1      28.205  45.961  55.748  1.00  0.00     0.033 A 
HETATM   23  N   UNL     1      29.410  46.193  57.592  1.00  0.00    -0.365 N 
HETATM   24  C   UNL     1      31.086  44.359  57.218  1.00  0.00     0.030 A 
HETATM   25  H   UNL     1      29.747  46.538  58.481  1.00  0.00     0.165 HD
HETATM   26  C   UNL     1      28.339  46.694  56.904  1.00  0.00     0.089 A 
HETATM   27  C   UNL     1      31.449  43.363  56.312  1.00  0.00     0.005 A 
HETATM   28  C   UNL     1      30.733  43.165  55.130  1.00  0.00     0.030 A 
ENDBRANCH  16  19
ENDBRANCH   1  15
TORSDOF 5
ENDMDL
