MODEL 1
REMARK VINA RESULT:      -9.3      0.000      0.000
REMARK  2 active torsions:
REMARK  status: ('A' for Active; 'I' for Inactive)
REMARK    1  A    between atoms: O_2  and  C_3 
REMARK    2  A    between atoms: C_7  and  N_8 
REMARK       I    between atoms: N_8  and  C_9 
REMARK       I    between atoms: C_9  and  N_10 
ROOT
HETATM    1  N   UNL     1      25.679  46.516  51.415  1.00  0.00    -0.307 N 
HETATM    2  C   UNL     1      25.982  46.889  52.702  1.00  0.00     0.323 C 
HETATM    3  N   UNL     1      26.688  45.950  53.445  1.00  0.00    -0.328 N 
HETATM    4  C   UNL     1      26.805  46.225  54.886  1.00  0.00     0.185 C 
HETATM    5  C   UNL     1      28.038  45.591  55.418  1.00  0.00     0.035 A 
HETATM    6  C   UNL     1      28.877  44.717  54.762  1.00  0.00    -0.020 A 
HETATM    7  C   UNL     1      28.619  44.323  53.354  1.00  0.00     0.061 C 
HETATM    8  C   UNL     1      27.153  44.622  52.975  1.00  0.00     0.132 C 
HETATM    9  N   UNL     1      28.538  45.799  56.674  1.00  0.00    -0.357 N 
HETATM   10  H   UNL     1      28.137  46.406  57.376  1.00  0.00     0.166 HD
HETATM   11  C   UNL     1      29.698  45.072  56.842  1.00  0.00     0.043 A 
HETATM   12  C   UNL     1      29.933  44.380  55.651  1.00  0.00    -0.001 A 
HETATM   13  C   UNL     1      30.553  44.985  57.946  1.00  0.00     0.030 A 
HETATM   14  C   UNL     1      31.681  44.168  57.830  1.00  0.00     0.002 A 
HETATM   15  C   UNL     1      31.941  43.465  56.656  1.00  0.00     0.001 A 
HETATM   16  C   UNL     1      31.076  43.562  55.559  1.00  0.00     0.014 A 
HETATM   17  O   UNL     1      25.650  47.968  53.190  1.00  0.00    -0.247 OA
HETATM   18  H   UNL     1      25.560  45.529  51.249  1.00  0.00     0.170 HD
ENDROOT
BRANCH   1  19
HETATM   19  C   UNL     1      25.139  47.343  50.397  1.00  0.00     0.058 A 
HETATM   20  C   UNL     1      25.988  48.235  49.723  1.00  0.00     0.063 A 
HETATM   21  C   UNL     1      25.500  49.062  48.708  1.00  0.00     0.063 A 
HETATM   22 CL   UNL     1      27.673  48.328  50.116  1.00  0.00    -0.082 Cl
HETATM   23  C   UNL     1      24.153  49.016  48.350  1.00  0.00     0.070 A 
HETATM   24  C   UNL     1      23.294  48.160  49.037  1.00  0.00     0.039 A 
HETATM   25  C   UNL     1      23.785  47.332  50.055  1.00  0.00     0.034 A 
BRANCH  23  26
HETATM   26  O   UNL     1      23.798  49.858  47.332  1.00  0.00    -0.356 OA
HETATM   27  C   UNL     1      22.605  50.612  47.514  1.00  0.00     0.210 C 
ENDBRANCH  23  26
ENDBRANCH   1  19
TORSDOF 2
ENDMDL
MODEL 2
REMARK VINA RESULT:      -9.0      5.422      6.021
REMARK  2 active torsions:
REMARK  status: ('A' for Active; 'I' for Inactive)
REMARK    1  A    between atoms: O_2  and  C_3 
REMARK    2  A    between atoms: C_7  and  N_8 
REMARK       I    between atoms: N_8  and  C_9 
REMARK       I    between atoms: C_9  and  N_10 
ROOT
HETATM    1  N   UNL     1      27.273  41.381  49.325  1.00  0.00    -0.307 N 
HETATM    2  C   UNL     1      27.176  42.591  49.967  1.00  0.00     0.323 C 
HETATM    3  N   UNL     1      27.509  42.578  51.317  1.00  0.00    -0.328 N 
HETATM    4  C   UNL     1      27.178  43.796  52.073  1.00  0.00     0.185 C 
HETATM    5  C   UNL     1      28.104  43.939  53.225  1.00  0.00     0.035 A 
HETATM    6  C   UNL     1      29.023  43.016  53.675  1.00  0.00    -0.020 A 
HETATM    7  C   UNL     1      29.200  41.714  52.984  1.00  0.00     0.061 C 
HETATM    8  C   UNL     1      27.972  41.407  52.100  1.00  0.00     0.132 C 
HETATM    9  N   UNL     1      28.187  45.046  54.023  1.00  0.00    -0.357 N 
HETATM   10  H   UNL     1      27.640  45.890  53.921  1.00  0.00     0.166 HD
HETATM   11  C   UNL     1      29.154  44.856  54.988  1.00  0.00     0.043 A 
HETATM   12  C   UNL     1      29.696  43.583  54.791  1.00  0.00    -0.001 A 
HETATM   13  C   UNL     1      29.592  45.714  56.003  1.00  0.00     0.030 A 
HETATM   14  C   UNL     1      30.613  45.257  56.842  1.00  0.00     0.002 A 
HETATM   15  C   UNL     1      31.171  43.993  56.671  1.00  0.00     0.001 A 
HETATM   16  C   UNL     1      30.722  43.145  55.650  1.00  0.00     0.014 A 
HETATM   17  O   UNL     1      26.808  43.625  49.411  1.00  0.00    -0.247 OA
HETATM   18  H   UNL     1      27.119  40.559  49.888  1.00  0.00     0.170 HD
ENDROOT
BRANCH   1  19
HETATM   19  C   UNL     1      27.174  41.152  47.929  1.00  0.00     0.058 A 
HETATM   20  C   UNL     1      25.908  40.933  47.363  1.00  0.00     0.063 A 
HETATM   21  C   UNL     1      25.763  40.711  45.991  1.00  0.00     0.063 A 
HETATM   22 CL   UNL     1      24.480  40.949  48.344  1.00  0.00    -0.082 Cl
HETATM   23  C   UNL     1      26.883  40.698  45.158  1.00  0.00     0.070 A 
HETATM   24  C   UNL     1      28.148  40.878  45.715  1.00  0.00     0.039 A 
HETATM   25  C   UNL     1      28.291  41.100  47.091  1.00  0.00     0.034 A 
BRANCH  23  26
HETATM   26  O   UNL     1      26.614  40.489  43.834  1.00  0.00    -0.356 OA
HETATM   27  C   UNL     1      27.090  41.473  42.923  1.00  0.00     0.210 C 
ENDBRANCH  23  26
ENDBRANCH   1  19
TORSDOF 2
ENDMDL
MODEL 3
REMARK VINA RESULT:      -9.0      6.121      9.294
REMARK  2 active torsions:
REMARK  status: ('A' for Active; 'I' for Inactive)
REMARK    1  A    between atoms: O_2  and  C_3 
REMARK    2  A    between atoms: C_7  and  N_8 
REMARK       I    between atoms: N_8  and  C_9 
REMARK       I    between atoms: C_9  and  N_10 
ROOT
HETATM    1  N   UNL     1      19.123  50.866  48.480  1.00  0.00    -0.307 N 
HETATM    2  C   UNL     1      19.805  49.865  49.126  1.00  0.00     0.323 C 
HETATM    3  N   UNL     1      21.084  49.607  48.645  1.00  0.00    -0.328 N 
HETATM    4  C   UNL     1      21.729  48.387  49.156  1.00  0.00     0.185 C 
HETATM    5  C   UNL     1      23.205  48.550  49.122  1.00  0.00     0.035 A 
HETATM    6  C   UNL     1      23.918  49.576  48.543  1.00  0.00    -0.020 A 
HETATM    7  C   UNL     1      23.224  50.707  47.875  1.00  0.00     0.061 C 
HETATM    8  C   UNL     1      21.770  50.316  47.538  1.00  0.00     0.132 C 
HETATM    9  N   UNL     1      24.096  47.680  49.688  1.00  0.00    -0.357 N 
HETATM   10  H   UNL     1      23.858  46.839  50.196  1.00  0.00     0.166 HD
HETATM   11  C   UNL     1      25.383  48.132  49.487  1.00  0.00     0.043 A 
HETATM   12  C   UNL     1      25.299  49.326  48.766  1.00  0.00    -0.001 A 
HETATM   13  C   UNL     1      26.603  47.582  49.896  1.00  0.00     0.030 A 
HETATM   14  C   UNL     1      27.771  48.272  49.557  1.00  0.00     0.002 A 
HETATM   15  C   UNL     1      27.719  49.463  48.838  1.00  0.00     0.001 A 
HETATM   16  C   UNL     1      26.490  50.001  48.436  1.00  0.00     0.014 A 
HETATM   17  O   UNL     1      19.333  49.218  50.060  1.00  0.00    -0.247 OA
HETATM   18  H   UNL     1      19.349  51.009  47.507  1.00  0.00     0.170 HD
ENDROOT
BRANCH   1  19
HETATM   19  C   UNL     1      17.894  51.451  48.879  1.00  0.00     0.058 A 
HETATM   20  C   UNL     1      16.692  50.896  48.410  1.00  0.00     0.063 A 
HETATM   21  C   UNL     1      15.459  51.435  48.785  1.00  0.00     0.063 A 
HETATM   22 CL   UNL     1      16.699  49.513  47.366  1.00  0.00    -0.082 Cl
HETATM   23  C   UNL     1      15.402  52.542  49.631  1.00  0.00     0.070 A 
HETATM   24  C   UNL     1      16.590  53.123  50.073  1.00  0.00     0.039 A 
HETATM   25  C   UNL     1      17.826  52.582  49.697  1.00  0.00     0.034 A 
BRANCH  23  26
HETATM   26  O   UNL     1      14.140  52.967  49.941  1.00  0.00    -0.356 OA
HETATM   27  C   UNL     1      14.016  53.837  51.061  1.00  0.00     0.210 C 
ENDBRANCH  23  26
ENDBRANCH   1  19
TORSDOF 2
ENDMDL
MODEL 4
REMARK VINA RESULT:      -8.8      1.833      2.145
REMARK  2 active torsions:
REMARK  status: ('A' for Active; 'I' for Inactive)
REMARK    1  A    between atoms: O_2  and  C_3 
REMARK    2  A    between atoms: C_7  and  N_8 
REMARK       I    between atoms: N_8  and  C_9 
REMARK       I    between atoms: C_9  and  N_10 
ROOT
HETATM    1  N   UNL     1      24.816  45.615  51.492  1.00  0.00    -0.307 N 
HETATM    2  C   UNL     1      25.385  46.293  52.542  1.00  0.00     0.323 C 
HETATM    3  N   UNL     1      26.134  45.516  53.419  1.00  0.00    -0.328 N 
HETATM    4  C   UNL     1      26.541  46.171  54.672  1.00  0.00     0.185 C 
HETATM    5  C   UNL     1      27.792  45.551  55.178  1.00  0.00     0.035 A 
HETATM    6  C   UNL     1      28.415  44.420  54.699  1.00  0.00    -0.020 A 
HETATM    7  C   UNL     1      27.866  43.681  53.534  1.00  0.00     0.061 C 
HETATM    8  C   UNL     1      26.386  44.059  53.311  1.00  0.00     0.132 C 
HETATM    9  N   UNL     1      28.534  46.037  56.219  1.00  0.00    -0.357 N 
HETATM   10  H   UNL     1      28.325  46.868  56.756  1.00  0.00     0.166 HD
HETATM   11  C   UNL     1      29.638  45.236  56.421  1.00  0.00     0.043 A 
HETATM   12  C   UNL     1      29.586  44.207  55.475  1.00  0.00    -0.001 A 
HETATM   13  C   UNL     1      30.674  45.350  57.355  1.00  0.00     0.030 A 
HETATM   14  C   UNL     1      31.685  44.386  57.322  1.00  0.00     0.002 A 
HETATM   15  C   UNL     1      31.660  43.349  56.393  1.00  0.00     0.001 A 
HETATM   16  C   UNL     1      30.616  43.248  55.464  1.00  0.00     0.014 A 
HETATM   17  O   UNL     1      25.244  47.501  52.723  1.00  0.00    -0.247 OA
HETATM   18  H   UNL     1      24.583  44.647  51.655  1.00  0.00     0.170 HD
ENDROOT
BRANCH   1  19
HETATM   19  C   UNL     1      24.169  46.183  50.366  1.00  0.00     0.058 A 
HETATM   20  C   UNL     1      23.391  45.357  49.539  1.00  0.00     0.063 A 
HETATM   21  C   UNL     1      22.728  45.876  48.424  1.00  0.00     0.063 A 
HETATM   22 CL   UNL     1      23.211  43.668  49.885  1.00  0.00    -0.082 Cl
HETATM   23  C   UNL     1      22.835  47.231  48.110  1.00  0.00     0.070 A 
HETATM   24  C   UNL     1      23.634  48.053  48.903  1.00  0.00     0.039 A 
HETATM   25  C   UNL     1      24.297  47.531  50.021  1.00  0.00     0.034 A 
BRANCH  23  26
HETATM   26  O   UNL     1      22.128  47.625  47.008  1.00  0.00    -0.356 OA
HETATM   27  C   UNL     1      20.895  46.957  46.768  1.00  0.00     0.210 C 
ENDBRANCH  23  26
ENDBRANCH   1  19
TORSDOF 2
ENDMDL
MODEL 5
REMARK VINA RESULT:      -8.3      3.248      4.881
REMARK  2 active torsions:
REMARK  status: ('A' for Active; 'I' for Inactive)
REMARK    1  A    between atoms: O_2  and  C_3 
REMARK    2  A    between atoms: C_7  and  N_8 
REMARK       I    between atoms: N_8  and  C_9 
REMARK       I    between atoms: C_9  and  N_10 
ROOT
HETATM    1  N   UNL     1      23.186  48.416  49.510  1.00  0.00    -0.307 N 
HETATM    2  C   UNL     1      23.498  47.094  49.305  1.00  0.00     0.323 C 
HETATM    3  N   UNL     1      24.666  46.655  49.920  1.00  0.00    -0.328 N 
HETATM    4  C   UNL     1      25.144  45.324  49.515  1.00  0.00     0.185 C 
HETATM    5  C   UNL     1      25.929  44.716  50.620  1.00  0.00     0.035 A 
HETATM    6  C   UNL     1      26.337  45.325  51.786  1.00  0.00    -0.020 A 
HETATM    7  C   UNL     1      25.981  46.737  52.075  1.00  0.00     0.061 C 
HETATM    8  C   UNL     1      25.569  47.461  50.775  1.00  0.00     0.132 C 
HETATM    9  N   UNL     1      26.364  43.419  50.642  1.00  0.00    -0.357 N 
HETATM   10  H   UNL     1      26.198  42.729  49.923  1.00  0.00     0.166 HD
HETATM   11  C   UNL     1      27.048  43.176  51.814  1.00  0.00     0.043 A 
HETATM   12  C   UNL     1      27.047  44.363  52.553  1.00  0.00    -0.001 A 
HETATM   13  C   UNL     1      27.654  42.001  52.275  1.00  0.00     0.030 A 
HETATM   14  C   UNL     1      28.276  42.040  53.526  1.00  0.00     0.002 A 
HETATM   15  C   UNL     1      28.292  43.208  54.284  1.00  0.00     0.001 A 
HETATM   16  C   UNL     1      27.682  44.377  53.810  1.00  0.00     0.014 A 
HETATM   17  O   UNL     1      22.815  46.336  48.619  1.00  0.00    -0.247 OA
HETATM   18  H   UNL     1      23.961  49.044  49.657  1.00  0.00     0.170 HD
ENDROOT
BRANCH   1  19
HETATM   19  C   UNL     1      21.975  49.065  49.159  1.00  0.00     0.058 A 
HETATM   20  C   UNL     1      22.020  50.401  48.728  1.00  0.00     0.063 A 
HETATM   21  C   UNL     1      20.852  51.077  48.365  1.00  0.00     0.063 A 
HETATM   22 CL   UNL     1      23.526  51.249  48.614  1.00  0.00    -0.082 Cl
HETATM   23  C   UNL     1      19.616  50.433  48.431  1.00  0.00     0.070 A 
HETATM   24  C   UNL     1      19.557  49.120  48.892  1.00  0.00     0.039 A 
HETATM   25  C   UNL     1      20.728  48.442  49.256  1.00  0.00     0.034 A 
BRANCH  23  26
HETATM   26  O   UNL     1      18.550  51.191  48.033  1.00  0.00    -0.356 OA
HETATM   27  C   UNL     1      18.393  52.455  48.667  1.00  0.00     0.210 C 
ENDBRANCH  23  26
ENDBRANCH   1  19
TORSDOF 2
ENDMDL
MODEL 6
REMARK VINA RESULT:      -8.2      4.352      5.170
REMARK  2 active torsions:
REMARK  status: ('A' for Active; 'I' for Inactive)
REMARK    1  A    between atoms: O_2  and  C_3 
REMARK    2  A    between atoms: C_7  and  N_8 
REMARK       I    between atoms: N_8  and  C_9 
REMARK       I    between atoms: C_9  and  N_10 
ROOT
HETATM    1  N   UNL     1      26.417  43.032  50.516  1.00  0.00    -0.307 N 
HETATM    2  C   UNL     1      27.454  42.475  51.225  1.00  0.00     0.323 C 
HETATM    3  N   UNL     1      28.119  43.338  52.087  1.00  0.00    -0.328 N 
HETATM    4  C   UNL     1      29.374  42.831  52.664  1.00  0.00     0.185 C 
HETATM    5  C   UNL     1      29.625  43.486  53.973  1.00  0.00     0.035 A 
HETATM    6  C   UNL     1      28.931  44.541  54.524  1.00  0.00    -0.020 A 
HETATM    7  C   UNL     1      27.773  45.145  53.819  1.00  0.00     0.061 C 
HETATM    8  C   UNL     1      27.802  44.768  52.323  1.00  0.00     0.132 C 
HETATM    9  N   UNL     1      30.605  43.116  54.852  1.00  0.00    -0.357 N 
HETATM   10  H   UNL     1      31.262  42.359  54.719  1.00  0.00     0.166 HD
HETATM   11  C   UNL     1      30.555  43.918  55.973  1.00  0.00     0.043 A 
HETATM   12  C   UNL     1      29.509  44.826  55.790  1.00  0.00    -0.001 A 
HETATM   13  C   UNL     1      31.345  43.899  57.128  1.00  0.00     0.030 A 
HETATM   14  C   UNL     1      31.058  44.835  58.125  1.00  0.00     0.002 A 
HETATM   15  C   UNL     1      30.023  45.754  57.971  1.00  0.00     0.001 A 
HETATM   16  C   UNL     1      29.240  45.760  56.809  1.00  0.00     0.014 A 
HETATM   17  O   UNL     1      27.797  41.299  51.110  1.00  0.00    -0.247 OA
HETATM   18  H   UNL     1      26.493  44.016  50.307  1.00  0.00     0.170 HD
ENDROOT
BRANCH   1  19
HETATM   19  C   UNL     1      25.468  42.343  49.719  1.00  0.00     0.058 A 
HETATM   20  C   UNL     1      24.126  42.759  49.747  1.00  0.00     0.063 A 
HETATM   21  C   UNL     1      23.159  42.115  48.972  1.00  0.00     0.063 A 
HETATM   22 CL   UNL     1      23.630  44.097  50.731  1.00  0.00    -0.082 Cl
HETATM   23  C   UNL     1      23.512  41.040  48.157  1.00  0.00     0.070 A 
HETATM   24  C   UNL     1      24.833  40.596  48.149  1.00  0.00     0.039 A 
HETATM   25  C   UNL     1      25.802  41.242  48.927  1.00  0.00     0.034 A 
BRANCH  23  26
HETATM   26  O   UNL     1      22.484  40.503  47.432  1.00  0.00    -0.356 OA
HETATM   27  C   UNL     1      21.805  41.381  46.541  1.00  0.00     0.210 C 
ENDBRANCH  23  26
ENDBRANCH   1  19
TORSDOF 2
ENDMDL
MODEL 7
REMARK VINA RESULT:      -8.1      4.538      9.195
REMARK  2 active torsions:
REMARK  status: ('A' for Active; 'I' for Inactive)
REMARK    1  A    between atoms: O_2  and  C_3 
REMARK    2  A    between atoms: C_7  and  N_8 
REMARK       I    between atoms: N_8  and  C_9 
REMARK       I    between atoms: C_9  and  N_10 
ROOT
HETATM    1  N   UNL     1      28.262  44.145  52.953  1.00  0.00    -0.307 N 
HETATM    2  C   UNL     1      26.938  43.790  52.872  1.00  0.00     0.323 C 
HETATM    3  N   UNL     1      26.433  43.657  51.583  1.00  0.00    -0.328 N 
HETATM    4  C   UNL     1      24.972  43.522  51.475  1.00  0.00     0.185 C 
HETATM    5  C   UNL     1      24.628  42.768  50.243  1.00  0.00     0.035 A 
HETATM    6  C   UNL     1      25.482  42.393  49.229  1.00  0.00    -0.020 A 
HETATM    7  C   UNL     1      26.931  42.711  49.294  1.00  0.00     0.061 C 
HETATM    8  C   UNL     1      27.186  43.837  50.318  1.00  0.00     0.132 C 
HETATM    9  N   UNL     1      23.376  42.314  49.934  1.00  0.00    -0.357 N 
HETATM   10  H   UNL     1      22.548  42.430  50.503  1.00  0.00     0.166 HD
HETATM   11  C   UNL     1      23.406  41.643  48.729  1.00  0.00     0.043 A 
HETATM   12  C   UNL     1      24.723  41.680  48.263  1.00  0.00    -0.001 A 
HETATM   13  C   UNL     1      22.376  41.004  48.030  1.00  0.00     0.030 A 
HETATM   14  C   UNL     1      22.701  40.385  46.819  1.00  0.00     0.002 A 
HETATM   15  C   UNL     1      24.004  40.407  46.329  1.00  0.00     0.001 A 
HETATM   16  C   UNL     1      25.024  41.050  47.040  1.00  0.00     0.014 A 
HETATM   17  O   UNL     1      26.224  43.610  53.857  1.00  0.00    -0.247 OA
HETATM   18  H   UNL     1      28.626  44.702  52.194  1.00  0.00     0.170 HD
ENDROOT
BRANCH   1  19
HETATM   19  C   UNL     1      29.065  44.166  54.121  1.00  0.00     0.058 A 
HETATM   20  C   UNL     1      28.999  45.281  54.973  1.00  0.00     0.063 A 
HETATM   21  C   UNL     1      29.766  45.340  56.139  1.00  0.00     0.063 A 
HETATM   22 CL   UNL     1      27.949  46.612  54.615  1.00  0.00    -0.082 Cl
HETATM   23  C   UNL     1      30.619  44.288  56.474  1.00  0.00     0.070 A 
HETATM   24  C   UNL     1      30.719  43.194  55.617  1.00  0.00     0.039 A 
HETATM   25  C   UNL     1      29.950  43.135  54.448  1.00  0.00     0.034 A 
BRANCH  23  26
HETATM   26  O   UNL     1      31.304  44.453  57.646  1.00  0.00    -0.356 OA
HETATM   27  C   UNL     1      30.757  45.377  58.580  1.00  0.00     0.210 C 
ENDBRANCH  23  26
ENDBRANCH   1  19
TORSDOF 2
ENDMDL
MODEL 8
REMARK VINA RESULT:      -8.1      3.527     10.063
REMARK  2 active torsions:
REMARK  status: ('A' for Active; 'I' for Inactive)
REMARK    1  A    between atoms: O_2  and  C_3 
REMARK    2  A    between atoms: C_7  and  N_8 
REMARK       I    between atoms: N_8  and  C_9 
REMARK       I    between atoms: C_9  and  N_10 
ROOT
HETATM    1  N   UNL     1      24.710  45.673  50.580  1.00  0.00    -0.307 N 
HETATM    2  C   UNL     1      24.594  47.041  50.576  1.00  0.00     0.323 C 
HETATM    3  N   UNL     1      23.677  47.560  49.669  1.00  0.00    -0.328 N 
HETATM    4  C   UNL     1      23.716  49.018  49.477  1.00  0.00     0.185 C 
HETATM    5  C   UNL     1      22.377  49.504  49.056  1.00  0.00     0.035 A 
HETATM    6  C   UNL     1      21.286  48.741  48.703  1.00  0.00    -0.020 A 
HETATM    7  C   UNL     1      21.347  47.258  48.739  1.00  0.00     0.061 C 
HETATM    8  C   UNL     1      22.816  46.784  48.744  1.00  0.00     0.132 C 
HETATM    9  N   UNL     1      22.022  50.822  48.966  1.00  0.00    -0.357 N 
HETATM   10  H   UNL     1      22.619  51.610  49.179  1.00  0.00     0.166 HD
HETATM   11  C   UNL     1      20.708  50.925  48.561  1.00  0.00     0.043 A 
HETATM   12  C   UNL     1      20.221  49.627  48.387  1.00  0.00    -0.001 A 
HETATM   13  C   UNL     1      19.920  52.061  48.348  1.00  0.00     0.030 A 
HETATM   14  C   UNL     1      18.595  51.865  47.945  1.00  0.00     0.002 A 
HETATM   15  C   UNL     1      18.083  50.584  47.762  1.00  0.00     0.001 A 
HETATM   16  C   UNL     1      18.884  49.456  47.979  1.00  0.00     0.014 A 
HETATM   17  O   UNL     1      25.255  47.778  51.307  1.00  0.00    -0.247 OA
HETATM   18  H   UNL     1      24.523  45.203  49.707  1.00  0.00     0.170 HD
ENDROOT
BRANCH   1  19
HETATM   19  C   UNL     1      25.422  44.884  51.519  1.00  0.00     0.058 A 
HETATM   20  C   UNL     1      26.300  43.893  51.050  1.00  0.00     0.063 A 
HETATM   21  C   UNL     1      27.028  43.099  51.939  1.00  0.00     0.063 A 
HETATM   22 CL   UNL     1      26.523  43.636  49.351  1.00  0.00    -0.082 Cl
HETATM   23  C   UNL     1      26.889  43.275  53.316  1.00  0.00     0.070 A 
HETATM   24  C   UNL     1      25.993  44.231  53.793  1.00  0.00     0.039 A 
HETATM   25  C   UNL     1      25.264  45.027  52.900  1.00  0.00     0.034 A 
BRANCH  23  26
HETATM   26  O   UNL     1      27.665  42.453  54.084  1.00  0.00    -0.356 OA
HETATM   27  C   UNL     1      28.646  41.681  53.402  1.00  0.00     0.210 C 
ENDBRANCH  23  26
ENDBRANCH   1  19
TORSDOF 2
ENDMDL
MODEL 9
REMARK VINA RESULT:      -7.8      6.793      9.803
REMARK  2 active torsions:
REMARK  status: ('A' for Active; 'I' for Inactive)
REMARK    1  A    between atoms: O_2  and  C_3 
REMARK    2  A    between atoms: C_7  and  N_8 
REMARK       I    between atoms: N_8  and  C_9 
REMARK       I    between atoms: C_9  and  N_10 
ROOT
HETATM    1  N   UNL     1      28.137  42.178  51.904  1.00  0.00    -0.307 N 
HETATM    2  C   UNL     1      28.492  40.886  51.602  1.00  0.00     0.323 C 
HETATM    3  N   UNL     1      28.026  40.408  50.383  1.00  0.00    -0.328 N 
HETATM    4  C   UNL     1      28.185  38.963  50.156  1.00  0.00     0.185 C 
HETATM    5  C   UNL     1      28.280  38.692  48.699  1.00  0.00     0.035 A 
HETATM    6  C   UNL     1      28.071  39.584  47.670  1.00  0.00    -0.020 A 
HETATM    7  C   UNL     1      27.734  41.003  47.945  1.00  0.00     0.061 C 
HETATM    8  C   UNL     1      27.218  41.158  49.392  1.00  0.00     0.132 C 
HETATM    9  N   UNL     1      28.609  37.482  48.153  1.00  0.00    -0.357 N 
HETATM   10  H   UNL     1      28.830  36.642  48.670  1.00  0.00     0.166 HD
HETATM   11  C   UNL     1      28.621  37.577  46.778  1.00  0.00     0.043 A 
HETATM   12  C   UNL     1      28.284  38.892  46.447  1.00  0.00    -0.001 A 
HETATM   13  C   UNL     1      28.912  36.607  45.812  1.00  0.00     0.030 A 
HETATM   14  C   UNL     1      28.858  36.992  44.469  1.00  0.00     0.002 A 
HETATM   15  C   UNL     1      28.523  38.295  44.109  1.00  0.00     0.001 A 
HETATM   16  C   UNL     1      28.234  39.255  45.087  1.00  0.00     0.014 A 
HETATM   17  O   UNL     1      29.165  40.178  52.350  1.00  0.00    -0.247 OA
HETATM   18  H   UNL     1      27.265  42.506  51.518  1.00  0.00     0.170 HD
ENDROOT
BRANCH   1  19
HETATM   19  C   UNL     1      28.626  42.964  52.978  1.00  0.00     0.058 A 
HETATM   20  C   UNL     1      27.913  44.112  53.361  1.00  0.00     0.063 A 
HETATM   21  C   UNL     1      28.353  44.911  54.420  1.00  0.00     0.063 A 
HETATM   22 CL   UNL     1      26.453  44.566  52.545  1.00  0.00    -0.082 Cl
HETATM   23  C   UNL     1      29.517  44.581  55.113  1.00  0.00     0.070 A 
HETATM   24  C   UNL     1      30.252  43.464  54.718  1.00  0.00     0.039 A 
HETATM   25  C   UNL     1      29.810  42.664  53.656  1.00  0.00     0.034 A 
BRANCH  23  26
HETATM   26  O   UNL     1      29.836  45.427  56.139  1.00  0.00    -0.356 OA
HETATM   27  C   UNL     1      28.754  46.104  56.768  1.00  0.00     0.210 C 
ENDBRANCH  23  26
ENDBRANCH   1  19
TORSDOF 2
ENDMDL
MODEL 10
REMARK VINA RESULT:      -7.8      5.258      9.570
REMARK  2 active torsions:
REMARK  status: ('A' for Active; 'I' for Inactive)
REMARK    1  A    between atoms: O_2  and  C_3 
REMARK    2  A    between atoms: C_7  and  N_8 
REMARK       I    between atoms: N_8  and  C_9 
REMARK       I    between atoms: C_9  and  N_10 
ROOT
HETATM    1  N   UNL     1      26.639  42.942  50.071  1.00  0.00    -0.307 N 
HETATM    2  C   UNL     1      25.374  43.270  49.651  1.00  0.00     0.323 C 
HETATM    3  N   UNL     1      24.986  44.584  49.891  1.00  0.00    -0.328 N 
HETATM    4  C   UNL     1      23.562  44.884  49.675  1.00  0.00     0.185 C 
HETATM    5  C   UNL     1      23.400  46.318  49.324  1.00  0.00     0.035 A 
HETATM    6  C   UNL     1      24.365  47.300  49.363  1.00  0.00    -0.020 A 
HETATM    7  C   UNL     1      25.760  46.985  49.763  1.00  0.00     0.061 C 
HETATM    8  C   UNL     1      25.807  45.643  50.525  1.00  0.00     0.132 C 
HETATM    9  N   UNL     1      22.234  46.884  48.889  1.00  0.00    -0.357 N 
HETATM   10  H   UNL     1      21.358  46.399  48.749  1.00  0.00     0.166 HD
HETATM   11  C   UNL     1      22.431  48.226  48.639  1.00  0.00     0.043 A 
HETATM   12  C   UNL     1      23.767  48.514  48.932  1.00  0.00    -0.001 A 
HETATM   13  C   UNL     1      21.535  49.194  48.170  1.00  0.00     0.030 A 
HETATM   14  C   UNL     1      22.019  50.495  47.996  1.00  0.00     0.002 A 
HETATM   15  C   UNL     1      23.344  50.812  48.281  1.00  0.00     0.001 A 
HETATM   16  C   UNL     1      24.229  49.832  48.749  1.00  0.00     0.014 A 
HETATM   17  O   UNL     1      24.612  42.470  49.109  1.00  0.00    -0.247 OA
HETATM   18  H   UNL     1      26.994  43.449  50.868  1.00  0.00     0.170 HD
ENDROOT
BRANCH   1  19
HETATM   19  C   UNL     1      27.344  41.745  49.788  1.00  0.00     0.058 A 
HETATM   20  C   UNL     1      27.874  40.999  50.853  1.00  0.00     0.063 A 
HETATM   21  C   UNL     1      28.568  39.809  50.621  1.00  0.00     0.063 A 
HETATM   22 CL   UNL     1      27.669  41.520  52.493  1.00  0.00    -0.082 Cl
HETATM   23  C   UNL     1      28.751  39.343  49.319  1.00  0.00     0.070 A 
HETATM   24  C   UNL     1      28.260  40.095  48.252  1.00  0.00     0.039 A 
HETATM   25  C   UNL     1      27.564  41.288  48.486  1.00  0.00     0.034 A 
BRANCH  23  26
HETATM   26  O   UNL     1      29.429  38.160  49.219  1.00  0.00    -0.356 OA
HETATM   27  C   UNL     1      29.485  37.356  50.392  1.00  0.00     0.210 C 
ENDBRANCH  23  26
ENDBRANCH   1  19
TORSDOF 2
ENDMDL
