MODEL 1
REMARK VINA RESULT:     -10.5      0.000      0.000
REMARK  2 active torsions:
REMARK  status: ('A' for Active; 'I' for Inactive)
REMARK    1  A    between atoms: N_8  and  N_9 
REMARK       I    between atoms: N_9  and  C_10 
REMARK    2  A    between atoms: C_10  and  C_11 
ROOT
HETATM    1  N   UNL     1      25.697  46.320  51.200  1.00  0.00    -0.242 N 
HETATM    2  C   UNL     1      25.568  45.210  52.019  1.00  0.00     0.273 C 
HETATM    3  O   UNL     1      24.496  44.701  52.342  1.00  0.00    -0.266 OA
HETATM    4  H   UNL     1      26.605  46.686  50.916  1.00  0.00     0.192 HD
ENDROOT
BRANCH   1   5
HETATM    5  N   UNL     1      24.572  46.877  50.660  1.00  0.00    -0.166 NA
HETATM    6  C   UNL     1      24.731  47.864  49.840  1.00  0.00     0.157 A 
HETATM    7  C   UNL     1      23.658  48.565  49.145  1.00  0.00     0.027 A 
HETATM    8  C   UNL     1      26.026  48.560  49.418  1.00  0.00     0.277 A 
HETATM    9  C   UNL     1      22.298  48.330  49.124  1.00  0.00     0.023 A 
HETATM   10  C   UNL     1      24.257  49.594  48.422  1.00  0.00     0.048 A 
HETATM   11  C   UNL     1      21.514  49.173  48.324  1.00  0.00    -0.061 A 
HETATM   12  C   UNL     1      20.026  48.978  48.247  1.00  0.00     0.048 C 
HETATM   13  C   UNL     1      22.122  50.234  47.608  1.00  0.00     0.009 A 
HETATM   14  C   UNL     1      23.506  50.451  47.650  1.00  0.00     0.031 A 
HETATM   15  N   UNL     1      25.640  49.594  48.593  1.00  0.00    -0.321 N 
HETATM   16  H   UNL     1      26.289  50.232  48.158  1.00  0.00     0.169 HD
HETATM   17  O   UNL     1      27.138  48.219  49.762  1.00  0.00    -0.266 OA
ENDBRANCH   1   5
BRANCH   2  18
HETATM   18  C   UNL     1      26.818  44.561  52.481  1.00  0.00     0.058 A 
HETATM   19  C   UNL     1      27.519  43.565  51.804  1.00  0.00     0.047 A 
HETATM   20  C   UNL     1      27.112  43.017  50.469  1.00  0.00     0.071 C 
HETATM   21  N   UNL     1      28.663  43.015  52.307  1.00  0.00    -0.252 NA
HETATM   22  C   UNL     1      29.169  43.479  53.465  1.00  0.00     0.067 A 
HETATM   23  C   UNL     1      28.549  44.512  54.190  1.00  0.00    -0.006 A 
HETATM   24  C   UNL     1      30.345  42.941  53.970  1.00  0.00     0.032 A 
HETATM   25  C   UNL     1      27.361  45.044  53.679  1.00  0.00     0.033 A 
HETATM   26  C   UNL     1      29.120  44.988  55.384  1.00  0.00     0.014 A 
HETATM   27  C   UNL     1      30.305  44.435  55.865  1.00  0.00     0.001 A 
HETATM   28  C   UNL     1      30.918  43.407  55.158  1.00  0.00     0.002 A 
ENDBRANCH   2  18
TORSDOF 2
ENDMDL
MODEL 2
REMARK VINA RESULT:     -10.2      2.265      3.069
REMARK  2 active torsions:
REMARK  status: ('A' for Active; 'I' for Inactive)
REMARK    1  A    between atoms: N_8  and  N_9 
REMARK       I    between atoms: N_9  and  C_10 
REMARK    2  A    between atoms: C_10  and  C_11 
ROOT
HETATM    1  N   UNL     1      26.156  45.227  51.457  1.00  0.00    -0.242 N 
HETATM    2  C   UNL     1      25.946  44.866  52.777  1.00  0.00     0.273 C 
HETATM    3  O   UNL     1      24.928  44.321  53.200  1.00  0.00    -0.266 OA
HETATM    4  H   UNL     1      27.032  45.635  51.134  1.00  0.00     0.192 HD
ENDROOT
BRANCH   1   5
HETATM    5  N   UNL     1      25.199  44.923  50.529  1.00  0.00    -0.166 NA
HETATM    6  C   UNL     1      24.532  45.905  50.017  1.00  0.00     0.157 A 
HETATM    7  C   UNL     1      23.498  45.783  48.998  1.00  0.00     0.027 A 
HETATM    8  C   UNL     1      24.617  47.396  50.349  1.00  0.00     0.277 A 
HETATM    9  C   UNL     1      23.043  44.676  48.309  1.00  0.00     0.023 A 
HETATM   10  C   UNL     1      22.996  47.064  48.783  1.00  0.00     0.048 A 
HETATM   11  C   UNL     1      22.039  44.884  47.352  1.00  0.00    -0.061 A 
HETATM   12  C   UNL     1      21.495  43.730  46.560  1.00  0.00     0.048 C 
HETATM   13  C   UNL     1      21.513  46.185  47.152  1.00  0.00     0.009 A 
HETATM   14  C   UNL     1      21.992  47.290  47.867  1.00  0.00     0.031 A 
HETATM   15  N   UNL     1      23.646  48.002  49.582  1.00  0.00    -0.321 N 
HETATM   16  H   UNL     1      23.467  48.996  49.591  1.00  0.00     0.169 HD
HETATM   17  O   UNL     1      25.406  47.888  51.128  1.00  0.00    -0.266 OA
ENDBRANCH   1   5
BRANCH   2  18
HETATM   18  C   UNL     1      27.060  45.099  53.728  1.00  0.00     0.058 A 
HETATM   19  C   UNL     1      27.247  46.243  54.502  1.00  0.00     0.047 A 
HETATM   20  C   UNL     1      26.310  47.413  54.503  1.00  0.00     0.071 C 
HETATM   21  N   UNL     1      28.308  46.378  55.350  1.00  0.00    -0.252 NA
HETATM   22  C   UNL     1      29.179  45.360  55.491  1.00  0.00     0.067 A 
HETATM   23  C   UNL     1      29.039  44.155  54.780  1.00  0.00    -0.006 A 
HETATM   24  C   UNL     1      30.247  45.481  56.369  1.00  0.00     0.032 A 
HETATM   25  C   UNL     1      27.966  44.043  53.892  1.00  0.00     0.033 A 
HETATM   26  C   UNL     1      29.955  43.104  54.973  1.00  0.00     0.014 A 
HETATM   27  C   UNL     1      31.014  43.250  55.866  1.00  0.00     0.001 A 
HETATM   28  C   UNL     1      31.163  44.442  56.564  1.00  0.00     0.002 A 
ENDBRANCH   2  18
TORSDOF 2
ENDMDL
MODEL 3
REMARK VINA RESULT:     -10.1      1.975      8.682
REMARK  2 active torsions:
REMARK  status: ('A' for Active; 'I' for Inactive)
REMARK    1  A    between atoms: N_8  and  N_9 
REMARK       I    between atoms: N_9  and  C_10 
REMARK    2  A    between atoms: C_10  and  C_11 
ROOT
HETATM    1  N   UNL     1      25.388  46.227  51.718  1.00  0.00    -0.242 N 
HETATM    2  C   UNL     1      25.536  46.595  50.391  1.00  0.00     0.273 C 
HETATM    3  O   UNL     1      26.574  46.472  49.743  1.00  0.00    -0.266 OA
HETATM    4  H   UNL     1      24.498  46.301  52.209  1.00  0.00     0.192 HD
ENDROOT
BRANCH   1   5
HETATM    5  N   UNL     1      26.440  45.637  52.361  1.00  0.00    -0.166 NA
HETATM    6  C   UNL     1      26.797  46.137  53.499  1.00  0.00     0.157 A 
HETATM    7  C   UNL     1      27.872  45.630  54.343  1.00  0.00     0.027 A 
HETATM    8  C   UNL     1      26.239  47.362  54.225  1.00  0.00     0.277 A 
HETATM    9  C   UNL     1      28.682  44.522  54.196  1.00  0.00     0.023 A 
HETATM   10  C   UNL     1      27.965  46.493  55.432  1.00  0.00     0.048 A 
HETATM   11  C   UNL     1      29.622  44.276  55.207  1.00  0.00    -0.061 A 
HETATM   12  C   UNL     1      30.537  43.088  55.119  1.00  0.00     0.048 C 
HETATM   13  C   UNL     1      29.731  45.169  56.303  1.00  0.00     0.009 A 
HETATM   14  C   UNL     1      28.897  46.287  56.425  1.00  0.00     0.031 A 
HETATM   15  N   UNL     1      27.015  47.510  55.354  1.00  0.00    -0.321 N 
HETATM   16  H   UNL     1      26.878  48.244  56.033  1.00  0.00     0.169 HD
HETATM   17  O   UNL     1      25.296  48.023  53.843  1.00  0.00    -0.266 OA
ENDBRANCH   1   5
BRANCH   2  18
HETATM   18  C   UNL     1      24.334  47.114  49.694  1.00  0.00     0.058 A 
HETATM   19  C   UNL     1      23.349  46.342  49.082  1.00  0.00     0.047 A 
HETATM   20  C   UNL     1      23.352  44.843  49.066  1.00  0.00     0.071 C 
HETATM   21  N   UNL     1      22.275  46.904  48.454  1.00  0.00    -0.252 NA
HETATM   22  C   UNL     1      22.123  48.242  48.468  1.00  0.00     0.067 A 
HETATM   23  C   UNL     1      23.048  49.091  49.101  1.00  0.00    -0.006 A 
HETATM   24  C   UNL     1      21.020  48.819  47.852  1.00  0.00     0.032 A 
HETATM   25  C   UNL     1      24.160  48.504  49.712  1.00  0.00     0.033 A 
HETATM   26  C   UNL     1      22.844  50.483  49.115  1.00  0.00     0.014 A 
HETATM   27  C   UNL     1      21.724  51.035  48.496  1.00  0.00     0.001 A 
HETATM   28  C   UNL     1      20.812  50.202  47.860  1.00  0.00     0.002 A 
ENDBRANCH   2  18
TORSDOF 2
ENDMDL
MODEL 4
REMARK VINA RESULT:      -9.9      5.034      6.937
REMARK  2 active torsions:
REMARK  status: ('A' for Active; 'I' for Inactive)
REMARK    1  A    between atoms: N_8  and  N_9 
REMARK       I    between atoms: N_9  and  C_10 
REMARK    2  A    between atoms: C_10  and  C_11 
ROOT
HETATM    1  N   UNL     1      27.177  42.656  52.595  1.00  0.00    -0.242 N 
HETATM    2  C   UNL     1      27.968  43.791  52.526  1.00  0.00     0.273 C 
HETATM    3  O   UNL     1      28.210  44.413  51.493  1.00  0.00    -0.266 OA
HETATM    4  H   UNL     1      26.961  42.193  53.477  1.00  0.00     0.192 HD
ENDROOT
BRANCH   1   5
HETATM    5  N   UNL     1      26.573  42.202  51.456  1.00  0.00    -0.166 NA
HETATM    6  C   UNL     1      27.050  41.129  50.915  1.00  0.00     0.157 A 
HETATM    7  C   UNL     1      26.523  40.480  49.721  1.00  0.00     0.027 A 
HETATM    8  C   UNL     1      28.263  40.300  51.340  1.00  0.00     0.277 A 
HETATM    9  C   UNL     1      25.416  40.776  48.952  1.00  0.00     0.023 A 
HETATM   10  C   UNL     1      27.365  39.405  49.447  1.00  0.00     0.048 A 
HETATM   11  C   UNL     1      25.148  39.936  47.862  1.00  0.00    -0.061 A 
HETATM   12  C   UNL     1      23.958  40.193  46.981  1.00  0.00     0.048 C 
HETATM   13  C   UNL     1      26.020  38.857  47.571  1.00  0.00     0.009 A 
HETATM   14  C   UNL     1      27.139  38.581  48.367  1.00  0.00     0.031 A 
HETATM   15  N   UNL     1      28.387  39.310  50.390  1.00  0.00    -0.321 N 
HETATM   16  H   UNL     1      29.109  38.605  50.410  1.00  0.00     0.169 HD
HETATM   17  O   UNL     1      28.934  40.512  52.328  1.00  0.00    -0.266 OA
ENDBRANCH   1   5
BRANCH   2  18
HETATM   18  C   UNL     1      28.501  44.322  53.803  1.00  0.00     0.058 A 
HETATM   19  C   UNL     1      28.021  45.436  54.489  1.00  0.00     0.047 A 
HETATM   20  C   UNL     1      26.852  46.256  54.034  1.00  0.00     0.071 C 
HETATM   21  N   UNL     1      28.578  45.861  55.660  1.00  0.00    -0.252 NA
HETATM   22  C   UNL     1      29.589  45.159  56.208  1.00  0.00     0.067 A 
HETATM   23  C   UNL     1      30.104  43.998  55.605  1.00  0.00    -0.006 A 
HETATM   24  C   UNL     1      30.144  45.572  57.412  1.00  0.00     0.032 A 
HETATM   25  C   UNL     1      29.545  43.593  54.389  1.00  0.00     0.033 A 
HETATM   26  C   UNL     1      31.144  43.278  56.219  1.00  0.00     0.014 A 
HETATM   27  C   UNL     1      31.678  43.710  57.431  1.00  0.00     0.001 A 
HETATM   28  C   UNL     1      31.180  44.863  58.027  1.00  0.00     0.002 A 
ENDBRANCH   2  18
TORSDOF 2
ENDMDL
MODEL 5
REMARK VINA RESULT:      -9.5      2.922      8.723
REMARK  2 active torsions:
REMARK  status: ('A' for Active; 'I' for Inactive)
REMARK    1  A    between atoms: N_8  and  N_9 
REMARK       I    between atoms: N_9  and  C_10 
REMARK    2  A    between atoms: C_10  and  C_11 
ROOT
HETATM    1  N   UNL     1      26.752  44.974  52.380  1.00  0.00    -0.242 N 
HETATM    2  C   UNL     1      25.413  44.623  52.423  1.00  0.00     0.273 C 
HETATM    3  O   UNL     1      24.774  44.427  53.455  1.00  0.00    -0.266 OA
HETATM    4  H   UNL     1      27.237  45.174  51.506  1.00  0.00     0.192 HD
ENDROOT
BRANCH   1   5
HETATM    5  N   UNL     1      27.421  45.171  53.556  1.00  0.00    -0.166 NA
HETATM    6  C   UNL     1      28.431  44.402  53.802  1.00  0.00     0.157 A 
HETATM    7  C   UNL     1      29.281  44.478  54.983  1.00  0.00     0.027 A 
HETATM    8  C   UNL     1      28.968  43.232  52.976  1.00  0.00     0.277 A 
HETATM    9  C   UNL     1      29.277  45.371  56.036  1.00  0.00     0.023 A 
HETATM   10  C   UNL     1      30.197  43.434  54.884  1.00  0.00     0.048 A 
HETATM   11  C   UNL     1      30.255  45.199  57.027  1.00  0.00    -0.061 A 
HETATM   12  C   UNL     1      30.317  46.133  58.201  1.00  0.00     0.048 C 
HETATM   13  C   UNL     1      31.172  44.122  56.935  1.00  0.00     0.009 A 
HETATM   14  C   UNL     1      31.151  43.229  55.856  1.00  0.00     0.031 A 
HETATM   15  N   UNL     1      30.004  42.702  53.714  1.00  0.00    -0.321 N 
HETATM   16  H   UNL     1      30.553  41.910  53.414  1.00  0.00     0.169 HD
HETATM   17  O   UNL     1      28.537  42.894  51.894  1.00  0.00    -0.266 OA
ENDBRANCH   1   5
BRANCH   2  18
HETATM   18  C   UNL     1      24.693  44.543  51.129  1.00  0.00     0.058 A 
HETATM   19  C   UNL     1      24.352  45.622  50.316  1.00  0.00     0.047 A 
HETATM   20  C   UNL     1      24.699  47.046  50.631  1.00  0.00     0.071 C 
HETATM   21  N   UNL     1      23.680  45.459  49.139  1.00  0.00    -0.252 NA
HETATM   22  C   UNL     1      23.380  44.217  48.713  1.00  0.00     0.067 A 
HETATM   23  C   UNL     1      23.726  43.071  49.451  1.00  0.00    -0.006 A 
HETATM   24  C   UNL     1      22.718  44.042  47.505  1.00  0.00     0.032 A 
HETATM   25  C   UNL     1      24.385  43.255  50.669  1.00  0.00     0.033 A 
HETATM   26  C   UNL     1      23.417  41.789  48.962  1.00  0.00     0.014 A 
HETATM   27  C   UNL     1      22.759  41.641  47.743  1.00  0.00     0.001 A 
HETATM   28  C   UNL     1      22.405  42.771  47.014  1.00  0.00     0.002 A 
ENDBRANCH   2  18
TORSDOF 2
ENDMDL
MODEL 6
REMARK VINA RESULT:      -9.4      2.407      8.659
REMARK  2 active torsions:
REMARK  status: ('A' for Active; 'I' for Inactive)
REMARK    1  A    between atoms: N_8  and  N_9 
REMARK       I    between atoms: N_9  and  C_10 
REMARK    2  A    between atoms: C_10  and  C_11 
ROOT
HETATM    1  N   UNL     1      27.092  44.916  52.705  1.00  0.00    -0.242 N 
HETATM    2  C   UNL     1      26.959  44.263  51.490  1.00  0.00     0.273 C 
HETATM    3  O   UNL     1      27.730  43.401  51.072  1.00  0.00    -0.266 OA
HETATM    4  H   UNL     1      26.406  45.592  53.039  1.00  0.00     0.192 HD
ENDROOT
BRANCH   1   5
HETATM    5  N   UNL     1      28.116  44.561  53.537  1.00  0.00    -0.166 NA
HETATM    6  C   UNL     1      28.254  45.235  54.632  1.00  0.00     0.157 A 
HETATM    7  C   UNL     1      29.264  44.987  55.653  1.00  0.00     0.027 A 
HETATM    8  C   UNL     1      27.455  46.444  55.120  1.00  0.00     0.277 A 
HETATM    9  C   UNL     1      30.221  43.996  55.749  1.00  0.00     0.023 A 
HETATM   10  C   UNL     1      29.103  45.975  56.621  1.00  0.00     0.048 A 
HETATM   11  C   UNL     1      31.043  44.006  56.884  1.00  0.00    -0.061 A 
HETATM   12  C   UNL     1      32.105  42.957  57.061  1.00  0.00     0.048 C 
HETATM   13  C   UNL     1      30.893  45.026  57.857  1.00  0.00     0.009 A 
HETATM   14  C   UNL     1      29.915  46.021  57.733  1.00  0.00     0.031 A 
HETATM   15  N   UNL     1      28.051  46.831  56.300  1.00  0.00    -0.321 N 
HETATM   16  H   UNL     1      27.734  47.612  56.855  1.00  0.00     0.169 HD
HETATM   17  O   UNL     1      26.495  46.915  54.547  1.00  0.00    -0.266 OA
ENDBRANCH   1   5
BRANCH   2  18
HETATM   18  C   UNL     1      25.764  44.588  50.674  1.00  0.00     0.058 A 
HETATM   19  C   UNL     1      24.878  43.666  50.121  1.00  0.00     0.047 A 
HETATM   20  C   UNL     1      24.996  42.182  50.302  1.00  0.00     0.071 C 
HETATM   21  N   UNL     1      23.803  44.053  49.375  1.00  0.00    -0.252 NA
HETATM   22  C   UNL     1      23.550  45.365  49.205  1.00  0.00     0.067 A 
HETATM   23  C   UNL     1      24.369  46.361  49.766  1.00  0.00    -0.006 A 
HETATM   24  C   UNL     1      22.445  45.766  48.467  1.00  0.00     0.032 A 
HETATM   25  C   UNL     1      25.484  45.950  50.501  1.00  0.00     0.033 A 
HETATM   26  C   UNL     1      24.059  47.721  49.588  1.00  0.00     0.014 A 
HETATM   27  C   UNL     1      22.939  48.096  48.849  1.00  0.00     0.001 A 
HETATM   28  C   UNL     1      22.132  47.116  48.284  1.00  0.00     0.002 A 
ENDBRANCH   2  18
TORSDOF 2
ENDMDL
MODEL 7
REMARK VINA RESULT:      -9.4      1.532      8.865
REMARK  2 active torsions:
REMARK  status: ('A' for Active; 'I' for Inactive)
REMARK    1  A    between atoms: N_8  and  N_9 
REMARK       I    between atoms: N_9  and  C_10 
REMARK    2  A    between atoms: C_10  and  C_11 
ROOT
HETATM    1  N   UNL     1      25.223  46.727  50.749  1.00  0.00    -0.242 N 
HETATM    2  C   UNL     1      25.577  47.565  49.704  1.00  0.00     0.273 C 
HETATM    3  O   UNL     1      26.687  47.591  49.174  1.00  0.00    -0.266 OA
HETATM    4  H   UNL     1      24.279  46.701  51.132  1.00  0.00     0.192 HD
ENDROOT
BRANCH   1   5
HETATM    5  N   UNL     1      26.139  45.823  51.210  1.00  0.00    -0.166 NA
HETATM    6  C   UNL     1      26.522  45.938  52.440  1.00  0.00     0.157 A 
HETATM    7  C   UNL     1      27.464  45.055  53.115  1.00  0.00     0.027 A 
HETATM    8  C   UNL     1      26.137  47.003  53.468  1.00  0.00     0.277 A 
HETATM    9  C   UNL     1      28.093  43.907  52.676  1.00  0.00     0.023 A 
HETATM   10  C   UNL     1      27.647  45.572  54.396  1.00  0.00     0.048 A 
HETATM   11  C   UNL     1      28.937  43.251  53.583  1.00  0.00    -0.061 A 
HETATM   12  C   UNL     1      29.653  41.993  53.179  1.00  0.00     0.048 C 
HETATM   13  C   UNL     1      29.140  43.792  54.878  1.00  0.00     0.009 A 
HETATM   14  C   UNL     1      28.491  44.960  55.296  1.00  0.00     0.031 A 
HETATM   15  N   UNL     1      26.877  46.717  54.593  1.00  0.00    -0.321 N 
HETATM   16  H   UNL     1      26.830  47.257  55.444  1.00  0.00     0.169 HD
HETATM   17  O   UNL     1      25.329  47.888  53.277  1.00  0.00    -0.266 OA
ENDBRANCH   1   5
BRANCH   2  18
HETATM   18  C   UNL     1      24.517  48.441  49.150  1.00  0.00     0.058 A 
HETATM   19  C   UNL     1      24.722  49.590  48.389  1.00  0.00     0.047 A 
HETATM   20  C   UNL     1      26.076  50.097  47.990  1.00  0.00     0.071 C 
HETATM   21  N   UNL     1      23.685  50.345  47.923  1.00  0.00    -0.252 NA
HETATM   22  C   UNL     1      22.419  49.948  48.154  1.00  0.00     0.067 A 
HETATM   23  C   UNL     1      22.124  48.778  48.875  1.00  0.00    -0.006 A 
HETATM   24  C   UNL     1      21.359  50.698  47.662  1.00  0.00     0.032 A 
HETATM   25  C   UNL     1      23.195  48.032  49.374  1.00  0.00     0.033 A 
HETATM   26  C   UNL     1      20.789  48.382  49.075  1.00  0.00     0.014 A 
HETATM   27  C   UNL     1      19.744  49.149  48.565  1.00  0.00     0.001 A 
HETATM   28  C   UNL     1      20.029  50.312  47.859  1.00  0.00     0.002 A 
ENDBRANCH   2  18
TORSDOF 2
ENDMDL
MODEL 8
REMARK VINA RESULT:      -9.3      3.835      5.066
REMARK  2 active torsions:
REMARK  status: ('A' for Active; 'I' for Inactive)
REMARK    1  A    between atoms: N_8  and  N_9 
REMARK       I    between atoms: N_9  and  C_10 
REMARK    2  A    between atoms: C_10  and  C_11 
ROOT
HETATM    1  N   UNL     1      26.867  42.995  52.583  1.00  0.00    -0.242 N 
HETATM    2  C   UNL     1      28.077  43.666  52.531  1.00  0.00     0.273 C 
HETATM    3  O   UNL     1      28.725  43.861  51.504  1.00  0.00    -0.266 OA
HETATM    4  H   UNL     1      26.335  42.893  53.446  1.00  0.00     0.192 HD
ENDROOT
BRANCH   1   5
HETATM    5  N   UNL     1      26.308  42.550  51.418  1.00  0.00    -0.166 NA
HETATM    6  C   UNL     1      25.242  43.152  51.000  1.00  0.00     0.157 A 
HETATM    7  C   UNL     1      24.524  42.841  49.771  1.00  0.00     0.027 A 
HETATM    8  C   UNL     1      24.458  44.283  51.667  1.00  0.00     0.277 A 
HETATM    9  C   UNL     1      24.811  41.938  48.767  1.00  0.00     0.023 A 
HETATM   10  C   UNL     1      23.408  43.674  49.739  1.00  0.00     0.048 A 
HETATM   11  C   UNL     1      23.929  41.887  47.678  1.00  0.00    -0.061 A 
HETATM   12  C   UNL     1      24.177  40.932  46.545  1.00  0.00     0.048 C 
HETATM   13  C   UNL     1      22.782  42.719  47.659  1.00  0.00     0.009 A 
HETATM   14  C   UNL     1      22.513  43.625  48.693  1.00  0.00     0.031 A 
HETATM   15  N   UNL     1      23.368  44.508  50.855  1.00  0.00    -0.321 N 
HETATM   16  H   UNL     1      22.666  45.207  51.045  1.00  0.00     0.169 HD
HETATM   17  O   UNL     1      24.784  44.839  52.695  1.00  0.00    -0.266 OA
ENDBRANCH   1   5
BRANCH   2  18
HETATM   18  C   UNL     1      28.586  44.243  53.799  1.00  0.00     0.058 A 
HETATM   19  C   UNL     1      28.112  45.396  54.420  1.00  0.00     0.047 A 
HETATM   20  C   UNL     1      26.975  46.220  53.895  1.00  0.00     0.071 C 
HETATM   21  N   UNL     1      28.645  45.862  55.587  1.00  0.00    -0.252 NA
HETATM   22  C   UNL     1      29.623  45.164  56.195  1.00  0.00     0.067 A 
HETATM   23  C   UNL     1      30.129  43.966  55.658  1.00  0.00    -0.006 A 
HETATM   24  C   UNL     1      30.154  45.619  57.395  1.00  0.00     0.032 A 
HETATM   25  C   UNL     1      29.596  43.519  54.446  1.00  0.00     0.033 A 
HETATM   26  C   UNL     1      31.135  43.252  56.335  1.00  0.00     0.014 A 
HETATM   27  C   UNL     1      31.645  43.727  57.541  1.00  0.00     0.001 A 
HETATM   28  C   UNL     1      31.155  44.915  58.071  1.00  0.00     0.002 A 
ENDBRANCH   2  18
TORSDOF 2
ENDMDL
MODEL 9
REMARK VINA RESULT:      -9.0      2.247      8.719
REMARK  2 active torsions:
REMARK  status: ('A' for Active; 'I' for Inactive)
REMARK    1  A    between atoms: N_8  and  N_9 
REMARK       I    between atoms: N_9  and  C_10 
REMARK    2  A    between atoms: C_10  and  C_11 
ROOT
HETATM    1  N   UNL     1      25.471  45.974  51.636  1.00  0.00    -0.242 N 
HETATM    2  C   UNL     1      25.439  45.891  50.254  1.00  0.00     0.273 C 
HETATM    3  O   UNL     1      26.323  45.386  49.563  1.00  0.00    -0.266 OA
HETATM    4  H   UNL     1      24.699  46.358  52.179  1.00  0.00     0.192 HD
ENDROOT
BRANCH   1   5
HETATM    5  N   UNL     1      26.525  45.419  52.307  1.00  0.00    -0.166 NA
HETATM    6  C   UNL     1      26.889  45.980  53.414  1.00  0.00     0.157 A 
HETATM    7  C   UNL     1      27.967  45.518  54.280  1.00  0.00     0.027 A 
HETATM    8  C   UNL     1      26.337  47.245  54.073  1.00  0.00     0.277 A 
HETATM    9  C   UNL     1      28.775  44.402  54.191  1.00  0.00     0.023 A 
HETATM   10  C   UNL     1      28.066  46.440  55.319  1.00  0.00     0.048 A 
HETATM   11  C   UNL     1      29.719  44.212  55.209  1.00  0.00    -0.061 A 
HETATM   12  C   UNL     1      30.631  43.018  55.184  1.00  0.00     0.048 C 
HETATM   13  C   UNL     1      29.834  45.163  56.253  1.00  0.00     0.009 A 
HETATM   14  C   UNL     1      29.003  46.289  56.317  1.00  0.00     0.031 A 
HETATM   15  N   UNL     1      27.118  47.454  55.188  1.00  0.00    -0.321 N 
HETATM   16  H   UNL     1      26.985  48.224  55.826  1.00  0.00     0.169 HD
HETATM   17  O   UNL     1      25.393  47.885  53.659  1.00  0.00    -0.266 OA
ENDBRANCH   1   5
BRANCH   2  18
HETATM   18  C   UNL     1      24.220  46.392  49.575  1.00  0.00     0.058 A 
HETATM   19  C   UNL     1      24.021  47.688  49.105  1.00  0.00     0.047 A 
HETATM   20  C   UNL     1      25.048  48.777  49.199  1.00  0.00     0.071 C 
HETATM   21  N   UNL     1      22.861  48.068  48.495  1.00  0.00    -0.252 NA
HETATM   22  C   UNL     1      21.892  47.156  48.285  1.00  0.00     0.067 A 
HETATM   23  C   UNL     1      22.030  45.815  48.688  1.00  0.00    -0.006 A 
HETATM   24  C   UNL     1      20.719  47.529  47.643  1.00  0.00     0.032 A 
HETATM   25  C   UNL     1      23.210  45.449  49.340  1.00  0.00     0.033 A 
HETATM   26  C   UNL     1      21.006  44.885  48.430  1.00  0.00     0.014 A 
HETATM   27  C   UNL     1      19.842  45.285  47.777  1.00  0.00     0.001 A 
HETATM   28  C   UNL     1      19.696  46.610  47.385  1.00  0.00     0.002 A 
ENDBRANCH   2  18
TORSDOF 2
ENDMDL
MODEL 10
REMARK VINA RESULT:      -9.0      1.538      8.833
REMARK  2 active torsions:
REMARK  status: ('A' for Active; 'I' for Inactive)
REMARK    1  A    between atoms: N_8  and  N_9 
REMARK       I    between atoms: N_9  and  C_10 
REMARK    2  A    between atoms: C_10  and  C_11 
ROOT
HETATM    1  N   UNL     1      25.109  46.646  51.853  1.00  0.00    -0.242 N 
HETATM    2  C   UNL     1      25.377  47.239  50.630  1.00  0.00     0.273 C 
HETATM    3  O   UNL     1      26.504  47.428  50.177  1.00  0.00    -0.266 OA
HETATM    4  H   UNL     1      24.159  46.463  52.175  1.00  0.00     0.192 HD
ENDROOT
BRANCH   1   5
HETATM    5  N   UNL     1      26.152  46.186  52.607  1.00  0.00    -0.166 NA
HETATM    6  C   UNL     1      26.364  44.911  52.616  1.00  0.00     0.157 A 
HETATM    7  C   UNL     1      27.441  44.240  53.334  1.00  0.00     0.027 A 
HETATM    8  C   UNL     1      25.561  43.802  51.935  1.00  0.00     0.277 A 
HETATM    9  C   UNL     1      28.483  44.756  54.077  1.00  0.00     0.023 A 
HETATM   10  C   UNL     1      27.264  42.873  53.131  1.00  0.00     0.048 A 
HETATM   11  C   UNL     1      29.390  43.842  54.631  1.00  0.00    -0.061 A 
HETATM   12  C   UNL     1      30.552  44.328  55.450  1.00  0.00     0.048 C 
HETATM   13  C   UNL     1      29.195  42.451  54.443  1.00  0.00     0.009 A 
HETATM   14  C   UNL     1      28.127  41.954  53.685  1.00  0.00     0.031 A 
HETATM   15  N   UNL     1      26.157  42.621  52.322  1.00  0.00    -0.321 N 
HETATM   16  H   UNL     1      25.839  41.712  52.022  1.00  0.00     0.169 HD
HETATM   17  O   UNL     1      24.609  43.985  51.206  1.00  0.00    -0.266 OA
ENDBRANCH   1   5
BRANCH   2  18
HETATM   18  C   UNL     1      24.213  47.608  49.788  1.00  0.00     0.058 A 
HETATM   19  C   UNL     1      23.479  46.739  48.983  1.00  0.00     0.047 A 
HETATM   20  C   UNL     1      23.753  45.269  48.875  1.00  0.00     0.071 C 
HETATM   21  N   UNL     1      22.423  47.166  48.232  1.00  0.00    -0.252 NA
HETATM   22  C   UNL     1      22.034  48.453  48.304  1.00  0.00     0.067 A 
HETATM   23  C   UNL     1      22.692  49.386  49.125  1.00  0.00    -0.006 A 
HETATM   24  C   UNL     1      20.945  48.889  47.561  1.00  0.00     0.032 A 
HETATM   25  C   UNL     1      23.792  48.942  49.864  1.00  0.00     0.033 A 
HETATM   26  C   UNL     1      22.242  50.717  49.193  1.00  0.00     0.014 A 
HETATM   27  C   UNL     1      21.142  51.127  48.443  1.00  0.00     0.001 A 
HETATM   28  C   UNL     1      20.494  50.211  47.622  1.00  0.00     0.002 A 
ENDBRANCH   2  18
TORSDOF 2
ENDMDL
