MODEL 1
REMARK VINA RESULT:     -10.2      0.000      0.000
REMARK  5 active torsions:
REMARK  status: ('A' for Active; 'I' for Inactive)
REMARK    1  A    between atoms: C_2  and  N_3 
REMARK    2  A    between atoms: C_5  and  C_6 
REMARK    3  A    between atoms: C_6  and  C_7 
REMARK       I    between atoms: C_7  and  N_8 
REMARK    4  A    between atoms: N_8  and  C_9 
REMARK    5  A    between atoms: C_16  and  O_17 
ROOT
HETATM    1  C   UNL     1      24.674  47.370  50.251  1.00  0.00     0.224 C 
HETATM    2  N   UNL     1      23.471  48.010  50.149  1.00  0.00    -0.351 N 
HETATM    3  O   UNL     1      25.259  46.924  49.260  1.00  0.00    -0.273 OA
HETATM    4  H   UNL     1      23.064  48.417  50.989  1.00  0.00     0.163 HD
ENDROOT
BRANCH   2   5
HETATM    5  C   UNL     1      22.959  48.390  48.851  1.00  0.00     0.135 C 
HETATM    6  C   UNL     1      21.480  48.538  48.928  1.00  0.00     0.040 A 
HETATM    7  C   UNL     1      20.766  49.716  48.830  1.00  0.00    -0.021 A 
HETATM    8  N   UNL     1      20.590  47.504  49.019  1.00  0.00    -0.357 N 
HETATM    9  C   UNL     1      19.388  49.371  48.755  1.00  0.00     0.002 A 
HETATM   10  C   UNL     1      21.423  51.047  48.697  1.00  0.00     0.042 C 
HETATM   11  C   UNL     1      19.305  47.982  48.871  1.00  0.00     0.043 A 
HETATM   12  C   UNL     1      18.201  50.104  48.554  1.00  0.00     0.051 A 
HETATM   13  C   UNL     1      18.087  47.297  48.809  1.00  0.00     0.033 A 
HETATM   14  C   UNL     1      16.924  48.048  48.586  1.00  0.00     0.039 A 
HETATM   15  C   UNL     1      16.977  49.433  48.440  1.00  0.00     0.069 A 
HETATM   16  C   UNL     1      22.926  50.957  49.020  1.00  0.00     0.007 C 
HETATM   17  C   UNL     1      23.583  49.724  48.367  1.00  0.00     0.032 C 
HETATM   18  H   UNL     1      20.838  46.527  49.105  1.00  0.00     0.166 HD
BRANCH  15  19
HETATM   19  O   UNL     1      15.902  50.247  48.194  1.00  0.00    -0.356 OA
HETATM   20  C   UNL     1      15.908  51.510  48.849  1.00  0.00     0.210 C 
ENDBRANCH  15  19
ENDBRANCH   2   5
BRANCH   1  21
HETATM   21  C   UNL     1      25.343  47.264  51.596  1.00  0.00     0.164 C 
BRANCH  21  22
HETATM   22  C   UNL     1      25.938  45.978  52.125  1.00  0.00     0.075 A 
HETATM   23  N   UNL     1      25.722  44.855  51.510  1.00  0.00    -0.172 NA
HETATM   24  N   UNL     1      26.282  43.693  51.998  1.00  0.00    -0.230 N 
HETATM   25  C   UNL     1      27.156  43.649  53.088  1.00  0.00     0.275 A 
HETATM   26  C   UNL     1      27.367  44.909  53.815  1.00  0.00     0.046 A 
HETATM   27  O   UNL     1      27.741  42.638  53.468  1.00  0.00    -0.266 OA
HETATM   28  C   UNL     1      26.767  46.072  53.355  1.00  0.00     0.006 A 
HETATM   29  C   UNL     1      28.171  44.933  54.964  1.00  0.00     0.018 A 
HETATM   30  C   UNL     1      26.970  47.274  54.053  1.00  0.00     0.014 A 
HETATM   31  C   UNL     1      27.767  47.297  55.201  1.00  0.00     0.001 A 
HETATM   32  C   UNL     1      28.368  46.127  55.657  1.00  0.00     0.001 A 
BRANCH  24  33
HETATM   33  C   UNL     1      26.096  42.471  51.197  1.00  0.00     0.105 C 
HETATM   34  C   UNL     1      27.172  42.371  50.117  1.00  0.00     0.034 C 
HETATM   35  C   UNL     1      24.697  42.374  50.591  1.00  0.00     0.034 C 
ENDBRANCH  24  33
ENDBRANCH  21  22
ENDBRANCH   1  21
TORSDOF 5
ENDMDL
MODEL 2
REMARK VINA RESULT:     -10.1      5.678      7.922
REMARK  5 active torsions:
REMARK  status: ('A' for Active; 'I' for Inactive)
REMARK    1  A    between atoms: C_2  and  N_3 
REMARK    2  A    between atoms: C_5  and  C_6 
REMARK    3  A    between atoms: C_6  and  C_7 
REMARK       I    between atoms: C_7  and  N_8 
REMARK    4  A    between atoms: N_8  and  C_9 
REMARK    5  A    between atoms: C_16  and  O_17 
ROOT
HETATM    1  C   UNL     1      28.542  41.738  52.810  1.00  0.00     0.224 C 
HETATM    2  N   UNL     1      28.732  41.400  51.499  1.00  0.00    -0.351 N 
HETATM    3  O   UNL     1      27.577  41.319  53.455  1.00  0.00    -0.273 OA
HETATM    4  H   UNL     1      29.578  41.718  51.032  1.00  0.00     0.163 HD
ENDROOT
BRANCH   2   5
HETATM    5  C   UNL     1      27.934  40.355  50.897  1.00  0.00     0.135 C 
HETATM    6  C   UNL     1      26.821  40.968  50.123  1.00  0.00     0.040 A 
HETATM    7  C   UNL     1      26.677  40.970  48.749  1.00  0.00    -0.021 A 
HETATM    8  N   UNL     1      25.711  41.552  50.669  1.00  0.00    -0.357 N 
HETATM    9  C   UNL     1      25.383  41.482  48.458  1.00  0.00     0.002 A 
HETATM   10  C   UNL     1      27.700  40.390  47.832  1.00  0.00     0.042 C 
HETATM   11  C   UNL     1      24.798  41.836  49.676  1.00  0.00     0.043 A 
HETATM   12  C   UNL     1      24.631  41.640  47.276  1.00  0.00     0.051 A 
HETATM   13  C   UNL     1      23.501  42.353  49.761  1.00  0.00     0.033 A 
HETATM   14  C   UNL     1      22.767  42.477  48.573  1.00  0.00     0.039 A 
HETATM   15  C   UNL     1      23.314  42.109  47.345  1.00  0.00     0.069 A 
HETATM   16  C   UNL     1      29.022  40.122  48.576  1.00  0.00     0.007 C 
HETATM   17  C   UNL     1      28.786  39.467  49.953  1.00  0.00     0.032 C 
HETATM   18  H   UNL     1      25.551  41.688  51.659  1.00  0.00     0.166 HD
BRANCH  15  19
HETATM   19  O   UNL     1      22.667  42.171  46.137  1.00  0.00    -0.356 OA
HETATM   20  C   UNL     1      21.323  42.633  46.168  1.00  0.00     0.210 C 
ENDBRANCH  15  19
ENDBRANCH   2   5
BRANCH   1  21
HETATM   21  C   UNL     1      29.570  42.586  53.510  1.00  0.00     0.164 C 
BRANCH  21  22
HETATM   22  C   UNL     1      29.213  43.772  54.377  1.00  0.00     0.075 A 
HETATM   23  N   UNL     1      28.215  44.540  54.058  1.00  0.00    -0.172 NA
HETATM   24  N   UNL     1      27.894  45.610  54.866  1.00  0.00    -0.230 N 
HETATM   25  C   UNL     1      28.530  45.887  56.079  1.00  0.00     0.275 A 
HETATM   26  C   UNL     1      29.689  45.051  56.422  1.00  0.00     0.046 A 
HETATM   27  O   UNL     1      28.186  46.775  56.856  1.00  0.00    -0.266 OA
HETATM   28  C   UNL     1      30.045  44.001  55.587  1.00  0.00     0.006 A 
HETATM   29  C   UNL     1      30.428  45.312  57.585  1.00  0.00     0.018 A 
HETATM   30  C   UNL     1      31.154  43.205  55.917  1.00  0.00     0.014 A 
HETATM   31  C   UNL     1      31.892  43.468  57.074  1.00  0.00     0.001 A 
HETATM   32  C   UNL     1      31.530  44.521  57.909  1.00  0.00     0.001 A 
BRANCH  24  33
HETATM   33  C   UNL     1      26.685  46.376  54.515  1.00  0.00     0.105 C 
HETATM   34  C   UNL     1      25.512  45.432  54.256  1.00  0.00     0.034 C 
HETATM   35  C   UNL     1      26.909  47.315  53.332  1.00  0.00     0.034 C 
ENDBRANCH  24  33
ENDBRANCH  21  22
ENDBRANCH   1  21
TORSDOF 5
ENDMDL
MODEL 3
REMARK VINA RESULT:      -9.7      2.460      4.569
REMARK  5 active torsions:
REMARK  status: ('A' for Active; 'I' for Inactive)
REMARK    1  A    between atoms: C_2  and  N_3 
REMARK    2  A    between atoms: C_5  and  C_6 
REMARK    3  A    between atoms: C_6  and  C_7 
REMARK       I    between atoms: C_7  and  N_8 
REMARK    4  A    between atoms: N_8  and  C_9 
REMARK    5  A    between atoms: C_16  and  O_17 
ROOT
HETATM    1  C   UNL     1      27.383  43.797  51.069  1.00  0.00     0.224 C 
HETATM    2  N   UNL     1      26.574  44.890  50.930  1.00  0.00    -0.351 N 
HETATM    3  O   UNL     1      27.762  43.141  50.096  1.00  0.00    -0.273 OA
HETATM    4  H   UNL     1      26.345  45.435  51.758  1.00  0.00     0.163 HD
ENDROOT
BRANCH   2   5
HETATM    5  C   UNL     1      26.328  45.447  49.618  1.00  0.00     0.135 C 
HETATM    6  C   UNL     1      24.878  45.750  49.475  1.00  0.00     0.040 A 
HETATM    7  C   UNL     1      24.302  47.003  49.398  1.00  0.00    -0.021 A 
HETATM    8  N   UNL     1      23.893  44.815  49.304  1.00  0.00    -0.357 N 
HETATM    9  C   UNL     1      22.931  46.821  49.066  1.00  0.00     0.002 A 
HETATM   10  C   UNL     1      25.093  48.260  49.524  1.00  0.00     0.042 C 
HETATM   11  C   UNL     1      22.702  45.444  49.009  1.00  0.00     0.043 A 
HETATM   12  C   UNL     1      21.869  47.696  48.762  1.00  0.00     0.051 A 
HETATM   13  C   UNL     1      21.454  44.907  48.677  1.00  0.00     0.033 A 
HETATM   14  C   UNL     1      20.421  45.800  48.357  1.00  0.00     0.039 A 
HETATM   15  C   UNL     1      20.626  47.178  48.380  1.00  0.00     0.069 A 
HETATM   16  C   UNL     1      26.505  47.975  50.069  1.00  0.00     0.007 C 
HETATM   17  C   UNL     1      27.146  46.745  49.394  1.00  0.00     0.032 C 
HETATM   18  H   UNL     1      24.031  43.814  49.318  1.00  0.00     0.166 HD
BRANCH  15  19
HETATM   19  O   UNL     1      19.688  48.126  48.060  1.00  0.00    -0.356 OA
HETATM   20  C   UNL     1      19.596  49.239  48.939  1.00  0.00     0.210 C 
ENDBRANCH  15  19
ENDBRANCH   2   5
BRANCH   1  21
HETATM   21  C   UNL     1      27.885  43.420  52.438  1.00  0.00     0.164 C 
BRANCH  21  22
HETATM   22  C   UNL     1      28.010  44.410  53.574  1.00  0.00     0.075 A 
HETATM   23  N   UNL     1      27.172  45.396  53.679  1.00  0.00    -0.172 NA
HETATM   24  N   UNL     1      27.291  46.282  54.729  1.00  0.00    -0.230 N 
HETATM   25  C   UNL     1      28.223  46.144  55.761  1.00  0.00     0.275 A 
HETATM   26  C   UNL     1      29.204  45.058  55.623  1.00  0.00     0.046 A 
HETATM   27  O   UNL     1      28.272  46.867  56.753  1.00  0.00    -0.266 OA
HETATM   28  C   UNL     1      29.116  44.191  54.543  1.00  0.00     0.006 A 
HETATM   29  C   UNL     1      30.219  44.899  56.578  1.00  0.00     0.018 A 
HETATM   30  C   UNL     1      30.056  43.156  54.414  1.00  0.00     0.014 A 
HETATM   31  C   UNL     1      31.070  43.000  55.363  1.00  0.00     0.001 A 
HETATM   32  C   UNL     1      31.152  43.871  56.446  1.00  0.00     0.001 A 
BRANCH  24  33
HETATM   33  C   UNL     1      26.245  47.311  54.860  1.00  0.00     0.105 C 
HETATM   34  C   UNL     1      25.495  47.480  53.539  1.00  0.00     0.034 C 
HETATM   35  C   UNL     1      26.795  48.647  55.356  1.00  0.00     0.034 C 
ENDBRANCH  24  33
ENDBRANCH  21  22
ENDBRANCH   1  21
TORSDOF 5
ENDMDL
MODEL 4
REMARK VINA RESULT:      -9.7      1.795      9.535
REMARK  5 active torsions:
REMARK  status: ('A' for Active; 'I' for Inactive)
REMARK    1  A    between atoms: C_2  and  N_3 
REMARK    2  A    between atoms: C_5  and  C_6 
REMARK    3  A    between atoms: C_6  and  C_7 
REMARK       I    between atoms: C_7  and  N_8 
REMARK    4  A    between atoms: N_8  and  C_9 
REMARK    5  A    between atoms: C_16  and  O_17 
ROOT
HETATM    1  C   UNL     1      22.723  49.149  49.418  1.00  0.00     0.224 C 
HETATM    2  N   UNL     1      22.600  47.789  49.481  1.00  0.00    -0.351 N 
HETATM    3  O   UNL     1      23.824  49.697  49.310  1.00  0.00    -0.273 OA
HETATM    4  H   UNL     1      21.665  47.386  49.502  1.00  0.00     0.163 HD
ENDROOT
BRANCH   2   5
HETATM    5  C   UNL     1      23.735  46.943  49.190  1.00  0.00     0.135 C 
HETATM    6  C   UNL     1      24.349  46.484  50.466  1.00  0.00     0.040 A 
HETATM    7  C   UNL     1      24.345  45.196  50.964  1.00  0.00    -0.021 A 
HETATM    8  N   UNL     1      25.097  47.265  51.305  1.00  0.00    -0.357 N 
HETATM    9  C   UNL     1      25.210  45.175  52.093  1.00  0.00     0.002 A 
HETATM   10  C   UNL     1      23.636  44.074  50.287  1.00  0.00     0.042 C 
HETATM   11  C   UNL     1      25.670  46.480  52.282  1.00  0.00     0.043 A 
HETATM   12  C   UNL     1      25.683  44.161  52.949  1.00  0.00     0.051 A 
HETATM   13  C   UNL     1      26.571  46.816  53.299  1.00  0.00     0.033 A 
HETATM   14  C   UNL     1      27.044  45.784  54.121  1.00  0.00     0.039 A 
HETATM   15  C   UNL     1      26.623  44.467  53.942  1.00  0.00     0.069 A 
HETATM   16  C   UNL     1      22.674  44.599  49.205  1.00  0.00     0.007 C 
HETATM   17  C   UNL     1      23.319  45.709  48.349  1.00  0.00     0.032 C 
HETATM   18  H   UNL     1      25.266  48.255  51.183  1.00  0.00     0.166 HD
BRANCH  15  19
HETATM   19  O   UNL     1      27.046  43.390  54.677  1.00  0.00    -0.356 OA
HETATM   20  C   UNL     1      28.028  42.561  54.067  1.00  0.00     0.210 C 
ENDBRANCH  15  19
ENDBRANCH   2   5
BRANCH   1  21
HETATM   21  C   UNL     1      21.484  50.004  49.407  1.00  0.00     0.164 C 
BRANCH  21  22
HETATM   22  C   UNL     1      20.169  49.547  48.817  1.00  0.00     0.075 A 
HETATM   23  N   UNL     1      20.094  48.418  48.180  1.00  0.00    -0.172 NA
HETATM   24  N   UNL     1      18.885  48.009  47.658  1.00  0.00    -0.230 N 
HETATM   25  C   UNL     1      17.685  48.701  47.843  1.00  0.00     0.275 A 
HETATM   26  C   UNL     1      17.771  50.001  48.523  1.00  0.00     0.046 A 
HETATM   27  O   UNL     1      16.586  48.295  47.472  1.00  0.00    -0.266 OA
HETATM   28  C   UNL     1      18.996  50.439  49.008  1.00  0.00     0.006 A 
HETATM   29  C   UNL     1      16.623  50.792  48.681  1.00  0.00     0.018 A 
HETATM   30  C   UNL     1      19.074  51.682  49.656  1.00  0.00     0.014 A 
HETATM   31  C   UNL     1      17.931  52.472  49.809  1.00  0.00     0.001 A 
HETATM   32  C   UNL     1      16.705  52.027  49.322  1.00  0.00     0.001 A 
BRANCH  24  33
HETATM   33  C   UNL     1      18.837  46.670  47.046  1.00  0.00     0.105 C 
HETATM   34  C   UNL     1      19.145  45.595  48.087  1.00  0.00     0.034 C 
HETATM   35  C   UNL     1      19.761  46.545  45.836  1.00  0.00     0.034 C 
ENDBRANCH  24  33
ENDBRANCH  21  22
ENDBRANCH   1  21
TORSDOF 5
ENDMDL
MODEL 5
REMARK VINA RESULT:      -9.7      2.016      2.977
REMARK  5 active torsions:
REMARK  status: ('A' for Active; 'I' for Inactive)
REMARK    1  A    between atoms: C_2  and  N_3 
REMARK    2  A    between atoms: C_5  and  C_6 
REMARK    3  A    between atoms: C_6  and  C_7 
REMARK       I    between atoms: C_7  and  N_8 
REMARK    4  A    between atoms: N_8  and  C_9 
REMARK    5  A    between atoms: C_16  and  O_17 
ROOT
HETATM    1  C   UNL     1      25.348  45.838  51.688  1.00  0.00     0.224 C 
HETATM    2  N   UNL     1      25.826  46.948  51.049  1.00  0.00    -0.351 N 
HETATM    3  O   UNL     1      24.605  45.032  51.122  1.00  0.00    -0.273 OA
HETATM    4  H   UNL     1      26.489  47.545  51.539  1.00  0.00     0.163 HD
ENDROOT
BRANCH   2   5
HETATM    5  C   UNL     1      25.663  47.088  49.619  1.00  0.00     0.135 C 
HETATM    6  C   UNL     1      24.355  47.739  49.334  1.00  0.00     0.040 A 
HETATM    7  C   UNL     1      24.162  49.007  48.822  1.00  0.00    -0.021 A 
HETATM    8  N   UNL     1      23.133  47.135  49.453  1.00  0.00    -0.357 N 
HETATM    9  C   UNL     1      22.777  49.138  48.524  1.00  0.00     0.002 A 
HETATM   10  C   UNL     1      25.288  49.944  48.546  1.00  0.00     0.042 C 
HETATM   11  C   UNL     1      22.157  47.952  48.924  1.00  0.00     0.043 A 
HETATM   12  C   UNL     1      21.994  50.136  47.909  1.00  0.00     0.051 A 
HETATM   13  C   UNL     1      20.787  47.728  48.749  1.00  0.00     0.033 A 
HETATM   14  C   UNL     1      20.036  48.728  48.114  1.00  0.00     0.039 A 
HETATM   15  C   UNL     1      20.631  49.912  47.680  1.00  0.00     0.069 A 
HETATM   16  C   UNL     1      26.591  49.452  49.203  1.00  0.00     0.007 C 
HETATM   17  C   UNL     1      26.803  47.937  49.001  1.00  0.00     0.032 C 
HETATM   18  H   UNL     1      22.977  46.200  49.806  1.00  0.00     0.166 HD
BRANCH  15  19
HETATM   19  O   UNL     1      19.987  50.932  47.030  1.00  0.00    -0.356 OA
HETATM   20  C   UNL     1      18.797  50.581  46.335  1.00  0.00     0.210 C 
ENDBRANCH  15  19
ENDBRANCH   2   5
BRANCH   1  21
HETATM   21  C   UNL     1      25.793  45.549  53.097  1.00  0.00     0.164 C 
BRANCH  21  22
HETATM   22  C   UNL     1      27.028  44.741  53.425  1.00  0.00     0.075 A 
HETATM   23  N   UNL     1      27.323  43.684  52.730  1.00  0.00    -0.172 NA
HETATM   24  N   UNL     1      28.460  42.965  53.033  1.00  0.00    -0.230 N 
HETATM   25  C   UNL     1      29.385  43.348  54.007  1.00  0.00     0.275 A 
HETATM   26  C   UNL     1      29.034  44.516  54.829  1.00  0.00     0.046 A 
HETATM   27  O   UNL     1      30.451  42.773  54.217  1.00  0.00    -0.266 OA
HETATM   28  C   UNL     1      27.866  45.215  54.557  1.00  0.00     0.006 A 
HETATM   29  C   UNL     1      29.874  44.919  55.877  1.00  0.00     0.018 A 
HETATM   30  C   UNL     1      27.533  46.329  55.345  1.00  0.00     0.014 A 
HETATM   31  C   UNL     1      28.368  46.728  56.392  1.00  0.00     0.001 A 
HETATM   32  C   UNL     1      29.539  46.024  56.658  1.00  0.00     0.001 A 
BRANCH  24  33
HETATM   33  C   UNL     1      28.803  41.845  52.140  1.00  0.00     0.105 C 
HETATM   34  C   UNL     1      27.930  41.876  50.886  1.00  0.00     0.034 C 
HETATM   35  C   UNL     1      28.715  40.489  52.839  1.00  0.00     0.034 C 
ENDBRANCH  24  33
ENDBRANCH  21  22
ENDBRANCH   1  21
TORSDOF 5
ENDMDL
MODEL 6
REMARK VINA RESULT:      -9.6      5.910      9.646
REMARK  5 active torsions:
REMARK  status: ('A' for Active; 'I' for Inactive)
REMARK    1  A    between atoms: C_2  and  N_3 
REMARK    2  A    between atoms: C_5  and  C_6 
REMARK    3  A    between atoms: C_6  and  C_7 
REMARK       I    between atoms: C_7  and  N_8 
REMARK    4  A    between atoms: N_8  and  C_9 
REMARK    5  A    between atoms: C_16  and  O_17 
ROOT
HETATM    1  C   UNL     1      28.333  41.334  51.783  1.00  0.00     0.224 C 
HETATM    2  N   UNL     1      28.866  40.593  50.765  1.00  0.00    -0.351 N 
HETATM    3  O   UNL     1      27.181  41.150  52.185  1.00  0.00    -0.273 OA
HETATM    4  H   UNL     1      29.842  40.739  50.517  1.00  0.00     0.163 HD
ENDROOT
BRANCH   2   5
HETATM    5  C   UNL     1      28.176  39.416  50.286  1.00  0.00     0.135 C 
HETATM    6  C   UNL     1      27.763  39.628  48.872  1.00  0.00     0.040 A 
HETATM    7  C   UNL     1      28.271  38.983  47.761  1.00  0.00    -0.021 A 
HETATM    8  N   UNL     1      26.740  40.439  48.465  1.00  0.00    -0.357 N 
HETATM    9  C   UNL     1      27.455  39.341  46.653  1.00  0.00     0.002 A 
HETATM   10  C   UNL     1      29.392  38.003  47.842  1.00  0.00     0.042 C 
HETATM   11  C   UNL     1      26.503  40.249  47.120  1.00  0.00     0.043 A 
HETATM   12  C   UNL     1      27.406  38.946  45.301  1.00  0.00     0.051 A 
HETATM   13  C   UNL     1      25.514  40.790  46.291  1.00  0.00     0.033 A 
HETATM   14  C   UNL     1      25.473  40.362  44.957  1.00  0.00     0.039 A 
HETATM   15  C   UNL     1      26.394  39.437  44.466  1.00  0.00     0.069 A 
HETATM   16  C   UNL     1      30.092  38.074  49.212  1.00  0.00     0.007 C 
HETATM   17  C   UNL     1      29.079  38.159  50.373  1.00  0.00     0.032 C 
HETATM   18  H   UNL     1      26.189  41.033  49.072  1.00  0.00     0.166 HD
BRANCH  15  19
HETATM   19  O   UNL     1      26.419  38.942  43.189  1.00  0.00    -0.356 OA
HETATM   20  C   UNL     1      27.682  38.955  42.534  1.00  0.00     0.210 C 
ENDBRANCH  15  19
ENDBRANCH   2   5
BRANCH   1  21
HETATM   21  C   UNL     1      29.191  42.354  52.482  1.00  0.00     0.164 C 
BRANCH  21  22
HETATM   22  C   UNL     1      28.629  43.581  53.164  1.00  0.00     0.075 A 
HETATM   23  N   UNL     1      27.588  44.183  52.674  1.00  0.00    -0.172 NA
HETATM   24  N   UNL     1      27.078  45.293  53.315  1.00  0.00    -0.230 N 
HETATM   25  C   UNL     1      27.565  45.780  54.531  1.00  0.00     0.275 A 
HETATM   26  C   UNL     1      28.771  45.131  55.066  1.00  0.00     0.046 A 
HETATM   27  O   UNL     1      27.057  46.703  55.162  1.00  0.00    -0.266 OA
HETATM   28  C   UNL     1      29.315  44.043  54.399  1.00  0.00     0.006 A 
HETATM   29  C   UNL     1      29.365  45.609  56.243  1.00  0.00     0.018 A 
HETATM   30  C   UNL     1      30.468  43.427  54.912  1.00  0.00     0.014 A 
HETATM   31  C   UNL     1      31.062  43.906  56.083  1.00  0.00     0.001 A 
HETATM   32  C   UNL     1      30.512  44.997  56.749  1.00  0.00     0.001 A 
BRANCH  24  33
HETATM   33  C   UNL     1      25.832  45.865  52.777  1.00  0.00     0.105 C 
HETATM   34  C   UNL     1      24.982  44.775  52.126  1.00  0.00     0.034 C 
HETATM   35  C   UNL     1      26.086  47.018  51.809  1.00  0.00     0.034 C 
ENDBRANCH  24  33
ENDBRANCH  21  22
ENDBRANCH   1  21
TORSDOF 5
ENDMDL
MODEL 7
REMARK VINA RESULT:      -9.6      2.274      4.365
REMARK  5 active torsions:
REMARK  status: ('A' for Active; 'I' for Inactive)
REMARK    1  A    between atoms: C_2  and  N_3 
REMARK    2  A    between atoms: C_5  and  C_6 
REMARK    3  A    between atoms: C_6  and  C_7 
REMARK       I    between atoms: C_7  and  N_8 
REMARK    4  A    between atoms: N_8  and  C_9 
REMARK    5  A    between atoms: C_16  and  O_17 
ROOT
HETATM    1  C   UNL     1      25.171  44.621  51.756  1.00  0.00     0.224 C 
HETATM    2  N   UNL     1      25.569  45.843  51.289  1.00  0.00    -0.351 N 
HETATM    3  O   UNL     1      24.615  43.797  51.026  1.00  0.00    -0.273 OA
HETATM    4  H   UNL     1      26.083  46.459  51.915  1.00  0.00     0.163 HD
ENDROOT
BRANCH   2   5
HETATM    5  C   UNL     1      25.560  46.115  49.869  1.00  0.00     0.135 C 
HETATM    6  C   UNL     1      24.337  46.891  49.524  1.00  0.00     0.040 A 
HETATM    7  C   UNL     1      24.288  48.209  49.115  1.00  0.00    -0.021 A 
HETATM    8  N   UNL     1      23.069  46.379  49.473  1.00  0.00    -0.357 N 
HETATM    9  C   UNL     1      22.953  48.475  48.702  1.00  0.00     0.002 A 
HETATM   10  C   UNL     1      25.501  49.071  49.031  1.00  0.00     0.042 C 
HETATM   11  C   UNL     1      22.212  47.314  48.932  1.00  0.00     0.043 A 
HETATM   12  C   UNL     1      22.310  49.581  48.110  1.00  0.00     0.051 A 
HETATM   13  C   UNL     1      20.854  47.217  48.611  1.00  0.00     0.033 A 
HETATM   14  C   UNL     1      20.245  48.323  48.003  1.00  0.00     0.039 A 
HETATM   15  C   UNL     1      20.964  49.487  47.736  1.00  0.00     0.069 A 
HETATM   16  C   UNL     1      26.693  48.422  49.759  1.00  0.00     0.007 C 
HETATM   17  C   UNL     1      26.814  46.918  49.440  1.00  0.00     0.032 C 
HETATM   18  H   UNL     1      22.812  45.433  49.723  1.00  0.00     0.166 HD
BRANCH  15  19
HETATM   19  O   UNL     1      20.463  50.607  47.125  1.00  0.00    -0.356 OA
HETATM   20  C   UNL     1      19.073  50.591  46.825  1.00  0.00     0.210 C 
ENDBRANCH  15  19
ENDBRANCH   2   5
BRANCH   1  21
HETATM   21  C   UNL     1      25.480  44.238  53.179  1.00  0.00     0.164 C 
BRANCH  21  22
HETATM   22  C   UNL     1      26.752  44.646  53.888  1.00  0.00     0.075 A 
HETATM   23  N   UNL     1      26.777  45.716  54.624  1.00  0.00    -0.172 NA
HETATM   24  N   UNL     1      27.941  46.068  55.275  1.00  0.00    -0.230 N 
HETATM   25  C   UNL     1      29.101  45.290  55.266  1.00  0.00     0.275 A 
HETATM   26  C   UNL     1      29.094  44.103  54.399  1.00  0.00     0.046 A 
HETATM   27  O   UNL     1      30.109  45.540  55.924  1.00  0.00    -0.266 OA
HETATM   28  C   UNL     1      27.939  43.772  53.704  1.00  0.00     0.006 A 
HETATM   29  C   UNL     1      30.246  43.312  54.277  1.00  0.00     0.018 A 
HETATM   30  C   UNL     1      27.936  42.638  52.876  1.00  0.00     0.014 A 
HETATM   31  C   UNL     1      29.086  41.852  52.751  1.00  0.00     0.001 A 
HETATM   32  C   UNL     1      30.241  42.188  53.451  1.00  0.00     0.001 A 
BRANCH  24  33
HETATM   33  C   UNL     1      27.877  47.226  56.183  1.00  0.00     0.105 C 
HETATM   34  C   UNL     1      27.843  46.762  57.638  1.00  0.00     0.034 C 
HETATM   35  C   UNL     1      26.702  48.151  55.872  1.00  0.00     0.034 C 
ENDBRANCH  24  33
ENDBRANCH  21  22
ENDBRANCH   1  21
TORSDOF 5
ENDMDL
MODEL 8
REMARK VINA RESULT:      -9.4      2.396      4.424
REMARK  5 active torsions:
REMARK  status: ('A' for Active; 'I' for Inactive)
REMARK    1  A    between atoms: C_2  and  N_3 
REMARK    2  A    between atoms: C_5  and  C_6 
REMARK    3  A    between atoms: C_6  and  C_7 
REMARK       I    between atoms: C_7  and  N_8 
REMARK    4  A    between atoms: N_8  and  C_9 
REMARK    5  A    between atoms: C_16  and  O_17 
ROOT
HETATM    1  C   UNL     1      21.917  46.366  47.548  1.00  0.00     0.224 C 
HETATM    2  N   UNL     1      21.730  47.484  48.312  1.00  0.00    -0.351 N 
HETATM    3  O   UNL     1      21.765  46.383  46.324  1.00  0.00    -0.273 OA
HETATM    4  H   UNL     1      21.933  47.432  49.308  1.00  0.00     0.163 HD
ENDROOT
BRANCH   2   5
HETATM    5  C   UNL     1      21.575  48.776  47.681  1.00  0.00     0.135 C 
HETATM    6  C   UNL     1      20.366  49.450  48.228  1.00  0.00     0.040 A 
HETATM    7  C   UNL     1      20.344  50.570  49.036  1.00  0.00    -0.021 A 
HETATM    8  N   UNL     1      19.075  49.109  47.933  1.00  0.00    -0.357 N 
HETATM    9  C   UNL     1      18.988  50.984  49.150  1.00  0.00     0.002 A 
HETATM   10  C   UNL     1      21.585  51.227  49.536  1.00  0.00     0.042 C 
HETATM   11  C   UNL     1      18.215  50.056  48.448  1.00  0.00     0.043 A 
HETATM   12  C   UNL     1      18.343  52.086  49.747  1.00  0.00     0.051 A 
HETATM   13  C   UNL     1      16.826  50.175  48.330  1.00  0.00     0.033 A 
HETATM   14  C   UNL     1      16.214  51.293  48.914  1.00  0.00     0.039 A 
HETATM   15  C   UNL     1      16.961  52.250  49.599  1.00  0.00     0.069 A 
HETATM   16  C   UNL     1      22.814  50.323  49.322  1.00  0.00     0.007 C 
HETATM   17  C   UNL     1      22.816  49.674  47.923  1.00  0.00     0.032 C 
HETATM   18  H   UNL     1      18.795  48.324  47.359  1.00  0.00     0.166 HD
BRANCH  15  19
HETATM   19  O   UNL     1      16.456  53.385  50.180  1.00  0.00    -0.356 OA
HETATM   20  C   UNL     1      15.060  53.386  50.448  1.00  0.00     0.210 C 
ENDBRANCH  15  19
ENDBRANCH   2   5
BRANCH   1  21
HETATM   21  C   UNL     1      22.389  45.095  48.202  1.00  0.00     0.164 C 
BRANCH  21  22
HETATM   22  C   UNL     1      23.784  44.919  48.759  1.00  0.00     0.075 A 
HETATM   23  N   UNL     1      24.429  45.937  49.241  1.00  0.00    -0.172 NA
HETATM   24  N   UNL     1      25.696  45.758  49.757  1.00  0.00    -0.230 N 
HETATM   25  C   UNL     1      26.318  44.513  49.876  1.00  0.00     0.275 A 
HETATM   26  C   UNL     1      25.612  43.364  49.290  1.00  0.00     0.046 A 
HETATM   27  O   UNL     1      27.401  44.327  50.426  1.00  0.00    -0.266 OA
HETATM   28  C   UNL     1      24.357  43.548  48.727  1.00  0.00     0.006 A 
HETATM   29  C   UNL     1      26.203  42.092  49.302  1.00  0.00     0.018 A 
HETATM   30  C   UNL     1      23.686  42.449  48.167  1.00  0.00     0.014 A 
HETATM   31  C   UNL     1      24.278  41.182  48.175  1.00  0.00     0.001 A 
HETATM   32  C   UNL     1      25.536  41.003  48.743  1.00  0.00     0.001 A 
BRANCH  24  33
HETATM   33  C   UNL     1      26.333  46.925  50.391  1.00  0.00     0.105 C 
HETATM   34  C   UNL     1      25.831  47.093  51.825  1.00  0.00     0.034 C 
HETATM   35  C   UNL     1      26.140  48.209  49.586  1.00  0.00     0.034 C 
ENDBRANCH  24  33
ENDBRANCH  21  22
ENDBRANCH   1  21
TORSDOF 5
ENDMDL
MODEL 9
REMARK VINA RESULT:      -9.2      2.533      9.219
REMARK  5 active torsions:
REMARK  status: ('A' for Active; 'I' for Inactive)
REMARK    1  A    between atoms: C_2  and  N_3 
REMARK    2  A    between atoms: C_5  and  C_6 
REMARK    3  A    between atoms: C_6  and  C_7 
REMARK       I    between atoms: C_7  and  N_8 
REMARK    4  A    between atoms: N_8  and  C_9 
REMARK    5  A    between atoms: C_16  and  O_17 
ROOT
HETATM    1  C   UNL     1      23.534  47.668  49.448  1.00  0.00     0.224 C 
HETATM    2  N   UNL     1      23.902  46.394  49.780  1.00  0.00    -0.351 N 
HETATM    3  O   UNL     1      24.352  48.591  49.409  1.00  0.00    -0.273 OA
HETATM    4  H   UNL     1      23.202  45.657  49.732  1.00  0.00     0.163 HD
ENDROOT
BRANCH   2   5
HETATM    5  C   UNL     1      25.302  46.044  49.868  1.00  0.00     0.135 C 
HETATM    6  C   UNL     1      25.749  46.150  51.284  1.00  0.00     0.040 A 
HETATM    7  C   UNL     1      26.107  45.106  52.114  1.00  0.00    -0.021 A 
HETATM    8  N   UNL     1      25.961  47.323  51.956  1.00  0.00    -0.357 N 
HETATM    9  C   UNL     1      26.654  45.673  53.298  1.00  0.00     0.002 A 
HETATM   10  C   UNL     1      26.021  43.678  51.694  1.00  0.00     0.042 C 
HETATM   11  C   UNL     1      26.555  47.061  53.172  1.00  0.00     0.043 A 
HETATM   12  C   UNL     1      27.267  45.141  54.450  1.00  0.00     0.051 A 
HETATM   13  C   UNL     1      27.028  47.937  54.155  1.00  0.00     0.033 A 
HETATM   14  C   UNL     1      27.655  47.382  55.280  1.00  0.00     0.039 A 
HETATM   15  C   UNL     1      27.792  46.002  55.422  1.00  0.00     0.069 A 
HETATM   16  C   UNL     1      25.192  43.530  50.404  1.00  0.00     0.007 C 
HETATM   17  C   UNL     1      25.557  44.603  49.357  1.00  0.00     0.032 C 
HETATM   18  H   UNL     1      25.780  48.247  51.587  1.00  0.00     0.166 HD
BRANCH  15  19
HETATM   19  O   UNL     1      28.409  45.369  56.470  1.00  0.00    -0.356 OA
HETATM   20  C   UNL     1      29.715  45.827  56.798  1.00  0.00     0.210 C 
ENDBRANCH  15  19
ENDBRANCH   2   5
BRANCH   1  21
HETATM   21  C   UNL     1      22.108  47.945  49.051  1.00  0.00     0.164 C 
BRANCH  21  22
HETATM   22  C   UNL     1      21.191  46.890  48.474  1.00  0.00     0.075 A 
HETATM   23  N   UNL     1      21.684  45.857  47.862  1.00  0.00    -0.172 NA
HETATM   24  N   UNL     1      20.835  44.896  47.353  1.00  0.00    -0.230 N 
HETATM   25  C   UNL     1      19.449  44.915  47.526  1.00  0.00     0.275 A 
HETATM   26  C   UNL     1      18.880  46.104  48.177  1.00  0.00     0.046 A 
HETATM   27  O   UNL     1      18.692  44.015  47.167  1.00  0.00    -0.266 OA
HETATM   28  C   UNL     1      19.730  47.096  48.649  1.00  0.00     0.006 A 
HETATM   29  C   UNL     1      17.491  46.233  48.321  1.00  0.00     0.018 A 
HETATM   30  C   UNL     1      19.183  48.231  49.270  1.00  0.00     0.014 A 
HETATM   31  C   UNL     1      17.799  48.361  49.409  1.00  0.00     0.001 A 
HETATM   32  C   UNL     1      16.952  47.363  48.936  1.00  0.00     0.001 A 
BRANCH  24  33
HETATM   33  C   UNL     1      21.454  43.694  46.770  1.00  0.00     0.105 C 
HETATM   34  C   UNL     1      22.806  43.419  47.426  1.00  0.00     0.034 C 
HETATM   35  C   UNL     1      21.587  43.781  45.250  1.00  0.00     0.034 C 
ENDBRANCH  24  33
ENDBRANCH  21  22
ENDBRANCH   1  21
TORSDOF 5
ENDMDL
MODEL 10
REMARK VINA RESULT:      -9.0      2.533     10.068
REMARK  5 active torsions:
REMARK  status: ('A' for Active; 'I' for Inactive)
REMARK    1  A    between atoms: C_2  and  N_3 
REMARK    2  A    between atoms: C_5  and  C_6 
REMARK    3  A    between atoms: C_6  and  C_7 
REMARK       I    between atoms: C_7  and  N_8 
REMARK    4  A    between atoms: N_8  and  C_9 
REMARK    5  A    between atoms: C_16  and  O_17 
ROOT
HETATM    1  C   UNL     1      21.655  47.071  48.359  1.00  0.00     0.224 C 
HETATM    2  N   UNL     1      22.121  46.064  49.158  1.00  0.00    -0.351 N 
HETATM    3  O   UNL     1      22.408  47.724  47.632  1.00  0.00    -0.273 OA
HETATM    4  H   UNL     1      21.449  45.512  49.687  1.00  0.00     0.163 HD
ENDROOT
BRANCH   2   5
HETATM    5  C   UNL     1      23.475  45.582  49.002  1.00  0.00     0.135 C 
HETATM    6  C   UNL     1      24.166  45.618  50.320  1.00  0.00     0.040 A 
HETATM    7  C   UNL     1      24.559  44.528  51.072  1.00  0.00    -0.021 A 
HETATM    8  N   UNL     1      24.602  46.752  50.949  1.00  0.00    -0.357 N 
HETATM    9  C   UNL     1      25.353  45.018  52.146  1.00  0.00     0.002 A 
HETATM   10  C   UNL     1      24.265  43.124  50.669  1.00  0.00     0.042 C 
HETATM   11  C   UNL     1      25.368  46.411  52.044  1.00  0.00     0.043 A 
HETATM   12  C   UNL     1      26.101  44.408  53.173  1.00  0.00     0.051 A 
HETATM   13  C   UNL     1      26.085  47.219  52.933  1.00  0.00     0.033 A 
HETATM   14  C   UNL     1      26.839  46.585  53.931  1.00  0.00     0.039 A 
HETATM   15  C   UNL     1      26.865  45.196  54.043  1.00  0.00     0.069 A 
HETATM   16  C   UNL     1      23.217  43.079  49.541  1.00  0.00     0.007 C 
HETATM   17  C   UNL     1      23.498  44.133  48.451  1.00  0.00     0.032 C 
HETATM   18  H   UNL     1      24.450  47.696  50.620  1.00  0.00     0.166 HD
BRANCH  15  19
HETATM   19  O   UNL     1      27.589  44.488  54.966  1.00  0.00    -0.356 OA
HETATM   20  C   UNL     1      28.926  44.922  55.183  1.00  0.00     0.210 C 
ENDBRANCH  15  19
ENDBRANCH   2   5
BRANCH   1  21
HETATM   21  C   UNL     1      20.176  47.347  48.306  1.00  0.00     0.164 C 
BRANCH  21  22
HETATM   22  C   UNL     1      19.551  48.325  47.336  1.00  0.00     0.075 A 
HETATM   23  N   UNL     1      19.149  47.924  46.169  1.00  0.00    -0.172 NA
HETATM   24  N   UNL     1      18.569  48.825  45.301  1.00  0.00    -0.230 N 
HETATM   25  C   UNL     1      18.301  50.157  45.629  1.00  0.00     0.275 A 
HETATM   26  C   UNL     1      18.796  50.629  46.930  1.00  0.00     0.046 A 
HETATM   27  O   UNL     1      17.694  50.941  44.904  1.00  0.00    -0.266 OA
HETATM   28  C   UNL     1      19.422  49.735  47.788  1.00  0.00     0.006 A 
HETATM   29  C   UNL     1      18.633  51.971  47.302  1.00  0.00     0.018 A 
HETATM   30  C   UNL     1      19.894  50.190  49.030  1.00  0.00     0.014 A 
HETATM   31  C   UNL     1      19.736  51.529  49.398  1.00  0.00     0.001 A 
HETATM   32  C   UNL     1      19.105  52.420  48.534  1.00  0.00     0.001 A 
BRANCH  24  33
HETATM   33  C   UNL     1      18.031  48.290  44.039  1.00  0.00     0.105 C 
HETATM   34  C   UNL     1      16.707  47.569  44.286  1.00  0.00     0.034 C 
HETATM   35  C   UNL     1      19.025  47.384  43.315  1.00  0.00     0.034 C 
ENDBRANCH  24  33
ENDBRANCH  21  22
ENDBRANCH   1  21
TORSDOF 5
ENDMDL
