MODEL 1
REMARK VINA RESULT:      -9.4      0.000      0.000
REMARK  6 active torsions:
REMARK  status: ('A' for Active; 'I' for Inactive)
REMARK    1  A    between atoms: C_2  and  O_3 
REMARK    2  A    between atoms: C_2  and  C_4 
REMARK    3  A    between atoms: C_7  and  N_8 
REMARK       I    between atoms: N_8  and  C_9 
REMARK    4  A    between atoms: C_9  and  C_10 
REMARK    5  A    between atoms: C_13  and  C_14 
REMARK    6  A    between atoms: C_19  and  C_20 
ROOT
HETATM    1  C   UNL     1      26.665  42.624  50.727  1.00  0.00     0.096 A 
HETATM    2  C   UNL     1      25.518  43.371  50.531  1.00  0.00     0.138 A 
HETATM    3  N   UNL     1      25.141  43.145  49.226  1.00  0.00    -0.240 N 
HETATM    4  C   UNL     1      24.003  43.773  48.579  1.00  0.00     0.221 C 
HETATM    5  C   UNL     1      23.101  44.462  49.624  1.00  0.00     0.066 C 
HETATM    6  C   UNL     1      23.930  45.216  50.677  1.00  0.00     0.118 C 
HETATM    7  N   UNL     1      24.821  44.235  51.321  1.00  0.00    -0.365 N 
HETATM    8  N   UNL     1      26.039  42.435  48.528  1.00  0.00    -0.181 NA
HETATM    9  C   UNL     1      26.954  42.102  49.444  1.00  0.00     0.160 A 
HETATM   10  H   UNL     1      25.276  44.614  52.154  1.00  0.00     0.161 HD
ENDROOT
BRANCH   1  11
HETATM   11  C   UNL     1      27.452  42.452  51.934  1.00  0.00     0.261 C 
HETATM   12  N   UNL     1      28.002  43.634  52.394  1.00  0.00    -0.323 N 
HETATM   13  H   UNL     1      27.682  44.473  51.923  1.00  0.00     0.169 HD
HETATM   14  O   UNL     1      27.543  41.355  52.471  1.00  0.00    -0.267 OA
BRANCH  12  15
HETATM   15  C   UNL     1      28.833  43.814  53.516  1.00  0.00     0.035 A 
HETATM   16  C   UNL     1      29.929  43.003  53.807  1.00  0.00     0.030 A 
HETATM   17  C   UNL     1      30.713  43.245  54.942  1.00  0.00     0.012 A 
HETATM   18  C   UNL     1      30.411  44.303  55.809  1.00  0.00    -0.030 A 
HETATM   19  C   UNL     1      29.307  45.113  55.515  1.00  0.00     0.012 A 
HETATM   20  C   UNL     1      28.534  44.879  54.373  1.00  0.00     0.030 A 
BRANCH  18  21
HETATM   21  C   UNL     1      31.247  44.526  57.051  1.00  0.00     0.147 C 
HETATM   22  C   UNL     1      32.041  43.286  57.432  1.00  0.00     0.044 C 
BRANCH  21  23
HETATM   23  O   UNL     1      30.418  44.900  58.150  1.00  0.00    -0.391 OA
HETATM   24  H   UNL     1      29.505  44.669  57.904  1.00  0.00     0.210 HD
ENDBRANCH  21  23
ENDBRANCH  18  21
ENDBRANCH  12  15
ENDBRANCH   1  11
BRANCH   4  25
HETATM   25  C   UNL     1      23.186  42.767  47.797  1.00  0.00     0.409 C 
HETATM   26  F   UNL     1      23.026  41.604  48.468  1.00  0.00    -0.169 F 
HETATM   27  F   UNL     1      21.936  43.264  47.589  1.00  0.00    -0.169 F 
HETATM   28  F   UNL     1      23.687  42.488  46.578  1.00  0.00    -0.169 F 
ENDBRANCH   4  25
BRANCH   6  29
HETATM   29  C   UNL     1      24.665  46.443  50.134  1.00  0.00    -0.035 A 
HETATM   30  C   UNL     1      23.924  47.506  49.576  1.00  0.00     0.012 A 
HETATM   31  C   UNL     1      24.560  48.644  49.069  1.00  0.00     0.043 A 
HETATM   32  C   UNL     1      25.942  48.742  49.133  1.00  0.00     0.116 A 
HETATM   33  F   UNL     1      26.550  49.834  48.650  1.00  0.00    -0.206 F 
HETATM   34  C   UNL     1      26.699  47.728  49.697  1.00  0.00     0.043 A 
HETATM   35  C   UNL     1      26.065  46.588  50.199  1.00  0.00     0.012 A 
ENDBRANCH   6  29
TORSDOF 6
ENDMDL
MODEL 2
REMARK VINA RESULT:      -9.2      3.981      7.790
REMARK  6 active torsions:
REMARK  status: ('A' for Active; 'I' for Inactive)
REMARK    1  A    between atoms: C_2  and  O_3 
REMARK    2  A    between atoms: C_2  and  C_4 
REMARK    3  A    between atoms: C_7  and  N_8 
REMARK       I    between atoms: N_8  and  C_9 
REMARK    4  A    between atoms: C_9  and  C_10 
REMARK    5  A    between atoms: C_13  and  C_14 
REMARK    6  A    between atoms: C_19  and  C_20 
ROOT
HETATM    1  C   UNL     1      26.844  42.914  50.451  1.00  0.00     0.096 A 
HETATM    2  C   UNL     1      26.531  43.476  51.675  1.00  0.00     0.138 A 
HETATM    3  N   UNL     1      26.605  44.839  51.493  1.00  0.00    -0.240 N 
HETATM    4  C   UNL     1      26.393  45.821  52.542  1.00  0.00     0.221 C 
HETATM    5  C   UNL     1      25.767  45.156  53.784  1.00  0.00     0.066 C 
HETATM    6  C   UNL     1      26.422  43.798  54.090  1.00  0.00     0.118 C 
HETATM    7  N   UNL     1      26.248  42.948  52.900  1.00  0.00    -0.365 N 
HETATM    8  N   UNL     1      27.089  45.190  50.293  1.00  0.00    -0.181 NA
HETATM    9  C   UNL     1      27.215  44.023  49.654  1.00  0.00     0.160 A 
HETATM   10  H   UNL     1      26.493  41.973  53.082  1.00  0.00     0.161 HD
ENDROOT
BRANCH   1  11
HETATM   11  C   UNL     1      26.866  41.516  50.063  1.00  0.00     0.261 C 
HETATM   12  N   UNL     1      27.673  41.271  48.968  1.00  0.00    -0.323 N 
HETATM   13  H   UNL     1      28.242  42.055  48.665  1.00  0.00     0.169 HD
HETATM   14  O   UNL     1      26.251  40.678  50.709  1.00  0.00    -0.267 OA
BRANCH  12  15
HETATM   15  C   UNL     1      27.896  40.040  48.324  1.00  0.00     0.035 A 
HETATM   16  C   UNL     1      28.801  39.081  48.777  1.00  0.00     0.030 A 
HETATM   17  C   UNL     1      28.968  37.876  48.084  1.00  0.00     0.012 A 
HETATM   18  C   UNL     1      28.233  37.609  46.921  1.00  0.00    -0.030 A 
HETATM   19  C   UNL     1      27.329  38.578  46.467  1.00  0.00     0.012 A 
HETATM   20  C   UNL     1      27.153  39.775  47.169  1.00  0.00     0.030 A 
BRANCH  18  21
HETATM   21  C   UNL     1      28.454  36.318  46.164  1.00  0.00     0.147 C 
HETATM   22  C   UNL     1      28.044  36.437  44.704  1.00  0.00     0.044 C 
BRANCH  21  23
HETATM   23  O   UNL     1      27.718  35.254  46.765  1.00  0.00    -0.391 OA
HETATM   24  H   UNL     1      27.783  35.376  47.728  1.00  0.00     0.210 HD
ENDBRANCH  21  23
ENDBRANCH  18  21
ENDBRANCH  12  15
ENDBRANCH   1  11
BRANCH   4  25
HETATM   25  C   UNL     1      25.500  46.948  52.072  1.00  0.00     0.409 C 
HETATM   26  F   UNL     1      24.425  46.499  51.385  1.00  0.00    -0.169 F 
HETATM   27  F   UNL     1      25.012  47.618  53.153  1.00  0.00    -0.169 F 
HETATM   28  F   UNL     1      26.133  47.867  51.317  1.00  0.00    -0.169 F 
ENDBRANCH   4  25
BRANCH   6  29
HETATM   29  C   UNL     1      27.873  43.895  54.564  1.00  0.00    -0.035 A 
HETATM   30  C   UNL     1      28.288  45.022  55.305  1.00  0.00     0.012 A 
HETATM   31  C   UNL     1      29.606  45.146  55.756  1.00  0.00     0.043 A 
HETATM   32  C   UNL     1      30.519  44.137  55.489  1.00  0.00     0.116 A 
HETATM   33  F   UNL     1      31.781  44.256  55.923  1.00  0.00    -0.206 F 
HETATM   34  C   UNL     1      30.139  43.005  54.786  1.00  0.00     0.043 A 
HETATM   35  C   UNL     1      28.823  42.882  54.331  1.00  0.00     0.012 A 
ENDBRANCH   6  29
TORSDOF 6
ENDMDL
MODEL 3
REMARK VINA RESULT:      -9.0      1.265      1.900
REMARK  6 active torsions:
REMARK  status: ('A' for Active; 'I' for Inactive)
REMARK    1  A    between atoms: C_2  and  O_3 
REMARK    2  A    between atoms: C_2  and  C_4 
REMARK    3  A    between atoms: C_7  and  N_8 
REMARK       I    between atoms: N_8  and  C_9 
REMARK    4  A    between atoms: C_9  and  C_10 
REMARK    5  A    between atoms: C_13  and  C_14 
REMARK    6  A    between atoms: C_19  and  C_20 
ROOT
HETATM    1  C   UNL     1      26.846  41.926  50.529  1.00  0.00     0.096 A 
HETATM    2  C   UNL     1      25.513  42.169  50.257  1.00  0.00     0.138 A 
HETATM    3  N   UNL     1      25.361  41.962  48.904  1.00  0.00    -0.240 N 
HETATM    4  C   UNL     1      24.118  42.152  48.178  1.00  0.00     0.221 C 
HETATM    5  C   UNL     1      22.937  42.297  49.160  1.00  0.00     0.066 C 
HETATM    6  C   UNL     1      23.302  43.194  50.355  1.00  0.00     0.118 C 
HETATM    7  N   UNL     1      24.465  42.584  51.023  1.00  0.00    -0.365 N 
HETATM    8  N   UNL     1      26.521  41.757  48.264  1.00  0.00    -0.181 NA
HETATM    9  C   UNL     1      27.420  41.715  49.252  1.00  0.00     0.160 A 
HETATM   10  H   UNL     1      24.660  43.015  51.929  1.00  0.00     0.161 HD
ENDROOT
BRANCH   1  11
HETATM   11  C   UNL     1      27.541  41.946  51.802  1.00  0.00     0.261 C 
HETATM   12  N   UNL     1      28.005  43.202  52.146  1.00  0.00    -0.323 N 
HETATM   13  H   UNL     1      27.690  43.959  51.549  1.00  0.00     0.169 HD
HETATM   14  O   UNL     1      27.633  40.931  52.481  1.00  0.00    -0.267 OA
BRANCH  12  15
HETATM   15  C   UNL     1      28.736  43.563  53.294  1.00  0.00     0.035 A 
HETATM   16  C   UNL     1      28.340  44.561  54.183  1.00  0.00     0.030 A 
HETATM   17  C   UNL     1      29.120  44.864  55.306  1.00  0.00     0.012 A 
HETATM   18  C   UNL     1      30.313  44.174  55.558  1.00  0.00    -0.030 A 
HETATM   19  C   UNL     1      30.709  43.175  54.659  1.00  0.00     0.012 A 
HETATM   20  C   UNL     1      29.922  42.864  53.546  1.00  0.00     0.030 A 
BRANCH  18  21
HETATM   21  C   UNL     1      31.162  44.540  56.756  1.00  0.00     0.147 C 
HETATM   22  C   UNL     1      31.847  43.324  57.361  1.00  0.00     0.044 C 
BRANCH  21  23
HETATM   23  O   UNL     1      30.365  45.168  57.760  1.00  0.00    -0.391 OA
HETATM   24  H   UNL     1      30.268  46.100  57.498  1.00  0.00     0.210 HD
ENDBRANCH  21  23
ENDBRANCH  18  21
ENDBRANCH  12  15
ENDBRANCH   1  11
BRANCH   4  25
HETATM   25  C   UNL     1      23.847  41.001  47.234  1.00  0.00     0.409 C 
HETATM   26  F   UNL     1      22.524  40.801  47.035  1.00  0.00    -0.169 F 
HETATM   27  F   UNL     1      24.380  41.282  46.013  1.00  0.00    -0.169 F 
HETATM   28  F   UNL     1      24.398  39.835  47.624  1.00  0.00    -0.169 F 
ENDBRANCH   4  25
BRANCH   6  29
HETATM   29  C   UNL     1      23.508  44.666  49.993  1.00  0.00    -0.035 A 
HETATM   30  C   UNL     1      22.707  45.255  48.992  1.00  0.00     0.012 A 
HETATM   31  C   UNL     1      22.866  46.596  48.635  1.00  0.00     0.043 A 
HETATM   32  C   UNL     1      23.813  47.372  49.287  1.00  0.00     0.116 A 
HETATM   33  F   UNL     1      23.962  48.659  48.946  1.00  0.00    -0.206 F 
HETATM   34  C   UNL     1      24.599  46.833  50.293  1.00  0.00     0.043 A 
HETATM   35  C   UNL     1      24.445  45.490  50.647  1.00  0.00     0.012 A 
ENDBRANCH   6  29
TORSDOF 6
ENDMDL
MODEL 4
REMARK VINA RESULT:      -8.5      5.057      9.465
REMARK  6 active torsions:
REMARK  status: ('A' for Active; 'I' for Inactive)
REMARK    1  A    between atoms: C_2  and  O_3 
REMARK    2  A    between atoms: C_2  and  C_4 
REMARK    3  A    between atoms: C_7  and  N_8 
REMARK       I    between atoms: N_8  and  C_9 
REMARK    4  A    between atoms: C_9  and  C_10 
REMARK    5  A    between atoms: C_13  and  C_14 
REMARK    6  A    between atoms: C_19  and  C_20 
ROOT
HETATM    1  C   UNL     1      23.772  47.080  49.289  1.00  0.00     0.096 A 
HETATM    2  C   UNL     1      23.729  45.789  49.784  1.00  0.00     0.138 A 
HETATM    3  N   UNL     1      25.008  45.508  50.209  1.00  0.00    -0.240 N 
HETATM    4  C   UNL     1      25.427  44.233  50.762  1.00  0.00     0.221 C 
HETATM    5  C   UNL     1      24.200  43.363  51.105  1.00  0.00     0.066 C 
HETATM    6  C   UNL     1      23.131  43.436  50.003  1.00  0.00     0.118 C 
HETATM    7  N   UNL     1      22.744  44.850  49.856  1.00  0.00    -0.365 N 
HETATM    8  N   UNL     1      25.898  46.457  49.885  1.00  0.00    -0.181 NA
HETATM    9  C   UNL     1      25.144  47.419  49.344  1.00  0.00     0.160 A 
HETATM   10  H   UNL     1      21.913  44.965  49.274  1.00  0.00     0.161 HD
ENDROOT
BRANCH   1  11
HETATM   11  C   UNL     1      22.694  47.895  48.760  1.00  0.00     0.261 C 
HETATM   12  N   UNL     1      22.261  48.861  49.649  1.00  0.00    -0.323 N 
HETATM   13  H   UNL     1      22.827  48.967  50.484  1.00  0.00     0.169 HD
HETATM   14  O   UNL     1      22.287  47.729  47.617  1.00  0.00    -0.267 OA
BRANCH  12  15
HETATM   15  C   UNL     1      21.223  49.794  49.464  1.00  0.00     0.035 A 
HETATM   16  C   UNL     1      21.348  50.951  48.695  1.00  0.00     0.030 A 
HETATM   17  C   UNL     1      20.270  51.832  48.555  1.00  0.00     0.012 A 
HETATM   18  C   UNL     1      19.045  51.573  49.184  1.00  0.00    -0.030 A 
HETATM   19  C   UNL     1      18.925  50.413  49.959  1.00  0.00     0.012 A 
HETATM   20  C   UNL     1      19.999  49.526  50.087  1.00  0.00     0.030 A 
BRANCH  18  21
HETATM   21  C   UNL     1      17.902  52.557  49.052  1.00  0.00     0.147 C 
HETATM   22  C   UNL     1      16.705  52.154  49.900  1.00  0.00     0.044 C 
BRANCH  21  23
HETATM   23  O   UNL     1      17.490  52.664  47.691  1.00  0.00    -0.391 OA
HETATM   24  H   UNL     1      17.148  51.791  47.432  1.00  0.00     0.210 HD
ENDBRANCH  21  23
ENDBRANCH  18  21
ENDBRANCH  12  15
ENDBRANCH   1  11
BRANCH   4  25
HETATM   25  C   UNL     1      26.272  44.419  52.004  1.00  0.00     0.409 C 
HETATM   26  F   UNL     1      25.876  45.482  52.740  1.00  0.00    -0.169 F 
HETATM   27  F   UNL     1      26.143  43.327  52.807  1.00  0.00    -0.169 F 
HETATM   28  F   UNL     1      27.590  44.545  51.753  1.00  0.00    -0.169 F 
ENDBRANCH   4  25
BRANCH   6  29
HETATM   29  C   UNL     1      23.543  42.776  48.686  1.00  0.00    -0.035 A 
HETATM   30  C   UNL     1      24.280  41.573  48.711  1.00  0.00     0.012 A 
HETATM   31  C   UNL     1      24.675  40.941  47.529  1.00  0.00     0.043 A 
HETATM   32  C   UNL     1      24.321  41.491  46.306  1.00  0.00     0.116 A 
HETATM   33  F   UNL     1      24.697  40.883  45.174  1.00  0.00    -0.206 F 
HETATM   34  C   UNL     1      23.575  42.658  46.244  1.00  0.00     0.043 A 
HETATM   35  C   UNL     1      23.184  43.293  47.426  1.00  0.00     0.012 A 
ENDBRANCH   6  29
TORSDOF 6
ENDMDL
MODEL 5
REMARK VINA RESULT:      -8.5      4.716      8.877
REMARK  6 active torsions:
REMARK  status: ('A' for Active; 'I' for Inactive)
REMARK    1  A    between atoms: C_2  and  O_3 
REMARK    2  A    between atoms: C_2  and  C_4 
REMARK    3  A    between atoms: C_7  and  N_8 
REMARK       I    between atoms: N_8  and  C_9 
REMARK    4  A    between atoms: C_9  and  C_10 
REMARK    5  A    between atoms: C_13  and  C_14 
REMARK    6  A    between atoms: C_19  and  C_20 
ROOT
HETATM    1  C   UNL     1      23.150  45.686  49.026  1.00  0.00     0.096 A 
HETATM    2  C   UNL     1      24.372  45.062  49.193  1.00  0.00     0.138 A 
HETATM    3  N   UNL     1      24.129  43.715  49.047  1.00  0.00    -0.240 N 
HETATM    4  C   UNL     1      25.136  42.679  49.191  1.00  0.00     0.221 C 
HETATM    5  C   UNL     1      26.549  43.297  49.204  1.00  0.00     0.066 C 
HETATM    6  C   UNL     1      26.599  44.574  50.059  1.00  0.00     0.118 C 
HETATM    7  N   UNL     1      25.620  45.520  49.495  1.00  0.00    -0.365 N 
HETATM    8  N   UNL     1      22.825  43.416  48.955  1.00  0.00    -0.181 NA
HETATM    9  C   UNL     1      22.233  44.614  48.922  1.00  0.00     0.160 A 
HETATM   10  H   UNL     1      25.716  46.457  49.890  1.00  0.00     0.161 HD
ENDROOT
BRANCH   1  11
HETATM   11  C   UNL     1      22.836  47.103  49.027  1.00  0.00     0.261 C 
HETATM   12  N   UNL     1      21.491  47.360  48.832  1.00  0.00    -0.323 N 
HETATM   13  H   UNL     1      20.888  46.545  48.851  1.00  0.00     0.169 HD
HETATM   14  O   UNL     1      23.709  47.937  49.233  1.00  0.00    -0.267 OA
BRANCH  12  15
HETATM   15  C   UNL     1      20.860  48.615  48.753  1.00  0.00     0.035 A 
HETATM   16  C   UNL     1      21.048  49.512  47.702  1.00  0.00     0.030 A 
HETATM   17  C   UNL     1      20.383  50.745  47.691  1.00  0.00     0.012 A 
HETATM   18  C   UNL     1      19.519  51.103  48.734  1.00  0.00    -0.030 A 
HETATM   19  C   UNL     1      19.337  50.201  49.790  1.00  0.00     0.012 A 
HETATM   20  C   UNL     1      19.991  48.964  49.792  1.00  0.00     0.030 A 
BRANCH  18  21
HETATM   21  C   UNL     1      18.839  52.455  48.723  1.00  0.00     0.147 C 
HETATM   22  C   UNL     1      17.696  52.524  49.725  1.00  0.00     0.044 C 
BRANCH  21  23
HETATM   23  O   UNL     1      18.332  52.749  47.423  1.00  0.00    -0.391 OA
HETATM   24  H   UNL     1      17.795  51.984  47.152  1.00  0.00     0.210 HD
ENDBRANCH  21  23
ENDBRANCH  18  21
ENDBRANCH  12  15
ENDBRANCH   1  11
BRANCH   4  25
HETATM   25  C   UNL     1      25.045  41.660  48.075  1.00  0.00     0.409 C 
HETATM   26  F   UNL     1      26.247  41.115  47.779  1.00  0.00    -0.169 F 
HETATM   27  F   UNL     1      24.243  40.632  48.466  1.00  0.00    -0.169 F 
HETATM   28  F   UNL     1      24.507  42.144  46.938  1.00  0.00    -0.169 F 
ENDBRANCH   4  25
BRANCH   6  29
HETATM   29  C   UNL     1      26.420  44.331  51.559  1.00  0.00    -0.035 A 
HETATM   30  C   UNL     1      27.309  43.470  52.235  1.00  0.00     0.012 A 
HETATM   31  C   UNL     1      27.177  43.223  53.604  1.00  0.00     0.043 A 
HETATM   32  C   UNL     1      26.167  43.850  54.319  1.00  0.00     0.116 A 
HETATM   33  F   UNL     1      26.043  43.615  55.632  1.00  0.00    -0.206 F 
HETATM   34  C   UNL     1      25.291  44.722  53.692  1.00  0.00     0.043 A 
HETATM   35  C   UNL     1      25.419  44.965  52.322  1.00  0.00     0.012 A 
ENDBRANCH   6  29
TORSDOF 6
ENDMDL
MODEL 6
REMARK VINA RESULT:      -8.5      2.826      5.556
REMARK  6 active torsions:
REMARK  status: ('A' for Active; 'I' for Inactive)
REMARK    1  A    between atoms: C_2  and  O_3 
REMARK    2  A    between atoms: C_2  and  C_4 
REMARK    3  A    between atoms: C_7  and  N_8 
REMARK       I    between atoms: N_8  and  C_9 
REMARK    4  A    between atoms: C_9  and  C_10 
REMARK    5  A    between atoms: C_13  and  C_14 
REMARK    6  A    between atoms: C_19  and  C_20 
ROOT
HETATM    1  C   UNL     1      25.853  42.983  50.398  1.00  0.00     0.096 A 
HETATM    2  C   UNL     1      26.117  42.255  49.253  1.00  0.00     0.138 A 
HETATM    3  N   UNL     1      24.896  41.798  48.808  1.00  0.00    -0.240 N 
HETATM    4  C   UNL     1      24.712  40.946  47.647  1.00  0.00     0.221 C 
HETATM    5  C   UNL     1      26.004  40.890  46.808  1.00  0.00     0.066 C 
HETATM    6  C   UNL     1      27.251  40.757  47.698  1.00  0.00     0.118 C 
HETATM    7  N   UNL     1      27.269  41.916  48.607  1.00  0.00    -0.365 N 
HETATM    8  N   UNL     1      23.892  42.047  49.661  1.00  0.00    -0.181 NA
HETATM    9  C   UNL     1      24.469  42.783  50.616  1.00  0.00     0.160 A 
HETATM   10  H   UNL     1      28.155  42.002  49.108  1.00  0.00     0.161 HD
ENDROOT
BRANCH   1  11
HETATM   11  C   UNL     1      26.768  43.728  51.243  1.00  0.00     0.261 C 
HETATM   12  N   UNL     1      27.259  42.984  52.298  1.00  0.00    -0.323 N 
HETATM   13  H   UNL     1      27.033  41.995  52.273  1.00  0.00     0.169 HD
HETATM   14  O   UNL     1      27.073  44.882  50.968  1.00  0.00    -0.267 OA
BRANCH  12  15
HETATM   15  C   UNL     1      28.140  43.407  53.311  1.00  0.00     0.035 A 
HETATM   16  C   UNL     1      27.879  44.475  54.168  1.00  0.00     0.030 A 
HETATM   17  C   UNL     1      28.803  44.839  55.155  1.00  0.00     0.012 A 
HETATM   18  C   UNL     1      30.009  44.140  55.300  1.00  0.00    -0.030 A 
HETATM   19  C   UNL     1      30.269  43.070  54.434  1.00  0.00     0.012 A 
HETATM   20  C   UNL     1      29.338  42.700  53.458  1.00  0.00     0.030 A 
BRANCH  18  21
HETATM   21  C   UNL     1      31.013  44.570  56.348  1.00  0.00     0.147 C 
HETATM   22  C   UNL     1      31.650  43.379  57.048  1.00  0.00     0.044 C 
BRANCH  21  23
HETATM   23  O   UNL     1      30.390  45.402  57.325  1.00  0.00    -0.391 OA
HETATM   24  H   UNL     1      31.087  45.972  57.694  1.00  0.00     0.210 HD
ENDBRANCH  21  23
ENDBRANCH  18  21
ENDBRANCH  12  15
ENDBRANCH   1  11
BRANCH   4  25
HETATM   25  C   UNL     1      23.571  41.431  46.780  1.00  0.00     0.409 C 
HETATM   26  F   UNL     1      23.672  40.990  45.505  1.00  0.00    -0.169 F 
HETATM   27  F   UNL     1      22.396  40.942  47.263  1.00  0.00    -0.169 F 
HETATM   28  F   UNL     1      23.438  42.772  46.755  1.00  0.00    -0.169 F 
ENDBRANCH   4  25
BRANCH   6  29
HETATM   29  C   UNL     1      27.365  39.414  48.421  1.00  0.00    -0.035 A 
HETATM   30  C   UNL     1      28.380  39.225  49.383  1.00  0.00     0.012 A 
HETATM   31  C   UNL     1      28.516  38.012  50.063  1.00  0.00     0.043 A 
HETATM   32  C   UNL     1      27.627  36.978  49.805  1.00  0.00     0.116 A 
HETATM   33  F   UNL     1      27.757  35.816  50.460  1.00  0.00    -0.206 F 
HETATM   34  C   UNL     1      26.603  37.137  48.885  1.00  0.00     0.043 A 
HETATM   35  C   UNL     1      26.470  38.348  48.201  1.00  0.00     0.012 A 
ENDBRANCH   6  29
TORSDOF 6
ENDMDL
MODEL 7
REMARK VINA RESULT:      -8.4     12.730     14.306
REMARK  6 active torsions:
REMARK  status: ('A' for Active; 'I' for Inactive)
REMARK    1  A    between atoms: C_2  and  O_3 
REMARK    2  A    between atoms: C_2  and  C_4 
REMARK    3  A    between atoms: C_7  and  N_8 
REMARK       I    between atoms: N_8  and  C_9 
REMARK    4  A    between atoms: C_9  and  C_10 
REMARK    5  A    between atoms: C_13  and  C_14 
REMARK    6  A    between atoms: C_19  and  C_20 
ROOT
HETATM    1  C   UNL     1      32.872  51.418  41.871  1.00  0.00     0.096 A 
HETATM    2  C   UNL     1      32.175  51.317  40.681  1.00  0.00     0.138 A 
HETATM    3  N   UNL     1      30.961  51.928  40.904  1.00  0.00    -0.240 N 
HETATM    4  C   UNL     1      29.892  52.012  39.925  1.00  0.00     0.221 C 
HETATM    5  C   UNL     1      30.410  51.621  38.525  1.00  0.00     0.066 C 
HETATM    6  C   UNL     1      31.333  50.393  38.587  1.00  0.00     0.118 C 
HETATM    7  N   UNL     1      32.453  50.729  39.483  1.00  0.00    -0.365 N 
HETATM    8  N   UNL     1      30.766  52.275  42.184  1.00  0.00    -0.181 NA
HETATM    9  C   UNL     1      31.933  51.983  42.767  1.00  0.00     0.160 A 
HETATM   10  H   UNL     1      33.204  50.038  39.439  1.00  0.00     0.161 HD
ENDROOT
BRANCH   1  11
HETATM   11  C   UNL     1      34.222  50.989  42.182  1.00  0.00     0.261 C 
HETATM   12  N   UNL     1      34.929  51.917  42.922  1.00  0.00    -0.323 N 
HETATM   13  H   UNL     1      34.386  52.702  43.265  1.00  0.00     0.169 HD
HETATM   14  O   UNL     1      34.622  49.883  41.838  1.00  0.00    -0.267 OA
BRANCH  12  15
HETATM   15  C   UNL     1      36.262  51.827  43.366  1.00  0.00     0.035 A 
HETATM   16  C   UNL     1      37.222  51.008  42.773  1.00  0.00     0.030 A 
HETATM   17  C   UNL     1      38.531  50.972  43.269  1.00  0.00     0.012 A 
HETATM   18  C   UNL     1      38.903  51.754  44.370  1.00  0.00    -0.030 A 
HETATM   19  C   UNL     1      37.934  52.572  44.965  1.00  0.00     0.012 A 
HETATM   20  C   UNL     1      36.630  52.618  44.460  1.00  0.00     0.030 A 
BRANCH  18  21
HETATM   21  C   UNL     1      40.312  51.674  44.916  1.00  0.00     0.147 C 
HETATM   22  C   UNL     1      40.699  50.248  45.281  1.00  0.00     0.044 C 
BRANCH  21  23
HETATM   23  O   UNL     1      40.449  52.500  46.070  1.00  0.00    -0.391 OA
HETATM   24  H   UNL     1      39.872  52.121  46.756  1.00  0.00     0.210 HD
ENDBRANCH  21  23
ENDBRANCH  18  21
ENDBRANCH  12  15
ENDBRANCH   1  11
BRANCH   4  25
HETATM   25  C   UNL     1      29.300  53.404  39.869  1.00  0.00     0.409 C 
HETATM   26  F   UNL     1      28.806  53.703  38.646  1.00  0.00    -0.169 F 
HETATM   27  F   UNL     1      28.253  53.484  40.736  1.00  0.00    -0.169 F 
HETATM   28  F   UNL     1      30.160  54.377  40.229  1.00  0.00    -0.169 F 
ENDBRANCH   4  25
BRANCH   6  29
HETATM   29  C   UNL     1      30.621  49.092  38.961  1.00  0.00    -0.035 A 
HETATM   30  C   UNL     1      31.312  48.109  39.700  1.00  0.00     0.012 A 
HETATM   31  C   UNL     1      30.695  46.907  40.060  1.00  0.00     0.043 A 
HETATM   32  C   UNL     1      29.373  46.682  39.704  1.00  0.00     0.116 A 
HETATM   33  F   UNL     1      28.782  45.531  40.052  1.00  0.00    -0.206 F 
HETATM   34  C   UNL     1      28.657  47.637  39.000  1.00  0.00     0.043 A 
HETATM   35  C   UNL     1      29.275  48.836  38.635  1.00  0.00     0.012 A 
ENDBRANCH   6  29
TORSDOF 6
ENDMDL
MODEL 8
REMARK VINA RESULT:      -8.1      4.112      8.555
REMARK  6 active torsions:
REMARK  status: ('A' for Active; 'I' for Inactive)
REMARK    1  A    between atoms: C_2  and  O_3 
REMARK    2  A    between atoms: C_2  and  C_4 
REMARK    3  A    between atoms: C_7  and  N_8 
REMARK       I    between atoms: N_8  and  C_9 
REMARK    4  A    between atoms: C_9  and  C_10 
REMARK    5  A    between atoms: C_13  and  C_14 
REMARK    6  A    between atoms: C_19  and  C_20 
ROOT
HETATM    1  C   UNL     1      25.760  44.223  50.974  1.00  0.00     0.096 A 
HETATM    2  C   UNL     1      26.052  42.876  51.093  1.00  0.00     0.138 A 
HETATM    3  N   UNL     1      27.348  42.812  51.553  1.00  0.00    -0.240 N 
HETATM    4  C   UNL     1      28.079  41.578  51.778  1.00  0.00     0.221 C 
HETATM    5  C   UNL     1      27.121  40.370  51.746  1.00  0.00     0.066 C 
HETATM    6  C   UNL     1      26.100  40.488  50.602  1.00  0.00     0.118 C 
HETATM    7  N   UNL     1      25.353  41.741  50.807  1.00  0.00    -0.365 N 
HETATM    8  N   UNL     1      27.959  44.005  51.590  1.00  0.00    -0.181 NA
HETATM    9  C   UNL     1      26.989  44.862  51.258  1.00  0.00     0.160 A 
HETATM   10  H   UNL     1      24.536  41.809  50.197  1.00  0.00     0.161 HD
ENDROOT
BRANCH   1  11
HETATM   11  C   UNL     1      24.517  44.861  50.581  1.00  0.00     0.261 C 
HETATM   12  N   UNL     1      24.709  45.998  49.819  1.00  0.00    -0.323 N 
HETATM   13  H   UNL     1      25.665  46.164  49.521  1.00  0.00     0.169 HD
HETATM   14  O   UNL     1      23.438  44.366  50.882  1.00  0.00    -0.267 OA
BRANCH  12  15
HETATM   15  C   UNL     1      23.725  46.861  49.301  1.00  0.00     0.035 A 
HETATM   16  C   UNL     1      22.690  46.443  48.466  1.00  0.00     0.030 A 
HETATM   17  C   UNL     1      21.745  47.360  47.990  1.00  0.00     0.012 A 
HETATM   18  C   UNL     1      21.820  48.714  48.340  1.00  0.00    -0.030 A 
HETATM   19  C   UNL     1      22.865  49.131  49.175  1.00  0.00     0.012 A 
HETATM   20  C   UNL     1      23.800  48.211  49.661  1.00  0.00     0.030 A 
BRANCH  18  21
HETATM   21  C   UNL     1      20.812  49.697  47.786  1.00  0.00     0.147 C 
HETATM   22  C   UNL     1      20.797  51.000  48.571  1.00  0.00     0.044 C 
BRANCH  21  23
HETATM   23  O   UNL     1      19.502  49.133  47.803  1.00  0.00    -0.391 OA
HETATM   24  H   UNL     1      19.412  48.608  46.989  1.00  0.00     0.210 HD
ENDBRANCH  21  23
ENDBRANCH  18  21
ENDBRANCH  12  15
ENDBRANCH   1  11
BRANCH   4  25
HETATM   25  C   UNL     1      28.811  41.603  53.102  1.00  0.00     0.409 C 
HETATM   26  F   UNL     1      28.178  42.363  54.024  1.00  0.00    -0.169 F 
HETATM   27  F   UNL     1      28.861  40.342  53.615  1.00  0.00    -0.169 F 
HETATM   28  F   UNL     1      30.088  42.021  53.011  1.00  0.00    -0.169 F 
ENDBRANCH   4  25
BRANCH   6  29
HETATM   29  C   UNL     1      26.707  40.361  49.204  1.00  0.00    -0.035 A 
HETATM   30  C   UNL     1      27.707  39.395  48.966  1.00  0.00     0.012 A 
HETATM   31  C   UNL     1      28.286  39.249  47.702  1.00  0.00     0.043 A 
HETATM   32  C   UNL     1      27.859  40.053  46.656  1.00  0.00     0.116 A 
HETATM   33  F   UNL     1      28.413  39.911  45.444  1.00  0.00    -0.206 F 
HETATM   34  C   UNL     1      26.862  40.995  46.848  1.00  0.00     0.043 A 
HETATM   35  C   UNL     1      26.286  41.145  48.113  1.00  0.00     0.012 A 
ENDBRANCH   6  29
TORSDOF 6
ENDMDL
MODEL 9
REMARK VINA RESULT:      -8.0      4.000      5.313
REMARK  6 active torsions:
REMARK  status: ('A' for Active; 'I' for Inactive)
REMARK    1  A    between atoms: C_2  and  O_3 
REMARK    2  A    between atoms: C_2  and  C_4 
REMARK    3  A    between atoms: C_7  and  N_8 
REMARK       I    between atoms: N_8  and  C_9 
REMARK    4  A    between atoms: C_9  and  C_10 
REMARK    5  A    between atoms: C_13  and  C_14 
REMARK    6  A    between atoms: C_19  and  C_20 
ROOT
HETATM    1  C   UNL     1      22.332  44.856  48.698  1.00  0.00     0.096 A 
HETATM    2  C   UNL     1      21.051  45.347  48.520  1.00  0.00     0.138 A 
HETATM    3  N   UNL     1      20.843  45.371  47.160  1.00  0.00    -0.240 N 
HETATM    4  C   UNL     1      19.635  45.863  46.522  1.00  0.00     0.221 C 
HETATM    5  C   UNL     1      18.512  46.047  47.563  1.00  0.00     0.066 C 
HETATM    6  C   UNL     1      19.042  46.686  48.858  1.00  0.00     0.118 C 
HETATM    7  N   UNL     1      20.100  45.806  49.382  1.00  0.00    -0.365 N 
HETATM    8  N   UNL     1      21.942  45.080  46.448  1.00  0.00    -0.181 NA
HETATM    9  C   UNL     1      22.839  44.748  47.381  1.00  0.00     0.160 A 
HETATM   10  H   UNL     1      20.380  46.060  50.331  1.00  0.00     0.161 HD
ENDROOT
BRANCH   1  11
HETATM   11  C   UNL     1      23.044  44.575  49.931  1.00  0.00     0.261 C 
HETATM   12  N   UNL     1      24.004  45.523  50.230  1.00  0.00    -0.323 N 
HETATM   13  H   UNL     1      23.997  46.348  49.639  1.00  0.00     0.169 HD
HETATM   14  O   UNL     1      22.745  43.607  50.619  1.00  0.00    -0.267 OA
BRANCH  12  15
HETATM   15  C   UNL     1      24.882  45.538  51.329  1.00  0.00     0.035 A 
HETATM   16  C   UNL     1      25.474  44.395  51.864  1.00  0.00     0.030 A 
HETATM   17  C   UNL     1      26.341  44.488  52.960  1.00  0.00     0.012 A 
HETATM   18  C   UNL     1      26.629  45.729  53.542  1.00  0.00    -0.030 A 
HETATM   19  C   UNL     1      26.029  46.875  53.005  1.00  0.00     0.012 A 
HETATM   20  C   UNL     1      25.175  46.781  51.901  1.00  0.00     0.030 A 
BRANCH  18  21
HETATM   21  C   UNL     1      27.539  45.806  54.750  1.00  0.00     0.147 C 
HETATM   22  C   UNL     1      27.977  47.233  55.041  1.00  0.00     0.044 C 
BRANCH  21  23
HETATM   23  O   UNL     1      28.698  44.997  54.555  1.00  0.00    -0.391 OA
HETATM   24  H   UNL     1      29.469  45.568  54.719  1.00  0.00     0.210 HD
ENDBRANCH  21  23
ENDBRANCH  18  21
ENDBRANCH  12  15
ENDBRANCH   1  11
BRANCH   4  25
HETATM   25  C   UNL     1      19.161  44.923  45.435  1.00  0.00     0.409 C 
HETATM   26  F   UNL     1      19.302  43.624  45.782  1.00  0.00    -0.169 F 
HETATM   27  F   UNL     1      17.831  45.119  45.216  1.00  0.00    -0.169 F 
HETATM   28  F   UNL     1      19.768  45.113  44.247  1.00  0.00    -0.169 F 
ENDBRANCH   4  25
BRANCH   6  29
HETATM   29  C   UNL     1      19.480  48.143  48.704  1.00  0.00    -0.035 A 
HETATM   30  C   UNL     1      18.649  49.050  48.013  1.00  0.00     0.012 A 
HETATM   31  C   UNL     1      19.015  50.389  47.852  1.00  0.00     0.043 A 
HETATM   32  C   UNL     1      20.207  50.844  48.397  1.00  0.00     0.116 A 
HETATM   33  F   UNL     1      20.556  52.128  48.244  1.00  0.00    -0.206 F 
HETATM   34  C   UNL     1      21.036  49.987  49.103  1.00  0.00     0.043 A 
HETATM   35  C   UNL     1      20.672  48.646  49.261  1.00  0.00     0.012 A 
ENDBRANCH   6  29
TORSDOF 6
ENDMDL
MODEL 10
REMARK VINA RESULT:      -8.0      3.314      5.097
REMARK  6 active torsions:
REMARK  status: ('A' for Active; 'I' for Inactive)
REMARK    1  A    between atoms: C_2  and  O_3 
REMARK    2  A    between atoms: C_2  and  C_4 
REMARK    3  A    between atoms: C_7  and  N_8 
REMARK       I    between atoms: N_8  and  C_9 
REMARK    4  A    between atoms: C_9  and  C_10 
REMARK    5  A    between atoms: C_13  and  C_14 
REMARK    6  A    between atoms: C_19  and  C_20 
ROOT
HETATM    1  C   UNL     1      22.713  44.306  48.225  1.00  0.00     0.096 A 
HETATM    2  C   UNL     1      21.629  45.164  48.195  1.00  0.00     0.138 A 
HETATM    3  N   UNL     1      21.328  45.342  46.863  1.00  0.00    -0.240 N 
HETATM    4  C   UNL     1      20.275  46.211  46.368  1.00  0.00     0.221 C 
HETATM    5  C   UNL     1      19.348  46.646  47.522  1.00  0.00     0.066 C 
HETATM    6  C   UNL     1      20.148  47.009  48.784  1.00  0.00     0.118 C 
HETATM    7  N   UNL     1      20.933  45.822  49.164  1.00  0.00    -0.365 N 
HETATM    8  N   UNL     1      22.227  44.790  46.036  1.00  0.00    -0.181 NA
HETATM    9  C   UNL     1      23.056  44.145  46.862  1.00  0.00     0.160 A 
HETATM   10  H   UNL     1      21.352  45.917  50.091  1.00  0.00     0.161 HD
ENDROOT
BRANCH   1  11
HETATM   11  C   UNL     1      23.405  43.743  49.369  1.00  0.00     0.261 C 
HETATM   12  N   UNL     1      24.773  43.659  49.187  1.00  0.00    -0.323 N 
HETATM   13  H   UNL     1      25.128  44.116  48.354  1.00  0.00     0.169 HD
HETATM   14  O   UNL     1      22.791  43.439  50.384  1.00  0.00    -0.267 OA
BRANCH  12  15
HETATM   15  C   UNL     1      25.728  43.142  50.082  1.00  0.00     0.035 A 
HETATM   16  C   UNL     1      26.592  43.934  50.837  1.00  0.00     0.030 A 
HETATM   17  C   UNL     1      27.516  43.347  51.710  1.00  0.00     0.012 A 
HETATM   18  C   UNL     1      27.595  41.954  51.841  1.00  0.00    -0.030 A 
HETATM   19  C   UNL     1      26.729  41.162  51.076  1.00  0.00     0.012 A 
HETATM   20  C   UNL     1      25.796  41.750  50.216  1.00  0.00     0.030 A 
BRANCH  18  21
HETATM   21  C   UNL     1      28.626  41.337  52.760  1.00  0.00     0.147 C 
HETATM   22  C   UNL     1      29.783  42.286  53.036  1.00  0.00     0.044 C 
BRANCH  21  23
HETATM   23  O   UNL     1      29.142  40.133  52.196  1.00  0.00    -0.391 OA
HETATM   24  H   UNL     1      28.634  39.400  52.587  1.00  0.00     0.210 HD
ENDBRANCH  21  23
ENDBRANCH  18  21
ENDBRANCH  12  15
ENDBRANCH   1  11
BRANCH   4  25
HETATM   25  C   UNL     1      19.455  45.531  45.295  1.00  0.00     0.409 C 
HETATM   26  F   UNL     1      18.210  46.051  45.193  1.00  0.00    -0.169 F 
HETATM   27  F   UNL     1      20.048  45.720  44.084  1.00  0.00    -0.169 F 
HETATM   28  F   UNL     1      19.345  44.198  45.454  1.00  0.00    -0.169 F 
ENDBRANCH   4  25
BRANCH   6  29
HETATM   29  C   UNL     1      20.989  48.280  48.649  1.00  0.00    -0.035 A 
HETATM   30  C   UNL     1      20.395  49.457  48.147  1.00  0.00     0.012 A 
HETATM   31  C   UNL     1      21.132  50.636  48.008  1.00  0.00     0.043 A 
HETATM   32  C   UNL     1      22.466  50.661  48.389  1.00  0.00     0.116 A 
HETATM   33  F   UNL     1      23.170  51.793  48.259  1.00  0.00    -0.206 F 
HETATM   34  C   UNL     1      23.074  49.530  48.910  1.00  0.00     0.043 A 
HETATM   35  C   UNL     1      22.340  48.348  49.043  1.00  0.00     0.012 A 
ENDBRANCH   6  29
TORSDOF 6
ENDMDL
