MODEL 1
REMARK VINA RESULT:      -9.5      0.000      0.000
REMARK  4 active torsions:
REMARK  status: ('A' for Active; 'I' for Inactive)
REMARK    1  A    between atoms: O_2  and  C_3 
REMARK    2  A    between atoms: C_8  and  C_9 
REMARK    3  A    between atoms: N_11  and  C_12 
REMARK    4  A    between atoms: C_12  and  C_13 
ROOT
HETATM    1  C   UNL     1      28.303  38.414  47.118  1.00  0.00     0.069 A 
HETATM    2  C   UNL     1      28.922  37.966  48.286  1.00  0.00     0.056 A 
HETATM    3  C   UNL     1      28.927  38.775  49.424  1.00  0.00     0.063 A 
HETATM    4  C   UNL     1      28.328  40.037  49.425  1.00  0.00     0.074 A 
HETATM    5  N   UNL     1      28.306  40.866  50.559  1.00  0.00    -0.234 NA
HETATM    6  C   UNL     1      28.859  40.430  51.644  1.00  0.00     0.113 A 
HETATM    7  N   UNL     1      29.464  39.200  51.729  1.00  0.00    -0.310 N 
HETATM    8  C   UNL     1      29.554  38.326  50.675  1.00  0.00     0.259 A 
HETATM    9  O   UNL     1      30.120  37.245  50.778  1.00  0.00    -0.267 OA
HETATM   10  C   UNL     1      27.722  40.481  48.249  1.00  0.00     0.035 A 
HETATM   11  C   UNL     1      27.706  39.677  47.102  1.00  0.00     0.039 A 
HETATM   12  H   UNL     1      29.899  38.885  52.585  1.00  0.00     0.170 HD
ENDROOT
BRANCH   6  13
HETATM   13  C   UNL     1      28.854  41.225  52.927  1.00  0.00     0.082 C 
HETATM   14  C   UNL     1      29.423  42.632  52.804  1.00  0.00     0.139 C 
HETATM   15  N   UNL     1      28.687  43.380  53.791  1.00  0.00    -0.347 N 
HETATM   16  C   UNL     1      27.510  42.762  54.162  1.00  0.00     0.220 C 
HETATM   17  O   UNL     1      26.666  43.189  54.932  1.00  0.00    -0.273 OA
HETATM   18  C   UNL     1      27.425  41.450  53.428  1.00  0.00     0.117 C 
BRANCH  15  19
HETATM   19  C   UNL     1      29.116  44.677  54.277  1.00  0.00     0.164 C 
BRANCH  19  20
HETATM   20  C   UNL     1      29.904  44.556  55.559  1.00  0.00    -0.040 A 
HETATM   21  C   UNL     1      29.739  45.485  56.595  1.00  0.00     0.009 A 
HETATM   22  C   UNL     1      30.478  45.366  57.774  1.00  0.00     0.001 A 
HETATM   23  C   UNL     1      31.388  44.321  57.928  1.00  0.00     0.000 A 
HETATM   24  C   UNL     1      31.560  43.392  56.903  1.00  0.00     0.001 A 
HETATM   25  C   UNL     1      30.821  43.507  55.726  1.00  0.00     0.009 A 
ENDBRANCH  19  20
ENDBRANCH  15  19
ENDBRANCH   6  13
BRANCH   1  26
HETATM   26  O   UNL     1      28.351  37.534  46.073  1.00  0.00    -0.356 OA
HETATM   27  C   UNL     1      28.407  38.090  44.765  1.00  0.00     0.210 C 
ENDBRANCH   1  26
TORSDOF 4
ENDMDL
MODEL 2
REMARK VINA RESULT:      -9.3      4.995      8.515
REMARK  4 active torsions:
REMARK  status: ('A' for Active; 'I' for Inactive)
REMARK    1  A    between atoms: O_2  and  C_3 
REMARK    2  A    between atoms: C_8  and  C_9 
REMARK    3  A    between atoms: N_11  and  C_12 
REMARK    4  A    between atoms: C_12  and  C_13 
ROOT
HETATM    1  C   UNL     1      30.505  43.970  55.875  1.00  0.00     0.069 A 
HETATM    2  C   UNL     1      29.852  43.032  55.075  1.00  0.00     0.056 A 
HETATM    3  C   UNL     1      28.720  43.408  54.348  1.00  0.00     0.063 A 
HETATM    4  C   UNL     1      28.214  44.709  54.405  1.00  0.00     0.074 A 
HETATM    5  N   UNL     1      27.087  45.118  53.674  1.00  0.00    -0.234 NA
HETATM    6  C   UNL     1      26.505  44.248  52.914  1.00  0.00     0.113 A 
HETATM    7  N   UNL     1      26.941  42.951  52.797  1.00  0.00    -0.310 N 
HETATM    8  C   UNL     1      28.020  42.450  53.481  1.00  0.00     0.259 A 
HETATM    9  O   UNL     1      28.370  41.281  53.371  1.00  0.00    -0.267 OA
HETATM   10  C   UNL     1      28.868  45.636  55.217  1.00  0.00     0.035 A 
HETATM   11  C   UNL     1      30.007  45.273  55.949  1.00  0.00     0.039 A 
HETATM   12  H   UNL     1      26.463  42.286  52.205  1.00  0.00     0.170 HD
ENDROOT
BRANCH   6  13
HETATM   13  C   UNL     1      25.311  44.596  52.057  1.00  0.00     0.082 C 
HETATM   14  C   UNL     1      25.185  46.074  51.715  1.00  0.00     0.139 C 
HETATM   15  N   UNL     1      24.548  46.066  50.422  1.00  0.00    -0.347 N 
HETATM   16  C   UNL     1      24.668  44.854  49.774  1.00  0.00     0.220 C 
HETATM   17  O   UNL     1      24.277  44.578  48.652  1.00  0.00    -0.273 OA
HETATM   18  C   UNL     1      25.397  43.908  50.691  1.00  0.00     0.117 C 
BRANCH  15  19
HETATM   19  C   UNL     1      23.916  47.239  49.850  1.00  0.00     0.164 C 
BRANCH  19  20
HETATM   20  C   UNL     1      24.937  48.214  49.316  1.00  0.00    -0.040 A 
HETATM   21  C   UNL     1      26.302  48.048  49.588  1.00  0.00     0.009 A 
HETATM   22  C   UNL     1      27.236  48.960  49.093  1.00  0.00     0.001 A 
HETATM   23  C   UNL     1      26.817  50.046  48.325  1.00  0.00     0.000 A 
HETATM   24  C   UNL     1      25.463  50.221  48.049  1.00  0.00     0.001 A 
HETATM   25  C   UNL     1      24.527  49.309  48.540  1.00  0.00     0.009 A 
ENDBRANCH  19  20
ENDBRANCH  15  19
ENDBRANCH   6  13
BRANCH   1  26
HETATM   26  O   UNL     1      31.605  43.493  56.532  1.00  0.00    -0.356 OA
HETATM   27  C   UNL     1      31.869  44.028  57.823  1.00  0.00     0.210 C 
ENDBRANCH   1  26
TORSDOF 4
ENDMDL
MODEL 3
REMARK VINA RESULT:      -9.3      5.158      9.142
REMARK  4 active torsions:
REMARK  status: ('A' for Active; 'I' for Inactive)
REMARK    1  A    between atoms: O_2  and  C_3 
REMARK    2  A    between atoms: C_8  and  C_9 
REMARK    3  A    between atoms: N_11  and  C_12 
REMARK    4  A    between atoms: C_12  and  C_13 
ROOT
HETATM    1  C   UNL     1      30.721  44.118  56.240  1.00  0.00     0.069 A 
HETATM    2  C   UNL     1      29.794  45.160  56.209  1.00  0.00     0.056 A 
HETATM    3  C   UNL     1      28.780  45.159  55.248  1.00  0.00     0.063 A 
HETATM    4  C   UNL     1      28.672  44.138  54.302  1.00  0.00     0.074 A 
HETATM    5  N   UNL     1      27.655  44.105  53.333  1.00  0.00    -0.234 NA
HETATM    6  C   UNL     1      26.784  45.061  53.331  1.00  0.00     0.113 A 
HETATM    7  N   UNL     1      26.816  46.099  54.229  1.00  0.00    -0.310 N 
HETATM    8  C   UNL     1      27.776  46.232  55.200  1.00  0.00     0.259 A 
HETATM    9  O   UNL     1      27.789  47.182  55.972  1.00  0.00    -0.267 OA
HETATM   10  C   UNL     1      29.611  43.106  54.333  1.00  0.00     0.035 A 
HETATM   11  C   UNL     1      30.631  43.093  55.296  1.00  0.00     0.039 A 
HETATM   12  H   UNL     1      26.130  46.842  54.200  1.00  0.00     0.170 HD
ENDROOT
BRANCH   6  13
HETATM   13  C   UNL     1      25.630  45.098  52.358  1.00  0.00     0.082 C 
HETATM   14  C   UNL     1      25.240  46.493  51.889  1.00  0.00     0.139 C 
HETATM   15  N   UNL     1      24.741  46.271  50.556  1.00  0.00    -0.347 N 
HETATM   16  C   UNL     1      25.164  45.074  50.018  1.00  0.00     0.220 C 
HETATM   17  O   UNL     1      24.944  44.652  48.895  1.00  0.00    -0.273 OA
HETATM   18  C   UNL     1      25.981  44.360  51.063  1.00  0.00     0.117 C 
BRANCH  15  19
HETATM   19  C   UNL     1      23.940  47.249  49.844  1.00  0.00     0.164 C 
BRANCH  19  20
HETATM   20  C   UNL     1      24.800  48.321  49.220  1.00  0.00    -0.040 A 
HETATM   21  C   UNL     1      24.228  49.351  48.459  1.00  0.00     0.009 A 
HETATM   22  C   UNL     1      25.036  50.333  47.882  1.00  0.00     0.001 A 
HETATM   23  C   UNL     1      26.418  50.296  48.057  1.00  0.00     0.000 A 
HETATM   24  C   UNL     1      26.997  49.277  48.811  1.00  0.00     0.001 A 
HETATM   25  C   UNL     1      26.193  48.295  49.391  1.00  0.00     0.009 A 
ENDBRANCH  19  20
ENDBRANCH  15  19
ENDBRANCH   6  13
BRANCH   1  26
HETATM   26  O   UNL     1      31.660  44.219  57.228  1.00  0.00    -0.356 OA
HETATM   27  C   UNL     1      31.275  44.897  58.418  1.00  0.00     0.210 C 
ENDBRANCH   1  26
TORSDOF 4
ENDMDL
MODEL 4
REMARK VINA RESULT:      -9.0      7.293      8.983
REMARK  4 active torsions:
REMARK  status: ('A' for Active; 'I' for Inactive)
REMARK    1  A    between atoms: O_2  and  C_3 
REMARK    2  A    between atoms: C_8  and  C_9 
REMARK    3  A    between atoms: N_11  and  C_12 
REMARK    4  A    between atoms: C_12  and  C_13 
ROOT
HETATM    1  C   UNL     1      21.216  50.116  47.783  1.00  0.00     0.069 A 
HETATM    2  C   UNL     1      21.354  48.735  47.926  1.00  0.00     0.056 A 
HETATM    3  C   UNL     1      22.437  48.215  48.639  1.00  0.00     0.063 A 
HETATM    4  C   UNL     1      23.400  49.048  49.214  1.00  0.00     0.074 A 
HETATM    5  N   UNL     1      24.491  48.553  49.948  1.00  0.00    -0.234 NA
HETATM    6  C   UNL     1      24.594  47.273  50.098  1.00  0.00     0.113 A 
HETATM    7  N   UNL     1      23.688  46.385  49.570  1.00  0.00    -0.310 N 
HETATM    8  C   UNL     1      22.601  46.767  48.824  1.00  0.00     0.259 A 
HETATM    9  O   UNL     1      21.824  45.949  48.349  1.00  0.00    -0.267 OA
HETATM   10  C   UNL     1      23.260  50.427  49.055  1.00  0.00     0.035 A 
HETATM   11  C   UNL     1      22.175  50.962  48.345  1.00  0.00     0.039 A 
HETATM   12  H   UNL     1      23.796  45.388  49.691  1.00  0.00     0.170 HD
ENDROOT
BRANCH   6  13
HETATM   13  C   UNL     1      25.706  46.642  50.902  1.00  0.00     0.082 C 
HETATM   14  C   UNL     1      25.244  45.891  52.143  1.00  0.00     0.139 C 
HETATM   15  N   UNL     1      26.224  44.845  52.287  1.00  0.00    -0.347 N 
HETATM   16  C   UNL     1      26.919  44.599  51.121  1.00  0.00     0.220 C 
HETATM   17  O   UNL     1      27.763  43.738  50.934  1.00  0.00    -0.273 OA
HETATM   18  C   UNL     1      26.440  45.578  50.081  1.00  0.00     0.117 C 
BRANCH  15  19
HETATM   19  C   UNL     1      26.396  44.092  53.514  1.00  0.00     0.164 C 
BRANCH  19  20
HETATM   20  C   UNL     1      27.615  44.549  54.279  1.00  0.00    -0.040 A 
HETATM   21  C   UNL     1      28.715  43.700  54.455  1.00  0.00     0.009 A 
HETATM   22  C   UNL     1      29.834  44.133  55.170  1.00  0.00     0.001 A 
HETATM   23  C   UNL     1      29.863  45.415  55.716  1.00  0.00     0.000 A 
HETATM   24  C   UNL     1      28.774  46.268  55.548  1.00  0.00     0.001 A 
HETATM   25  C   UNL     1      27.656  45.839  54.832  1.00  0.00     0.009 A 
ENDBRANCH  19  20
ENDBRANCH  15  19
ENDBRANCH   6  13
BRANCH   1  26
HETATM   26  O   UNL     1      20.115  50.510  47.075  1.00  0.00    -0.356 OA
HETATM   27  C   UNL     1      18.954  50.849  47.824  1.00  0.00     0.210 C 
ENDBRANCH   1  26
TORSDOF 4
ENDMDL
MODEL 5
REMARK VINA RESULT:      -8.7      8.097     11.000
REMARK  4 active torsions:
REMARK  status: ('A' for Active; 'I' for Inactive)
REMARK    1  A    between atoms: O_2  and  C_3 
REMARK    2  A    between atoms: C_8  and  C_9 
REMARK    3  A    between atoms: N_11  and  C_12 
REMARK    4  A    between atoms: C_12  and  C_13 
ROOT
HETATM    1  C   UNL     1      27.206  45.911  54.771  1.00  0.00     0.069 A 
HETATM    2  C   UNL     1      27.166  45.209  53.565  1.00  0.00     0.056 A 
HETATM    3  C   UNL     1      26.510  45.761  52.462  1.00  0.00     0.063 A 
HETATM    4  C   UNL     1      25.881  47.005  52.535  1.00  0.00     0.074 A 
HETATM    5  N   UNL     1      25.227  47.590  51.437  1.00  0.00    -0.234 NA
HETATM    6  C   UNL     1      25.219  46.943  50.317  1.00  0.00     0.113 A 
HETATM    7  N   UNL     1      25.818  45.718  50.160  1.00  0.00    -0.310 N 
HETATM    8  C   UNL     1      26.466  45.056  51.173  1.00  0.00     0.259 A 
HETATM    9  O   UNL     1      26.971  43.953  51.006  1.00  0.00    -0.267 OA
HETATM   10  C   UNL     1      25.916  47.694  53.748  1.00  0.00     0.035 A 
HETATM   11  C   UNL     1      26.575  47.153  54.861  1.00  0.00     0.039 A 
HETATM   12  H   UNL     1      25.789  45.227  49.277  1.00  0.00     0.170 HD
ENDROOT
BRANCH   6  13
HETATM   13  C   UNL     1      24.578  47.502  49.069  1.00  0.00     0.082 C 
HETATM   14  C   UNL     1      23.056  47.458  49.063  1.00  0.00     0.139 C 
HETATM   15  N   UNL     1      22.691  48.603  48.268  1.00  0.00    -0.347 N 
HETATM   16  C   UNL     1      23.705  49.533  48.171  1.00  0.00     0.220 C 
HETATM   17  O   UNL     1      23.660  50.616  47.612  1.00  0.00    -0.273 OA
HETATM   18  C   UNL     1      24.903  48.989  48.903  1.00  0.00     0.117 C 
BRANCH  15  19
HETATM   19  C   UNL     1      21.368  48.776  47.700  1.00  0.00     0.164 C 
BRANCH  19  20
HETATM   20  C   UNL     1      20.557  49.783  48.479  1.00  0.00    -0.040 A 
HETATM   21  C   UNL     1      20.011  49.457  49.728  1.00  0.00     0.009 A 
HETATM   22  C   UNL     1      19.258  50.396  50.436  1.00  0.00     0.001 A 
HETATM   23  C   UNL     1      19.041  51.666  49.904  1.00  0.00     0.000 A 
HETATM   24  C   UNL     1      19.579  52.001  48.663  1.00  0.00     0.001 A 
HETATM   25  C   UNL     1      20.334  51.066  47.954  1.00  0.00     0.009 A 
ENDBRANCH  19  20
ENDBRANCH  15  19
ENDBRANCH   6  13
BRANCH   1  26
HETATM   26  O   UNL     1      27.883  45.279  55.777  1.00  0.00    -0.356 OA
HETATM   27  C   UNL     1      28.565  46.104  56.713  1.00  0.00     0.210 C 
ENDBRANCH   1  26
TORSDOF 4
ENDMDL
MODEL 6
REMARK VINA RESULT:      -8.7      9.883     12.075
REMARK  4 active torsions:
REMARK  status: ('A' for Active; 'I' for Inactive)
REMARK    1  A    between atoms: O_2  and  C_3 
REMARK    2  A    between atoms: C_8  and  C_9 
REMARK    3  A    between atoms: N_11  and  C_12 
REMARK    4  A    between atoms: C_12  and  C_13 
ROOT
HETATM    1  C   UNL     1      17.864  52.124  49.526  1.00  0.00     0.069 A 
HETATM    2  C   UNL     1      17.990  50.817  50.000  1.00  0.00     0.056 A 
HETATM    3  C   UNL     1      19.086  50.041  49.616  1.00  0.00     0.063 A 
HETATM    4  C   UNL     1      20.067  50.539  48.756  1.00  0.00     0.074 A 
HETATM    5  N   UNL     1      21.187  49.786  48.364  1.00  0.00    -0.234 NA
HETATM    6  C   UNL     1      21.307  48.586  48.831  1.00  0.00     0.113 A 
HETATM    7  N   UNL     1      20.391  48.023  49.685  1.00  0.00    -0.310 N 
HETATM    8  C   UNL     1      19.258  48.669  50.113  1.00  0.00     0.259 A 
HETATM    9  O   UNL     1      18.449  48.130  50.858  1.00  0.00    -0.267 OA
HETATM   10  C   UNL     1      19.926  51.843  48.278  1.00  0.00     0.035 A 
HETATM   11  C   UNL     1      18.833  52.633  48.659  1.00  0.00     0.039 A 
HETATM   12  H   UNL     1      20.501  47.079  50.029  1.00  0.00     0.170 HD
ENDROOT
BRANCH   6  13
HETATM   13  C   UNL     1      22.492  47.709  48.504  1.00  0.00     0.082 C 
HETATM   14  C   UNL     1      23.669  47.850  49.460  1.00  0.00     0.139 C 
HETATM   15  N   UNL     1      24.271  46.541  49.447  1.00  0.00    -0.347 N 
HETATM   16  C   UNL     1      23.412  45.562  48.992  1.00  0.00     0.220 C 
HETATM   17  O   UNL     1      23.631  44.364  48.926  1.00  0.00    -0.273 OA
HETATM   18  C   UNL     1      22.120  46.226  48.597  1.00  0.00     0.117 C 
BRANCH  15  19
HETATM   19  C   UNL     1      25.613  46.288  49.934  1.00  0.00     0.164 C 
BRANCH  19  20
HETATM   20  C   UNL     1      25.627  46.059  51.426  1.00  0.00    -0.040 A 
HETATM   21  C   UNL     1      25.912  47.107  52.313  1.00  0.00     0.009 A 
HETATM   22  C   UNL     1      25.928  46.881  53.691  1.00  0.00     0.001 A 
HETATM   23  C   UNL     1      25.663  45.609  54.196  1.00  0.00     0.000 A 
HETATM   24  C   UNL     1      25.379  44.560  53.323  1.00  0.00     0.001 A 
HETATM   25  C   UNL     1      25.360  44.783  51.946  1.00  0.00     0.009 A 
ENDBRANCH  19  20
ENDBRANCH  15  19
ENDBRANCH   6  13
BRANCH   1  26
HETATM   26  O   UNL     1      16.759  52.790  49.976  1.00  0.00    -0.356 OA
HETATM   27  C   UNL     1      15.493  52.207  49.692  1.00  0.00     0.210 C 
ENDBRANCH   1  26
TORSDOF 4
ENDMDL
MODEL 7
REMARK VINA RESULT:      -8.5      6.188      9.897
REMARK  4 active torsions:
REMARK  status: ('A' for Active; 'I' for Inactive)
REMARK    1  A    between atoms: O_2  and  C_3 
REMARK    2  A    between atoms: C_8  and  C_9 
REMARK    3  A    between atoms: N_11  and  C_12 
REMARK    4  A    between atoms: C_12  and  C_13 
ROOT
HETATM    1  C   UNL     1      29.893  44.654  55.838  1.00  0.00     0.069 A 
HETATM    2  C   UNL     1      29.056  45.770  55.876  1.00  0.00     0.056 A 
HETATM    3  C   UNL     1      28.066  45.929  54.903  1.00  0.00     0.063 A 
HETATM    4  C   UNL     1      27.892  44.996  53.879  1.00  0.00     0.074 A 
HETATM    5  N   UNL     1      26.896  45.124  52.896  1.00  0.00    -0.234 NA
HETATM    6  C   UNL     1      26.109  46.148  52.957  1.00  0.00     0.113 A 
HETATM    7  N   UNL     1      26.208  47.108  53.934  1.00  0.00    -0.310 N 
HETATM    8  C   UNL     1      27.156  47.083  54.926  1.00  0.00     0.259 A 
HETATM    9  O   UNL     1      27.232  47.967  55.770  1.00  0.00    -0.267 OA
HETATM   10  C   UNL     1      28.741  43.890  53.842  1.00  0.00     0.035 A 
HETATM   11  C   UNL     1      29.736  43.716  54.815  1.00  0.00     0.039 A 
HETATM   12  H   UNL     1      25.588  47.906  53.954  1.00  0.00     0.170 HD
ENDROOT
BRANCH   6  13
HETATM   13  C   UNL     1      24.981  46.358  51.974  1.00  0.00     0.082 C 
HETATM   14  C   UNL     1      25.221  47.469  50.962  1.00  0.00     0.139 C 
HETATM   15  N   UNL     1      24.499  47.024  49.797  1.00  0.00    -0.347 N 
HETATM   16  C   UNL     1      24.243  45.668  49.812  1.00  0.00     0.220 C 
HETATM   17  O   UNL     1      23.701  45.012  48.939  1.00  0.00    -0.273 OA
HETATM   18  C   UNL     1      24.770  45.112  51.108  1.00  0.00     0.117 C 
BRANCH  15  19
HETATM   19  C   UNL     1      24.152  47.908  48.701  1.00  0.00     0.164 C 
BRANCH  19  20
HETATM   20  C   UNL     1      22.899  48.694  48.998  1.00  0.00    -0.040 A 
HETATM   21  C   UNL     1      21.642  48.074  48.993  1.00  0.00     0.009 A 
HETATM   22  C   UNL     1      20.488  48.814  49.263  1.00  0.00     0.001 A 
HETATM   23  C   UNL     1      20.579  50.177  49.539  1.00  0.00     0.000 A 
HETATM   24  C   UNL     1      21.824  50.804  49.547  1.00  0.00     0.001 A 
HETATM   25  C   UNL     1      22.978  50.067  49.279  1.00  0.00     0.009 A 
ENDBRANCH  19  20
ENDBRANCH  15  19
ENDBRANCH   6  13
BRANCH   1  26
HETATM   26  O   UNL     1      30.816  44.598  56.844  1.00  0.00    -0.356 OA
HETATM   27  C   UNL     1      31.514  43.370  57.013  1.00  0.00     0.210 C 
ENDBRANCH   1  26
TORSDOF 4
ENDMDL
MODEL 8
REMARK VINA RESULT:      -8.5      8.377     10.129
REMARK  4 active torsions:
REMARK  status: ('A' for Active; 'I' for Inactive)
REMARK    1  A    between atoms: O_2  and  C_3 
REMARK    2  A    between atoms: C_8  and  C_9 
REMARK    3  A    between atoms: N_11  and  C_12 
REMARK    4  A    between atoms: C_12  and  C_13 
ROOT
HETATM    1  C   UNL     1      19.620  50.719  48.041  1.00  0.00     0.069 A 
HETATM    2  C   UNL     1      19.883  49.349  48.038  1.00  0.00     0.056 A 
HETATM    3  C   UNL     1      21.090  48.873  48.556  1.00  0.00     0.063 A 
HETATM    4  C   UNL     1      22.054  49.739  49.076  1.00  0.00     0.074 A 
HETATM    5  N   UNL     1      23.269  49.286  49.616  1.00  0.00    -0.234 NA
HETATM    6  C   UNL     1      23.491  48.013  49.634  1.00  0.00     0.113 A 
HETATM    7  N   UNL     1      22.595  47.093  49.148  1.00  0.00    -0.310 N 
HETATM    8  C   UNL     1      21.390  47.434  48.586  1.00  0.00     0.259 A 
HETATM    9  O   UNL     1      20.621  46.591  48.141  1.00  0.00    -0.267 OA
HETATM   10  C   UNL     1      21.786  51.109  49.063  1.00  0.00     0.035 A 
HETATM   11  C   UNL     1      20.577  51.599  48.550  1.00  0.00     0.039 A 
HETATM   12  H   UNL     1      22.795  46.103  49.162  1.00  0.00     0.170 HD
ENDROOT
BRANCH   6  13
HETATM   13  C   UNL     1      24.748  47.421  50.227  1.00  0.00     0.082 C 
HETATM   14  C   UNL     1      24.716  45.909  50.402  1.00  0.00     0.139 C 
HETATM   15  N   UNL     1      26.096  45.524  50.242  1.00  0.00    -0.347 N 
HETATM   16  C   UNL     1      26.846  46.481  49.590  1.00  0.00     0.220 C 
HETATM   17  O   UNL     1      28.020  46.403  49.269  1.00  0.00    -0.273 OA
HETATM   18  C   UNL     1      25.952  47.660  49.312  1.00  0.00     0.117 C 
BRANCH  15  19
HETATM   19  C   UNL     1      26.605  44.233  50.662  1.00  0.00     0.164 C 
BRANCH  19  20
HETATM   20  C   UNL     1      27.310  44.323  51.994  1.00  0.00    -0.040 A 
HETATM   21  C   UNL     1      26.824  45.157  53.011  1.00  0.00     0.009 A 
HETATM   22  C   UNL     1      27.489  45.236  54.236  1.00  0.00     0.001 A 
HETATM   23  C   UNL     1      28.643  44.486  54.457  1.00  0.00     0.000 A 
HETATM   24  C   UNL     1      29.135  43.654  53.453  1.00  0.00     0.001 A 
HETATM   25  C   UNL     1      28.472  43.571  52.229  1.00  0.00     0.009 A 
ENDBRANCH  19  20
ENDBRANCH  15  19
ENDBRANCH   6  13
BRANCH   1  26
HETATM   26  O   UNL     1      18.405  51.068  47.519  1.00  0.00    -0.356 OA
HETATM   27  C   UNL     1      17.783  50.130  46.651  1.00  0.00     0.210 C 
ENDBRANCH   1  26
TORSDOF 4
ENDMDL
MODEL 9
REMARK VINA RESULT:      -8.5      5.788      7.646
REMARK  4 active torsions:
REMARK  status: ('A' for Active; 'I' for Inactive)
REMARK    1  A    between atoms: O_2  and  C_3 
REMARK    2  A    between atoms: C_8  and  C_9 
REMARK    3  A    between atoms: N_11  and  C_12 
REMARK    4  A    between atoms: C_12  and  C_13 
ROOT
HETATM    1  C   UNL     1      24.758  49.983  48.225  1.00  0.00     0.069 A 
HETATM    2  C   UNL     1      24.155  48.784  48.605  1.00  0.00     0.056 A 
HETATM    3  C   UNL     1      24.939  47.733  49.085  1.00  0.00     0.063 A 
HETATM    4  C   UNL     1      26.328  47.847  49.189  1.00  0.00     0.074 A 
HETATM    5  N   UNL     1      27.139  46.812  49.681  1.00  0.00    -0.234 NA
HETATM    6  C   UNL     1      26.567  45.715  50.057  1.00  0.00     0.113 A 
HETATM    7  N   UNL     1      25.209  45.522  49.992  1.00  0.00    -0.310 N 
HETATM    8  C   UNL     1      24.333  46.464  49.511  1.00  0.00     0.259 A 
HETATM    9  O   UNL     1      23.129  46.253  49.446  1.00  0.00    -0.267 OA
HETATM   10  C   UNL     1      26.923  49.046  48.796  1.00  0.00     0.035 A 
HETATM   11  C   UNL     1      26.146  50.110  48.317  1.00  0.00     0.039 A 
HETATM   12  H   UNL     1      24.785  44.652  50.281  1.00  0.00     0.170 HD
ENDROOT
BRANCH   6  13
HETATM   13  C   UNL     1      27.344  44.557  50.636  1.00  0.00     0.082 C 
HETATM   14  C   UNL     1      27.246  44.421  52.149  1.00  0.00     0.139 C 
HETATM   15  N   UNL     1      27.370  43.002  52.368  1.00  0.00    -0.347 N 
HETATM   16  C   UNL     1      27.096  42.261  51.238  1.00  0.00     0.220 C 
HETATM   17  O   UNL     1      27.069  41.045  51.143  1.00  0.00    -0.273 OA
HETATM   18  C   UNL     1      26.810  43.220  50.113  1.00  0.00     0.117 C 
BRANCH  15  19
HETATM   19  C   UNL     1      27.678  42.430  53.665  1.00  0.00     0.164 C 
BRANCH  19  20
HETATM   20  C   UNL     1      28.603  43.322  54.458  1.00  0.00    -0.040 A 
HETATM   21  C   UNL     1      28.163  44.557  54.954  1.00  0.00     0.009 A 
HETATM   22  C   UNL     1      29.031  45.375  55.680  1.00  0.00     0.001 A 
HETATM   23  C   UNL     1      30.344  44.971  55.916  1.00  0.00     0.000 A 
HETATM   24  C   UNL     1      30.792  43.745  55.427  1.00  0.00     0.001 A 
HETATM   25  C   UNL     1      29.927  42.924  54.703  1.00  0.00     0.009 A 
ENDBRANCH  19  20
ENDBRANCH  15  19
ENDBRANCH   6  13
BRANCH   1  26
HETATM   26  O   UNL     1      23.892  50.943  47.782  1.00  0.00    -0.356 OA
HETATM   27  C   UNL     1      22.588  50.949  48.351  1.00  0.00     0.210 C 
ENDBRANCH   1  26
TORSDOF 4
ENDMDL
MODEL 10
REMARK VINA RESULT:      -8.5      6.099      7.603
REMARK  4 active torsions:
REMARK  status: ('A' for Active; 'I' for Inactive)
REMARK    1  A    between atoms: O_2  and  C_3 
REMARK    2  A    between atoms: C_8  and  C_9 
REMARK    3  A    between atoms: N_11  and  C_12 
REMARK    4  A    between atoms: C_12  and  C_13 
ROOT
HETATM    1  C   UNL     1      21.239  46.848  47.331  1.00  0.00     0.069 A 
HETATM    2  C   UNL     1      22.044  47.683  48.107  1.00  0.00     0.056 A 
HETATM    3  C   UNL     1      23.068  47.135  48.883  1.00  0.00     0.063 A 
HETATM    4  C   UNL     1      23.307  45.759  48.910  1.00  0.00     0.074 A 
HETATM    5  N   UNL     1      24.339  45.183  49.669  1.00  0.00    -0.234 NA
HETATM    6  C   UNL     1      25.097  45.968  50.363  1.00  0.00     0.113 A 
HETATM    7  N   UNL     1      24.933  47.331  50.388  1.00  0.00    -0.310 N 
HETATM    8  C   UNL     1      23.946  47.988  49.696  1.00  0.00     0.259 A 
HETATM    9  O   UNL     1      23.813  49.204  49.757  1.00  0.00    -0.267 OA
HETATM   10  C   UNL     1      22.489  44.932  48.140  1.00  0.00     0.035 A 
HETATM   11  C   UNL     1      21.461  45.470  47.354  1.00  0.00     0.039 A 
HETATM   12  H   UNL     1      25.531  47.924  50.947  1.00  0.00     0.170 HD
ENDROOT
BRANCH   6  13
HETATM   13  C   UNL     1      26.257  45.454  51.182  1.00  0.00     0.082 C 
HETATM   14  C   UNL     1      25.866  44.828  52.513  1.00  0.00     0.139 C 
HETATM   15  N   UNL     1      26.881  43.826  52.725  1.00  0.00    -0.347 N 
HETATM   16  C   UNL     1      27.536  43.475  51.562  1.00  0.00     0.220 C 
HETATM   17  O   UNL     1      28.396  42.621  51.432  1.00  0.00    -0.273 OA
HETATM   18  C   UNL     1      26.989  44.326  50.447  1.00  0.00     0.117 C 
BRANCH  15  19
HETATM   19  C   UNL     1      27.122  43.212  54.016  1.00  0.00     0.164 C 
BRANCH  19  20
HETATM   20  C   UNL     1      28.373  43.757  54.663  1.00  0.00    -0.040 A 
HETATM   21  C   UNL     1      28.402  45.052  55.198  1.00  0.00     0.009 A 
HETATM   22  C   UNL     1      29.567  45.546  55.788  1.00  0.00     0.001 A 
HETATM   23  C   UNL     1      30.713  44.755  55.847  1.00  0.00     0.000 A 
HETATM   24  C   UNL     1      30.695  43.465  55.318  1.00  0.00     0.001 A 
HETATM   25  C   UNL     1      29.532  42.968  54.730  1.00  0.00     0.009 A 
ENDBRANCH  19  20
ENDBRANCH  15  19
ENDBRANCH   6  13
BRANCH   1  26
HETATM   26  O   UNL     1      20.277  47.495  46.607  1.00  0.00    -0.356 OA
HETATM   27  C   UNL     1      19.687  48.645  47.200  1.00  0.00     0.210 C 
ENDBRANCH   1  26
TORSDOF 4
ENDMDL
