MODEL 1
REMARK VINA RESULT:     -11.3      0.000      0.000
REMARK  8 active torsions:
REMARK  status: ('A' for Active; 'I' for Inactive)
REMARK    1  A    between atoms: C_2  and  C_3 
REMARK    2  A    between atoms: C_6  and  N_7 
REMARK       I    between atoms: N_7  and  C_8 
REMARK    3  A    between atoms: C_8  and  C_9 
REMARK    4  A    between atoms: C_9  and  S_10 
REMARK    5  A    between atoms: S_10  and  C_11 
REMARK    6  A    between atoms: C_23  and  C_24 
REMARK    7  A    between atoms: C_24  and  C_25 
REMARK       I    between atoms: C_25  and  N_26 
REMARK    8  A    between atoms: N_26  and  C_27 
ROOT
HETATM    1  C   UNL     1      24.495  45.928  49.829  1.00  0.00     0.178 C 
HETATM    2  N   UNL     1      23.469  46.632  49.221  1.00  0.00    -0.241 N 
HETATM    3  C   UNL     1      23.626  47.925  48.840  1.00  0.00     0.147 C 
HETATM    4  N   UNL     1      22.577  48.561  48.416  1.00  0.00    -0.256 NA
HETATM    5  C   UNL     1      24.973  48.492  48.921  1.00  0.00     0.039 A 
HETATM    6  C   UNL     1      25.975  47.668  49.446  1.00  0.00     0.073 A 
HETATM    7  C   UNL     1      25.256  49.771  48.434  1.00  0.00     0.018 A 
HETATM    8  C   UNL     1      26.569  50.238  48.469  1.00  0.00     0.001 A 
HETATM    9  C   UNL     1      27.582  49.427  48.983  1.00  0.00     0.002 A 
HETATM   10  C   UNL     1      27.284  48.150  49.468  1.00  0.00     0.032 A 
HETATM   11  C   UNL     1      22.187  46.257  48.892  1.00  0.00     0.257 C 
HETATM   12  O   UNL     1      21.694  45.141  48.864  1.00  0.00    -0.270 OA
HETATM   13  C   UNL     1      21.497  47.532  48.443  1.00  0.00     0.211 C 
HETATM   14  N   UNL     1      25.703  46.384  49.958  1.00  0.00    -0.223 NA
ENDROOT
BRANCH   1  15
HETATM   15  S   UNL     1      24.147  44.384  50.563  1.00  0.00    -0.082 SA
BRANCH  15  16
HETATM   16  C   UNL     1      25.836  43.787  50.816  1.00  0.00     0.185 C 
BRANCH  16  17
HETATM   17  C   UNL     1      26.379  44.022  52.220  1.00  0.00     0.231 C 
HETATM   18  N   UNL     1      27.754  44.114  52.307  1.00  0.00    -0.327 N 
HETATM   19  H   UNL     1      28.259  44.179  51.425  1.00  0.00     0.169 HD
HETATM   20  O   UNL     1      25.602  44.022  53.174  1.00  0.00    -0.272 OA
BRANCH  18  21
HETATM   21  C   UNL     1      28.555  44.052  53.464  1.00  0.00     0.034 A 
HETATM   22  C   UNL     1      29.524  43.076  53.690  1.00  0.00     0.030 A 
HETATM   23  C   UNL     1      30.377  43.169  54.797  1.00  0.00     0.010 A 
HETATM   24  C   UNL     1      30.270  44.231  55.704  1.00  0.00    -0.055 A 
HETATM   25  C   UNL     1      29.259  45.176  55.502  1.00  0.00     0.010 A 
HETATM   26  C   UNL     1      28.408  45.082  54.396  1.00  0.00     0.030 A 
BRANCH  24  27
HETATM   27  C   UNL     1      31.256  44.413  56.843  1.00  0.00     0.010 C 
HETATM   28  C   UNL     1      31.894  43.068  57.209  1.00  0.00     0.015 C 
HETATM   29  C   UNL     1      30.633  45.072  58.075  1.00  0.00     0.015 C 
ENDBRANCH  24  27
ENDBRANCH  18  21
ENDBRANCH  16  17
ENDBRANCH  15  16
ENDBRANCH   1  15
BRANCH  13  30
HETATM   30  C   UNL     1      20.882  47.424  47.055  1.00  0.00     0.140 C 
BRANCH  30  31
HETATM   31  C   UNL     1      19.567  48.163  46.860  1.00  0.00     0.220 C 
HETATM   32  N   UNL     1      19.457  49.382  47.482  1.00  0.00    -0.356 N 
HETATM   33  H   UNL     1      20.325  49.906  47.532  1.00  0.00     0.162 HD
HETATM   34  O   UNL     1      18.668  47.659  46.191  1.00  0.00    -0.274 OA
BRANCH  32  35
HETATM   35  C   UNL     1      18.244  50.204  47.487  1.00  0.00     0.084 C 
HETATM   36  C   UNL     1      17.403  50.077  48.771  1.00  0.00     0.025 C 
HETATM   37  C   UNL     1      18.138  50.604  50.002  1.00  0.00     0.002 C 
HETATM   38  C   UNL     1      18.585  52.049  49.808  1.00  0.00     0.000 C 
HETATM   39  C   UNL     1      19.384  52.236  48.521  1.00  0.00     0.002 C 
HETATM   40  C   UNL     1      18.642  51.679  47.300  1.00  0.00     0.025 C 
ENDBRANCH  32  35
ENDBRANCH  30  31
ENDBRANCH  13  30
TORSDOF 8
ENDMDL
MODEL 2
REMARK VINA RESULT:     -11.3      2.034      3.670
REMARK  8 active torsions:
REMARK  status: ('A' for Active; 'I' for Inactive)
REMARK    1  A    between atoms: C_2  and  C_3 
REMARK    2  A    between atoms: C_6  and  N_7 
REMARK       I    between atoms: N_7  and  C_8 
REMARK    3  A    between atoms: C_8  and  C_9 
REMARK    4  A    between atoms: C_9  and  S_10 
REMARK    5  A    between atoms: S_10  and  C_11 
REMARK    6  A    between atoms: C_23  and  C_24 
REMARK    7  A    between atoms: C_24  and  C_25 
REMARK       I    between atoms: C_25  and  N_26 
REMARK    8  A    between atoms: N_26  and  C_27 
ROOT
HETATM    1  C   UNL     1      23.679  46.334  49.290  1.00  0.00     0.178 C 
HETATM    2  N   UNL     1      23.507  47.618  48.800  1.00  0.00    -0.241 N 
HETATM    3  C   UNL     1      22.473  47.927  47.977  1.00  0.00     0.147 C 
HETATM    4  N   UNL     1      22.462  49.109  47.439  1.00  0.00    -0.256 NA
HETATM    5  C   UNL     1      21.442  46.908  47.777  1.00  0.00     0.039 A 
HETATM    6  C   UNL     1      21.644  45.674  48.404  1.00  0.00     0.073 A 
HETATM    7  C   UNL     1      20.279  47.180  47.050  1.00  0.00     0.018 A 
HETATM    8  C   UNL     1      19.295  46.198  46.949  1.00  0.00     0.001 A 
HETATM    9  C   UNL     1      19.477  44.964  47.574  1.00  0.00     0.002 A 
HETATM   10  C   UNL     1      20.645  44.705  48.296  1.00  0.00     0.032 A 
HETATM   11  C   UNL     1      24.244  48.764  48.987  1.00  0.00     0.257 C 
HETATM   12  O   UNL     1      25.122  48.990  49.804  1.00  0.00    -0.270 OA
HETATM   13  C   UNL     1      23.662  49.780  48.022  1.00  0.00     0.211 C 
HETATM   14  N   UNL     1      22.819  45.378  49.123  1.00  0.00    -0.223 NA
ENDROOT
BRANCH   1  15
HETATM   15  S   UNL     1      25.175  45.925  50.089  1.00  0.00    -0.082 SA
BRANCH  15  16
HETATM   16  C   UNL     1      24.570  44.650  51.220  1.00  0.00     0.185 C 
BRANCH  16  17
HETATM   17  C   UNL     1      25.257  44.642  52.580  1.00  0.00     0.231 C 
HETATM   18  N   UNL     1      26.593  44.992  52.562  1.00  0.00    -0.327 N 
HETATM   19  H   UNL     1      26.948  45.372  51.687  1.00  0.00     0.169 HD
HETATM   20  O   UNL     1      24.635  44.250  53.567  1.00  0.00    -0.272 OA
BRANCH  18  21
HETATM   21  C   UNL     1      27.548  44.816  53.582  1.00  0.00     0.034 A 
HETATM   22  C   UNL     1      28.351  43.685  53.712  1.00  0.00     0.030 A 
HETATM   23  C   UNL     1      29.376  43.649  54.665  1.00  0.00     0.010 A 
HETATM   24  C   UNL     1      29.611  44.740  55.513  1.00  0.00    -0.055 A 
HETATM   25  C   UNL     1      28.766  45.850  55.415  1.00  0.00     0.010 A 
HETATM   26  C   UNL     1      27.743  45.884  54.463  1.00  0.00     0.030 A 
BRANCH  24  27
HETATM   27  C   UNL     1      30.787  44.768  56.472  1.00  0.00     0.010 C 
HETATM   28  C   UNL     1      31.359  43.358  56.649  1.00  0.00     0.015 C 
HETATM   29  C   UNL     1      30.439  45.388  57.827  1.00  0.00     0.015 C 
ENDBRANCH  24  27
ENDBRANCH  18  21
ENDBRANCH  16  17
ENDBRANCH  15  16
ENDBRANCH   1  15
BRANCH  13  30
HETATM   30  C   UNL     1      23.226  51.071  48.701  1.00  0.00     0.140 C 
BRANCH  30  31
HETATM   31  C   UNL     1      22.076  50.938  49.687  1.00  0.00     0.220 C 
HETATM   32  N   UNL     1      20.823  50.796  49.143  1.00  0.00    -0.356 N 
HETATM   33  H   UNL     1      20.801  50.273  48.273  1.00  0.00     0.162 HD
HETATM   34  O   UNL     1      22.291  50.978  50.896  1.00  0.00    -0.274 OA
BRANCH  32  35
HETATM   35  C   UNL     1      19.583  50.742  49.923  1.00  0.00     0.084 C 
HETATM   36  C   UNL     1      18.752  52.038  49.873  1.00  0.00     0.025 C 
HETATM   37  C   UNL     1      18.223  52.336  48.472  1.00  0.00     0.002 C 
HETATM   38  C   UNL     1      17.409  51.169  47.923  1.00  0.00     0.000 C 
HETATM   39  C   UNL     1      18.175  49.850  47.995  1.00  0.00     0.002 C 
HETATM   40  C   UNL     1      18.719  49.579  49.401  1.00  0.00     0.025 C 
ENDBRANCH  32  35
ENDBRANCH  30  31
ENDBRANCH  13  30
TORSDOF 8
ENDMDL
MODEL 3
REMARK VINA RESULT:     -10.8      2.006      3.099
REMARK  8 active torsions:
REMARK  status: ('A' for Active; 'I' for Inactive)
REMARK    1  A    between atoms: C_2  and  C_3 
REMARK    2  A    between atoms: C_6  and  N_7 
REMARK       I    between atoms: N_7  and  C_8 
REMARK    3  A    between atoms: C_8  and  C_9 
REMARK    4  A    between atoms: C_9  and  S_10 
REMARK    5  A    between atoms: S_10  and  C_11 
REMARK    6  A    between atoms: C_23  and  C_24 
REMARK    7  A    between atoms: C_24  and  C_25 
REMARK       I    between atoms: C_25  and  N_26 
REMARK    8  A    between atoms: N_26  and  C_27 
ROOT
HETATM    1  C   UNL     1      21.905  46.098  48.669  1.00  0.00     0.178 C 
HETATM    2  N   UNL     1      20.606  46.579  48.668  1.00  0.00    -0.241 N 
HETATM    3  C   UNL     1      20.344  47.905  48.789  1.00  0.00     0.147 C 
HETATM    4  N   UNL     1      19.104  48.264  48.931  1.00  0.00    -0.256 NA
HETATM    5  C   UNL     1      21.480  48.826  48.730  1.00  0.00     0.039 A 
HETATM    6  C   UNL     1      22.752  48.253  48.617  1.00  0.00     0.073 A 
HETATM    7  C   UNL     1      21.295  50.211  48.719  1.00  0.00     0.018 A 
HETATM    8  C   UNL     1      22.406  51.044  48.590  1.00  0.00     0.001 A 
HETATM    9  C   UNL     1      23.681  50.490  48.470  1.00  0.00     0.002 A 
HETATM   10  C   UNL     1      23.851  49.103  48.483  1.00  0.00     0.032 A 
HETATM   11  C   UNL     1      19.400  45.926  48.565  1.00  0.00     0.257 C 
HETATM   12  O   UNL     1      19.175  44.772  48.237  1.00  0.00    -0.270 OA
HETATM   13  C   UNL     1      18.345  46.982  48.838  1.00  0.00     0.211 C 
HETATM   14  N   UNL     1      22.955  46.859  48.647  1.00  0.00    -0.223 NA
ENDROOT
BRANCH   1  15
HETATM   15  S   UNL     1      22.174  44.380  48.813  1.00  0.00    -0.082 SA
BRANCH  15  16
HETATM   16  C   UNL     1      23.981  44.365  48.886  1.00  0.00     0.185 C 
BRANCH  16  17
HETATM   17  C   UNL     1      24.550  44.261  50.296  1.00  0.00     0.231 C 
HETATM   18  N   UNL     1      25.692  45.004  50.522  1.00  0.00    -0.327 N 
HETATM   19  H   UNL     1      25.952  45.666  49.793  1.00  0.00     0.169 HD
HETATM   20  O   UNL     1      24.037  43.479  51.096  1.00  0.00    -0.272 OA
BRANCH  18  21
HETATM   21  C   UNL     1      26.589  44.905  51.603  1.00  0.00     0.034 A 
HETATM   22  C   UNL     1      26.462  45.624  52.790  1.00  0.00     0.030 A 
HETATM   23  C   UNL     1      27.313  45.361  53.871  1.00  0.00     0.010 A 
HETATM   24  C   UNL     1      28.312  44.384  53.782  1.00  0.00    -0.055 A 
HETATM   25  C   UNL     1      28.470  43.705  52.569  1.00  0.00     0.010 A 
HETATM   26  C   UNL     1      27.621  43.969  51.491  1.00  0.00     0.030 A 
BRANCH  24  27
HETATM   27  C   UNL     1      29.168  44.003  54.977  1.00  0.00     0.010 C 
HETATM   28  C   UNL     1      29.612  45.262  55.730  1.00  0.00     0.015 C 
HETATM   29  C   UNL     1      30.374  43.142  54.600  1.00  0.00     0.015 C 
ENDBRANCH  24  27
ENDBRANCH  18  21
ENDBRANCH  16  17
ENDBRANCH  15  16
ENDBRANCH   1  15
BRANCH  13  30
HETATM   30  C   UNL     1      17.312  47.098  47.727  1.00  0.00     0.140 C 
BRANCH  30  31
HETATM   31  C   UNL     1      16.410  48.321  47.795  1.00  0.00     0.220 C 
HETATM   32  N   UNL     1      16.991  49.524  47.474  1.00  0.00    -0.356 N 
HETATM   33  H   UNL     1      17.704  49.465  46.755  1.00  0.00     0.162 HD
HETATM   34  O   UNL     1      15.235  48.204  48.137  1.00  0.00    -0.274 OA
BRANCH  32  35
HETATM   35  C   UNL     1      16.315  50.820  47.564  1.00  0.00     0.084 C 
HETATM   36  C   UNL     1      16.074  51.306  49.005  1.00  0.00     0.025 C 
HETATM   37  C   UNL     1      17.378  51.585  49.750  1.00  0.00     0.002 C 
HETATM   38  C   UNL     1      18.247  52.587  48.998  1.00  0.00     0.000 C 
HETATM   39  C   UNL     1      18.476  52.172  47.546  1.00  0.00     0.002 C 
HETATM   40  C   UNL     1      17.159  51.872  46.821  1.00  0.00     0.025 C 
ENDBRANCH  32  35
ENDBRANCH  30  31
ENDBRANCH  13  30
TORSDOF 8
ENDMDL
MODEL 4
REMARK VINA RESULT:     -10.2      1.833      2.567
REMARK  8 active torsions:
REMARK  status: ('A' for Active; 'I' for Inactive)
REMARK    1  A    between atoms: C_2  and  C_3 
REMARK    2  A    between atoms: C_6  and  N_7 
REMARK       I    between atoms: N_7  and  C_8 
REMARK    3  A    between atoms: C_8  and  C_9 
REMARK    4  A    between atoms: C_9  and  S_10 
REMARK    5  A    between atoms: S_10  and  C_11 
REMARK    6  A    between atoms: C_23  and  C_24 
REMARK    7  A    between atoms: C_24  and  C_25 
REMARK       I    between atoms: C_25  and  N_26 
REMARK    8  A    between atoms: N_26  and  C_27 
ROOT
HETATM    1  C   UNL     1      23.543  46.170  49.217  1.00  0.00     0.178 C 
HETATM    2  N   UNL     1      22.216  46.056  48.838  1.00  0.00    -0.241 N 
HETATM    3  C   UNL     1      21.455  47.152  48.588  1.00  0.00     0.147 C 
HETATM    4  N   UNL     1      20.185  46.972  48.386  1.00  0.00    -0.256 NA
HETATM    5  C   UNL     1      22.133  48.449  48.549  1.00  0.00     0.039 A 
HETATM    6  C   UNL     1      23.502  48.454  48.836  1.00  0.00     0.073 A 
HETATM    7  C   UNL     1      21.457  49.614  48.176  1.00  0.00     0.018 A 
HETATM    8  C   UNL     1      22.165  50.811  48.085  1.00  0.00     0.001 A 
HETATM    9  C   UNL     1      23.532  50.834  48.361  1.00  0.00     0.002 A 
HETATM   10  C   UNL     1      24.195  49.661  48.734  1.00  0.00     0.032 A 
HETATM   11  C   UNL     1      21.422  44.949  48.646  1.00  0.00     0.257 C 
HETATM   12  O   UNL     1      21.745  43.775  48.559  1.00  0.00    -0.270 OA
HETATM   13  C   UNL     1      20.019  45.490  48.443  1.00  0.00     0.211 C 
HETATM   14  N   UNL     1      24.194  47.292  49.232  1.00  0.00    -0.223 NA
ENDROOT
BRANCH   1  15
HETATM   15  S   UNL     1      24.379  44.760  49.812  1.00  0.00    -0.082 SA
BRANCH  15  16
HETATM   16  C   UNL     1      24.735  45.312  51.497  1.00  0.00     0.185 C 
BRANCH  16  17
HETATM   17  C   UNL     1      26.148  44.998  51.974  1.00  0.00     0.231 C 
HETATM   18  N   UNL     1      26.314  44.991  53.345  1.00  0.00    -0.327 N 
HETATM   19  H   UNL     1      25.464  45.034  53.903  1.00  0.00     0.169 HD
HETATM   20  O   UNL     1      27.048  44.867  51.145  1.00  0.00    -0.272 OA
BRANCH  18  21
HETATM   21  C   UNL     1      27.521  45.011  54.071  1.00  0.00     0.034 A 
HETATM   22  C   UNL     1      27.935  46.077  54.866  1.00  0.00     0.030 A 
HETATM   23  C   UNL     1      29.076  45.960  55.670  1.00  0.00     0.010 A 
HETATM   24  C   UNL     1      29.829  44.779  55.686  1.00  0.00    -0.055 A 
HETATM   25  C   UNL     1      29.440  43.733  54.843  1.00  0.00     0.010 A 
HETATM   26  C   UNL     1      28.301  43.852  54.040  1.00  0.00     0.030 A 
BRANCH  24  27
HETATM   27  C   UNL     1      31.000  44.590  56.633  1.00  0.00     0.010 C 
HETATM   28  C   UNL     1      31.365  43.105  56.731  1.00  0.00     0.015 C 
HETATM   29  C   UNL     1      30.747  45.179  58.023  1.00  0.00     0.015 C 
ENDBRANCH  24  27
ENDBRANCH  18  21
ENDBRANCH  16  17
ENDBRANCH  15  16
ENDBRANCH   1  15
BRANCH  13  30
HETATM   30  C   UNL     1      19.375  45.014  47.148  1.00  0.00     0.140 C 
BRANCH  30  31
HETATM   31  C   UNL     1      18.771  46.104  46.276  1.00  0.00     0.220 C 
HETATM   32  N   UNL     1      17.723  46.806  46.820  1.00  0.00    -0.356 N 
HETATM   33  H   UNL     1      17.789  46.945  47.823  1.00  0.00     0.162 HD
HETATM   34  O   UNL     1      19.210  46.306  45.146  1.00  0.00    -0.274 OA
BRANCH  32  35
HETATM   35  C   UNL     1      16.954  47.831  46.108  1.00  0.00     0.084 C 
HETATM   36  C   UNL     1      15.560  48.098  46.703  1.00  0.00     0.025 C 
HETATM   37  C   UNL     1      15.631  48.687  48.110  1.00  0.00     0.002 C 
HETATM   38  C   UNL     1      16.466  49.963  48.139  1.00  0.00     0.000 C 
HETATM   39  C   UNL     1      17.845  49.761  47.515  1.00  0.00     0.002 C 
HETATM   40  C   UNL     1      17.755  49.146  46.114  1.00  0.00     0.025 C 
ENDBRANCH  32  35
ENDBRANCH  30  31
ENDBRANCH  13  30
TORSDOF 8
ENDMDL
MODEL 5
REMARK VINA RESULT:      -9.8      3.155      8.093
REMARK  8 active torsions:
REMARK  status: ('A' for Active; 'I' for Inactive)
REMARK    1  A    between atoms: C_2  and  C_3 
REMARK    2  A    between atoms: C_6  and  N_7 
REMARK       I    between atoms: N_7  and  C_8 
REMARK    3  A    between atoms: C_8  and  C_9 
REMARK    4  A    between atoms: C_9  and  S_10 
REMARK    5  A    between atoms: S_10  and  C_11 
REMARK    6  A    between atoms: C_23  and  C_24 
REMARK    7  A    between atoms: C_24  and  C_25 
REMARK       I    between atoms: C_25  and  N_26 
REMARK    8  A    between atoms: N_26  and  C_27 
ROOT
HETATM    1  C   UNL     1      23.208  45.783  49.426  1.00  0.00     0.178 C 
HETATM    2  N   UNL     1      24.266  46.301  50.155  1.00  0.00    -0.241 N 
HETATM    3  C   UNL     1      24.704  47.570  49.960  1.00  0.00     0.147 C 
HETATM    4  N   UNL     1      25.791  47.934  50.570  1.00  0.00    -0.256 NA
HETATM    5  C   UNL     1      23.903  48.435  49.093  1.00  0.00     0.039 A 
HETATM    6  C   UNL     1      22.783  47.856  48.485  1.00  0.00     0.073 A 
HETATM    7  C   UNL     1      24.205  49.790  48.935  1.00  0.00     0.018 A 
HETATM    8  C   UNL     1      23.369  50.587  48.153  1.00  0.00     0.001 A 
HETATM    9  C   UNL     1      22.244  50.027  47.545  1.00  0.00     0.002 A 
HETATM   10  C   UNL     1      21.955  48.670  47.711  1.00  0.00     0.032 A 
HETATM   11  C   UNL     1      25.052  45.737  51.133  1.00  0.00     0.257 C 
HETATM   12  O   UNL     1      24.881  44.702  51.757  1.00  0.00    -0.270 OA
HETATM   13  C   UNL     1      26.163  46.739  51.385  1.00  0.00     0.211 C 
HETATM   14  N   UNL     1      22.477  46.487  48.619  1.00  0.00    -0.223 NA
ENDROOT
BRANCH   1  15
HETATM   15  S   UNL     1      22.884  44.070  49.500  1.00  0.00    -0.082 SA
BRANCH  15  16
HETATM   16  C   UNL     1      23.346  43.606  47.814  1.00  0.00     0.185 C 
BRANCH  16  17
HETATM   17  C   UNL     1      24.233  42.370  47.725  1.00  0.00     0.231 C 
HETATM   18  N   UNL     1      24.964  42.092  48.863  1.00  0.00    -0.327 N 
HETATM   19  H   UNL     1      24.727  42.631  49.694  1.00  0.00     0.169 HD
HETATM   20  O   UNL     1      24.317  41.765  46.657  1.00  0.00    -0.272 OA
BRANCH  18  21
HETATM   21  C   UNL     1      26.052  41.209  48.999  1.00  0.00     0.034 A 
HETATM   22  C   UNL     1      27.371  41.545  48.699  1.00  0.00     0.030 A 
HETATM   23  C   UNL     1      28.413  40.659  48.999  1.00  0.00     0.010 A 
HETATM   24  C   UNL     1      28.155  39.417  49.595  1.00  0.00    -0.055 A 
HETATM   25  C   UNL     1      26.825  39.063  49.842  1.00  0.00     0.010 A 
HETATM   26  C   UNL     1      25.785  39.949  49.541  1.00  0.00     0.030 A 
BRANCH  24  27
HETATM   27  C   UNL     1      29.276  38.492  50.033  1.00  0.00     0.010 C 
HETATM   28  C   UNL     1      30.279  38.300  48.891  1.00  0.00     0.015 C 
HETATM   29  C   UNL     1      28.772  37.142  50.547  1.00  0.00     0.015 C 
ENDBRANCH  24  27
ENDBRANCH  18  21
ENDBRANCH  16  17
ENDBRANCH  15  16
ENDBRANCH   1  15
BRANCH  13  30
HETATM   30  C   UNL     1      26.277  47.153  52.845  1.00  0.00     0.140 C 
BRANCH  30  31
HETATM   31  C   UNL     1      26.483  46.017  53.836  1.00  0.00     0.220 C 
HETATM   32  N   UNL     1      27.545  45.181  53.589  1.00  0.00    -0.356 N 
HETATM   33  H   UNL     1      28.351  45.639  53.175  1.00  0.00     0.162 HD
HETATM   34  O   UNL     1      25.713  45.876  54.783  1.00  0.00    -0.274 OA
BRANCH  32  35
HETATM   35  C   UNL     1      27.855  43.983  54.373  1.00  0.00     0.084 C 
HETATM   36  C   UNL     1      27.093  42.723  53.926  1.00  0.00     0.025 C 
HETATM   37  C   UNL     1      27.481  42.278  52.517  1.00  0.00     0.002 C 
HETATM   38  C   UNL     1      28.984  42.052  52.398  1.00  0.00     0.000 C 
HETATM   39  C   UNL     1      29.786  43.260  52.876  1.00  0.00     0.002 C 
HETATM   40  C   UNL     1      29.367  43.707  54.280  1.00  0.00     0.025 C 
ENDBRANCH  32  35
ENDBRANCH  30  31
ENDBRANCH  13  30
TORSDOF 8
ENDMDL
MODEL 6
REMARK VINA RESULT:      -9.8      2.997     10.234
REMARK  8 active torsions:
REMARK  status: ('A' for Active; 'I' for Inactive)
REMARK    1  A    between atoms: C_2  and  C_3 
REMARK    2  A    between atoms: C_6  and  N_7 
REMARK       I    between atoms: N_7  and  C_8 
REMARK    3  A    between atoms: C_8  and  C_9 
REMARK    4  A    between atoms: C_9  and  S_10 
REMARK    5  A    between atoms: S_10  and  C_11 
REMARK    6  A    between atoms: C_23  and  C_24 
REMARK    7  A    between atoms: C_24  and  C_25 
REMARK       I    between atoms: C_25  and  N_26 
REMARK    8  A    between atoms: N_26  and  C_27 
ROOT
HETATM    1  C   UNL     1      25.729  46.473  50.653  1.00  0.00     0.178 C 
HETATM    2  N   UNL     1      25.551  45.750  51.822  1.00  0.00    -0.241 N 
HETATM    3  C   UNL     1      24.709  44.686  51.873  1.00  0.00     0.147 C 
HETATM    4  N   UNL     1      24.480  44.154  53.035  1.00  0.00    -0.256 NA
HETATM    5  C   UNL     1      24.143  44.212  50.610  1.00  0.00     0.039 A 
HETATM    6  C   UNL     1      24.469  44.939  49.460  1.00  0.00     0.073 A 
HETATM    7  C   UNL     1      23.370  43.049  50.548  1.00  0.00     0.018 A 
HETATM    8  C   UNL     1      22.914  42.601  49.309  1.00  0.00     0.001 A 
HETATM    9  C   UNL     1      23.235  43.310  48.152  1.00  0.00     0.002 A 
HETATM   10  C   UNL     1      24.008  44.472  48.228  1.00  0.00     0.032 A 
HETATM   11  C   UNL     1      26.100  45.904  53.073  1.00  0.00     0.257 C 
HETATM   12  O   UNL     1      27.047  46.592  53.419  1.00  0.00    -0.270 OA
HETATM   13  C   UNL     1      25.350  44.933  53.966  1.00  0.00     0.211 C 
HETATM   14  N   UNL     1      25.231  46.123  49.508  1.00  0.00    -0.223 NA
ENDROOT
BRANCH   1  15
HETATM   15  S   UNL     1      26.578  47.995  50.719  1.00  0.00    -0.082 SA
BRANCH  15  16
HETATM   16  C   UNL     1      26.665  48.365  48.950  1.00  0.00     0.185 C 
BRANCH  16  17
HETATM   17  C   UNL     1      25.563  49.290  48.449  1.00  0.00     0.231 C 
HETATM   18  N   UNL     1      24.318  49.069  49.003  1.00  0.00    -0.327 N 
HETATM   19  H   UNL     1      24.283  48.432  49.797  1.00  0.00     0.169 HD
HETATM   20  O   UNL     1      25.812  50.088  47.546  1.00  0.00    -0.272 OA
BRANCH  18  21
HETATM   21  C   UNL     1      23.073  49.556  48.558  1.00  0.00     0.034 A 
HETATM   22  C   UNL     1      22.137  48.789  47.868  1.00  0.00     0.030 A 
HETATM   23  C   UNL     1      20.866  49.305  47.589  1.00  0.00     0.010 A 
HETATM   24  C   UNL     1      20.510  50.600  47.985  1.00  0.00    -0.055 A 
HETATM   25  C   UNL     1      21.473  51.385  48.628  1.00  0.00     0.010 A 
HETATM   26  C   UNL     1      22.742  50.869  48.905  1.00  0.00     0.030 A 
BRANCH  24  27
HETATM   27  C   UNL     1      19.103  51.137  47.796  1.00  0.00     0.010 C 
HETATM   28  C   UNL     1      18.968  52.511  48.459  1.00  0.00     0.015 C 
HETATM   29  C   UNL     1      18.023  50.180  48.305  1.00  0.00     0.015 C 
ENDBRANCH  24  27
ENDBRANCH  18  21
ENDBRANCH  16  17
ENDBRANCH  15  16
ENDBRANCH   1  15
BRANCH  13  30
HETATM   30  C   UNL     1      26.266  43.971  54.709  1.00  0.00     0.140 C 
BRANCH  30  31
HETATM   31  C   UNL     1      27.361  43.329  53.872  1.00  0.00     0.220 C 
HETATM   32  N   UNL     1      26.951  42.409  52.938  1.00  0.00    -0.356 N 
HETATM   33  H   UNL     1      26.051  42.615  52.515  1.00  0.00     0.162 HD
HETATM   34  O   UNL     1      28.538  43.626  54.060  1.00  0.00    -0.274 OA
BRANCH  32  35
HETATM   35  C   UNL     1      27.857  41.620  52.099  1.00  0.00     0.084 C 
HETATM   36  C   UNL     1      27.225  40.340  51.520  1.00  0.00     0.025 C 
HETATM   37  C   UNL     1      26.088  40.643  50.547  1.00  0.00     0.002 C 
HETATM   38  C   UNL     1      26.549  41.557  49.417  1.00  0.00     0.000 C 
HETATM   39  C   UNL     1      27.227  42.821  49.941  1.00  0.00     0.002 C 
HETATM   40  C   UNL     1      28.348  42.500  50.935  1.00  0.00     0.025 C 
ENDBRANCH  32  35
ENDBRANCH  30  31
ENDBRANCH  13  30
TORSDOF 8
ENDMDL
MODEL 7
REMARK VINA RESULT:      -9.8      4.599     10.423
REMARK  8 active torsions:
REMARK  status: ('A' for Active; 'I' for Inactive)
REMARK    1  A    between atoms: C_2  and  C_3 
REMARK    2  A    between atoms: C_6  and  N_7 
REMARK       I    between atoms: N_7  and  C_8 
REMARK    3  A    between atoms: C_8  and  C_9 
REMARK    4  A    between atoms: C_9  and  S_10 
REMARK    5  A    between atoms: S_10  and  C_11 
REMARK    6  A    between atoms: C_23  and  C_24 
REMARK    7  A    between atoms: C_24  and  C_25 
REMARK       I    between atoms: C_25  and  N_26 
REMARK    8  A    between atoms: N_26  and  C_27 
ROOT
HETATM    1  C   UNL     1      26.963  44.935  53.876  1.00  0.00     0.178 C 
HETATM    2  N   UNL     1      27.740  43.894  53.393  1.00  0.00    -0.241 N 
HETATM    3  C   UNL     1      28.984  43.656  53.880  1.00  0.00     0.147 C 
HETATM    4  N   UNL     1      29.707  42.762  53.277  1.00  0.00    -0.256 NA
HETATM    5  C   UNL     1      29.403  44.414  55.060  1.00  0.00     0.039 A 
HETATM    6  C   UNL     1      28.505  45.369  55.549  1.00  0.00     0.073 A 
HETATM    7  C   UNL     1      30.614  44.147  55.706  1.00  0.00     0.018 A 
HETATM    8  C   UNL     1      30.934  44.848  56.868  1.00  0.00     0.001 A 
HETATM    9  C   UNL     1      30.047  45.799  57.373  1.00  0.00     0.002 A 
HETATM   10  C   UNL     1      28.840  46.057  56.716  1.00  0.00     0.032 A 
HETATM   11  C   UNL     1      27.491  42.957  52.418  1.00  0.00     0.257 C 
HETATM   12  O   UNL     1      26.436  42.674  51.872  1.00  0.00    -0.270 OA
HETATM   13  C   UNL     1      28.806  42.229  52.213  1.00  0.00     0.211 C 
HETATM   14  N   UNL     1      27.290  45.663  54.898  1.00  0.00    -0.223 NA
ENDROOT
BRANCH   1  15
HETATM   15  S   UNL     1      25.511  45.379  53.017  1.00  0.00    -0.082 SA
BRANCH  15  16
HETATM   16  C   UNL     1      26.252  46.113  51.539  1.00  0.00     0.185 C 
BRANCH  16  17
HETATM   17  C   UNL     1      25.741  45.530  50.227  1.00  0.00     0.231 C 
HETATM   18  N   UNL     1      24.474  44.985  50.284  1.00  0.00    -0.327 N 
HETATM   19  H   UNL     1      23.943  45.164  51.135  1.00  0.00     0.169 HD
HETATM   20  O   UNL     1      26.491  45.493  49.253  1.00  0.00    -0.272 OA
BRANCH  18  21
HETATM   21  C   UNL     1      23.849  44.145  49.342  1.00  0.00     0.034 A 
HETATM   22  C   UNL     1      23.410  44.568  48.090  1.00  0.00     0.030 A 
HETATM   23  C   UNL     1      22.931  43.640  47.156  1.00  0.00     0.010 A 
HETATM   24  C   UNL     1      22.874  42.274  47.460  1.00  0.00    -0.055 A 
HETATM   25  C   UNL     1      23.265  41.863  48.739  1.00  0.00     0.010 A 
HETATM   26  C   UNL     1      23.741  42.790  49.670  1.00  0.00     0.030 A 
BRANCH  24  27
HETATM   27  C   UNL     1      22.470  41.240  46.425  1.00  0.00     0.010 C 
HETATM   28  C   UNL     1      22.246  39.881  47.097  1.00  0.00     0.015 C 
HETATM   29  C   UNL     1      23.472  41.120  45.276  1.00  0.00     0.015 C 
ENDBRANCH  24  27
ENDBRANCH  18  21
ENDBRANCH  16  17
ENDBRANCH  15  16
ENDBRANCH   1  15
BRANCH  13  30
HETATM   30  C   UNL     1      28.688  40.721  52.375  1.00  0.00     0.140 C 
BRANCH  30  31
HETATM   31  C   UNL     1      29.001  39.900  51.133  1.00  0.00     0.220 C 
HETATM   32  N   UNL     1      28.599  40.435  49.934  1.00  0.00    -0.356 N 
HETATM   33  H   UNL     1      28.645  41.448  49.891  1.00  0.00     0.162 HD
HETATM   34  O   UNL     1      29.569  38.815  51.237  1.00  0.00    -0.274 OA
BRANCH  32  35
HETATM   35  C   UNL     1      28.729  39.759  48.640  1.00  0.00     0.084 C 
HETATM   36  C   UNL     1      27.905  38.464  48.520  1.00  0.00     0.025 C 
HETATM   37  C   UNL     1      26.402  38.724  48.582  1.00  0.00     0.002 C 
HETATM   38  C   UNL     1      25.964  39.725  47.518  1.00  0.00     0.000 C 
HETATM   39  C   UNL     1      26.786  41.010  47.566  1.00  0.00     0.002 C 
HETATM   40  C   UNL     1      28.292  40.730  47.527  1.00  0.00     0.025 C 
ENDBRANCH  32  35
ENDBRANCH  30  31
ENDBRANCH  13  30
TORSDOF 8
ENDMDL
MODEL 8
REMARK VINA RESULT:      -9.6      5.417      9.043
REMARK  8 active torsions:
REMARK  status: ('A' for Active; 'I' for Inactive)
REMARK    1  A    between atoms: C_2  and  C_3 
REMARK    2  A    between atoms: C_6  and  N_7 
REMARK       I    between atoms: N_7  and  C_8 
REMARK    3  A    between atoms: C_8  and  C_9 
REMARK    4  A    between atoms: C_9  and  S_10 
REMARK    5  A    between atoms: S_10  and  C_11 
REMARK    6  A    between atoms: C_23  and  C_24 
REMARK    7  A    between atoms: C_24  and  C_25 
REMARK       I    between atoms: C_25  and  N_26 
REMARK    8  A    between atoms: N_26  and  C_27 
ROOT
HETATM    1  C   UNL     1      25.023  43.775  49.574  1.00  0.00     0.178 C 
HETATM    2  N   UNL     1      25.738  42.599  49.728  1.00  0.00    -0.241 N 
HETATM    3  C   UNL     1      25.358  41.455  49.106  1.00  0.00     0.147 C 
HETATM    4  N   UNL     1      25.987  40.362  49.416  1.00  0.00    -0.256 NA
HETATM    5  C   UNL     1      24.283  41.549  48.118  1.00  0.00     0.039 A 
HETATM    6  C   UNL     1      23.692  42.806  47.946  1.00  0.00     0.073 A 
HETATM    7  C   UNL     1      23.912  40.451  47.336  1.00  0.00     0.018 A 
HETATM    8  C   UNL     1      22.930  40.611  46.360  1.00  0.00     0.001 A 
HETATM    9  C   UNL     1      22.335  41.859  46.170  1.00  0.00     0.002 A 
HETATM   10  C   UNL     1      22.715  42.949  46.960  1.00  0.00     0.032 A 
HETATM   11  C   UNL     1      26.866  42.316  50.462  1.00  0.00     0.257 C 
HETATM   12  O   UNL     1      27.647  43.085  51.000  1.00  0.00    -0.270 OA
HETATM   13  C   UNL     1      27.032  40.810  50.384  1.00  0.00     0.211 C 
HETATM   14  N   UNL     1      24.041  43.917  48.738  1.00  0.00    -0.223 NA
ENDROOT
BRANCH   1  15
HETATM   15  S   UNL     1      25.373  45.125  50.623  1.00  0.00    -0.082 SA
BRANCH  15  16
HETATM   16  C   UNL     1      24.611  44.522  52.149  1.00  0.00     0.185 C 
BRANCH  16  17
HETATM   17  C   UNL     1      25.483  44.680  53.389  1.00  0.00     0.231 C 
HETATM   18  N   UNL     1      26.752  45.170  53.152  1.00  0.00    -0.327 N 
HETATM   19  H   UNL     1      26.931  45.526  52.215  1.00  0.00     0.169 HD
HETATM   20  O   UNL     1      25.059  44.291  54.476  1.00  0.00    -0.272 OA
BRANCH  18  21
HETATM   21  C   UNL     1      27.858  45.166  54.024  1.00  0.00     0.034 A 
HETATM   22  C   UNL     1      28.147  46.193  54.920  1.00  0.00     0.030 A 
HETATM   23  C   UNL     1      29.181  46.048  55.853  1.00  0.00     0.010 A 
HETATM   24  C   UNL     1      29.952  44.879  55.901  1.00  0.00    -0.055 A 
HETATM   25  C   UNL     1      29.692  43.875  54.962  1.00  0.00     0.010 A 
HETATM   26  C   UNL     1      28.660  44.022  54.031  1.00  0.00     0.030 A 
BRANCH  24  27
HETATM   27  C   UNL     1      30.999  44.654  56.977  1.00  0.00     0.010 C 
HETATM   28  C   UNL     1      31.330  43.162  57.087  1.00  0.00     0.015 C 
HETATM   29  C   UNL     1      30.590  45.221  58.338  1.00  0.00     0.015 C 
ENDBRANCH  24  27
ENDBRANCH  18  21
ENDBRANCH  16  17
ENDBRANCH  15  16
ENDBRANCH   1  15
BRANCH  13  30
HETATM   30  C   UNL     1      28.399  40.384  49.868  1.00  0.00     0.140 C 
BRANCH  30  31
HETATM   31  C   UNL     1      28.513  38.930  49.435  1.00  0.00     0.220 C 
HETATM   32  N   UNL     1      28.028  38.628  48.186  1.00  0.00    -0.356 N 
HETATM   33  H   UNL     1      28.149  39.367  47.501  1.00  0.00     0.162 HD
HETATM   34  O   UNL     1      29.002  38.096  50.194  1.00  0.00    -0.274 OA
BRANCH  32  35
HETATM   35  C   UNL     1      27.968  37.276  47.626  1.00  0.00     0.084 C 
HETATM   36  C   UNL     1      26.656  36.528  47.926  1.00  0.00     0.025 C 
HETATM   37  C   UNL     1      25.446  37.189  47.269  1.00  0.00     0.002 C 
HETATM   38  C   UNL     1      25.637  37.329  45.762  1.00  0.00     0.000 C 
HETATM   39  C   UNL     1      26.950  38.023  45.412  1.00  0.00     0.002 C 
HETATM   40  C   UNL     1      28.150  37.362  46.099  1.00  0.00     0.025 C 
ENDBRANCH  32  35
ENDBRANCH  30  31
ENDBRANCH  13  30
TORSDOF 8
ENDMDL
MODEL 9
REMARK VINA RESULT:      -9.6      3.392      4.556
REMARK  8 active torsions:
REMARK  status: ('A' for Active; 'I' for Inactive)
REMARK    1  A    between atoms: C_2  and  C_3 
REMARK    2  A    between atoms: C_6  and  N_7 
REMARK       I    between atoms: N_7  and  C_8 
REMARK    3  A    between atoms: C_8  and  C_9 
REMARK    4  A    between atoms: C_9  and  S_10 
REMARK    5  A    between atoms: S_10  and  C_11 
REMARK    6  A    between atoms: C_23  and  C_24 
REMARK    7  A    between atoms: C_24  and  C_25 
REMARK       I    between atoms: C_25  and  N_26 
REMARK    8  A    between atoms: N_26  and  C_27 
ROOT
HETATM    1  C   UNL     1      26.559  42.273  48.994  1.00  0.00     0.178 C 
HETATM    2  N   UNL     1      25.202  42.158  48.741  1.00  0.00    -0.241 N 
HETATM    3  C   UNL     1      24.330  43.131  49.107  1.00  0.00     0.147 C 
HETATM    4  N   UNL     1      23.061  42.886  48.973  1.00  0.00    -0.256 NA
HETATM    5  C   UNL     1      24.890  44.388  49.603  1.00  0.00     0.039 A 
HETATM    6  C   UNL     1      26.284  44.455  49.719  1.00  0.00     0.073 A 
HETATM    7  C   UNL     1      24.077  45.490  49.883  1.00  0.00     0.018 A 
HETATM    8  C   UNL     1      24.668  46.687  50.285  1.00  0.00     0.001 A 
HETATM    9  C   UNL     1      26.056  46.773  50.400  1.00  0.00     0.002 A 
HETATM   10  C   UNL     1      26.857  45.663  50.118  1.00  0.00     0.032 A 
HETATM   11  C   UNL     1      24.476  41.155  48.141  1.00  0.00     0.257 C 
HETATM   12  O   UNL     1      24.872  40.203  47.488  1.00  0.00    -0.270 OA
HETATM   13  C   UNL     1      23.021  41.528  48.354  1.00  0.00     0.211 C 
HETATM   14  N   UNL     1      27.115  43.348  49.460  1.00  0.00    -0.223 NA
ENDROOT
BRANCH   1  15
HETATM   15  S   UNL     1      27.584  40.878  48.779  1.00  0.00    -0.082 SA
BRANCH  15  16
HETATM   16  C   UNL     1      27.229  40.007  50.325  1.00  0.00     0.185 C 
BRANCH  16  17
HETATM   17  C   UNL     1      27.956  40.568  51.541  1.00  0.00     0.231 C 
HETATM   18  N   UNL     1      27.301  41.596  52.190  1.00  0.00    -0.327 N 
HETATM   19  H   UNL     1      26.341  41.773  51.902  1.00  0.00     0.169 HD
HETATM   20  O   UNL     1      29.083  40.156  51.812  1.00  0.00    -0.272 OA
BRANCH  18  21
HETATM   21  C   UNL     1      27.823  42.486  53.149  1.00  0.00     0.034 A 
HETATM   22  C   UNL     1      29.049  42.314  53.787  1.00  0.00     0.030 A 
HETATM   23  C   UNL     1      29.561  43.316  54.619  1.00  0.00     0.010 A 
HETATM   24  C   UNL     1      28.853  44.505  54.837  1.00  0.00    -0.055 A 
HETATM   25  C   UNL     1      27.597  44.648  54.238  1.00  0.00     0.010 A 
HETATM   26  C   UNL     1      27.087  43.646  53.408  1.00  0.00     0.030 A 
BRANCH  24  27
HETATM   27  C   UNL     1      29.441  45.651  55.640  1.00  0.00     0.010 C 
HETATM   28  C   UNL     1      30.594  45.146  56.514  1.00  0.00     0.015 C 
HETATM   29  C   UNL     1      28.399  46.385  56.487  1.00  0.00     0.015 C 
ENDBRANCH  24  27
ENDBRANCH  18  21
ENDBRANCH  16  17
ENDBRANCH  15  16
ENDBRANCH   1  15
BRANCH  13  30
HETATM   30  C   UNL     1      22.224  41.599  47.059  1.00  0.00     0.140 C 
BRANCH  30  31
HETATM   31  C   UNL     1      22.174  42.965  46.393  1.00  0.00     0.220 C 
HETATM   32  N   UNL     1      21.122  43.775  46.745  1.00  0.00    -0.356 N 
HETATM   33  H   UNL     1      20.822  43.675  47.709  1.00  0.00     0.162 HD
HETATM   34  O   UNL     1      23.035  43.286  45.576  1.00  0.00    -0.274 OA
BRANCH  32  35
HETATM   35  C   UNL     1      20.850  45.086  46.149  1.00  0.00     0.084 C 
HETATM   36  C   UNL     1      19.353  45.419  46.016  1.00  0.00     0.025 C 
HETATM   37  C   UNL     1      18.663  45.547  47.373  1.00  0.00     0.002 C 
HETATM   38  C   UNL     1      19.354  46.581  48.255  1.00  0.00     0.000 C 
HETATM   39  C   UNL     1      20.853  46.320  48.379  1.00  0.00     0.002 C 
HETATM   40  C   UNL     1      21.525  46.170  47.010  1.00  0.00     0.025 C 
ENDBRANCH  32  35
ENDBRANCH  30  31
ENDBRANCH  13  30
TORSDOF 8
ENDMDL
MODEL 10
REMARK VINA RESULT:      -9.4      4.566      5.229
REMARK  8 active torsions:
REMARK  status: ('A' for Active; 'I' for Inactive)
REMARK    1  A    between atoms: C_2  and  C_3 
REMARK    2  A    between atoms: C_6  and  N_7 
REMARK       I    between atoms: N_7  and  C_8 
REMARK    3  A    between atoms: C_8  and  C_9 
REMARK    4  A    between atoms: C_9  and  S_10 
REMARK    5  A    between atoms: S_10  and  C_11 
REMARK    6  A    between atoms: C_23  and  C_24 
REMARK    7  A    between atoms: C_24  and  C_25 
REMARK       I    between atoms: C_25  and  N_26 
REMARK    8  A    between atoms: N_26  and  C_27 
ROOT
HETATM    1  C   UNL     1      21.827  46.047  48.640  1.00  0.00     0.178 C 
HETATM    2  N   UNL     1      20.540  46.559  48.637  1.00  0.00    -0.241 N 
HETATM    3  C   UNL     1      20.309  47.891  48.757  1.00  0.00     0.147 C 
HETATM    4  N   UNL     1      19.078  48.280  48.897  1.00  0.00    -0.256 NA
HETATM    5  C   UNL     1      21.467  48.785  48.700  1.00  0.00     0.039 A 
HETATM    6  C   UNL     1      22.725  48.181  48.590  1.00  0.00     0.073 A 
HETATM    7  C   UNL     1      21.316  50.174  48.689  1.00  0.00     0.018 A 
HETATM    8  C   UNL     1      22.447  50.980  48.562  1.00  0.00     0.001 A 
HETATM    9  C   UNL     1      23.708  50.395  48.443  1.00  0.00     0.002 A 
HETATM   10  C   UNL     1      23.844  49.004  48.458  1.00  0.00     0.032 A 
HETATM   11  C   UNL     1      19.319  45.935  48.531  1.00  0.00     0.257 C 
HETATM   12  O   UNL     1      19.066  44.787  48.203  1.00  0.00    -0.270 OA
HETATM   13  C   UNL     1      18.289  47.016  48.803  1.00  0.00     0.211 C 
HETATM   14  N   UNL     1      22.895  46.783  48.620  1.00  0.00    -0.223 NA
ENDROOT
BRANCH   1  15
HETATM   15  S   UNL     1      22.054  44.324  48.785  1.00  0.00    -0.082 SA
BRANCH  15  16
HETATM   16  C   UNL     1      23.751  44.193  48.174  1.00  0.00     0.185 C 
BRANCH  16  17
HETATM   17  C   UNL     1      24.305  42.773  48.161  1.00  0.00     0.231 C 
HETATM   18  N   UNL     1      25.312  42.530  49.073  1.00  0.00    -0.327 N 
HETATM   19  H   UNL     1      25.478  43.257  49.767  1.00  0.00     0.169 HD
HETATM   20  O   UNL     1      23.906  41.980  47.309  1.00  0.00    -0.272 OA
BRANCH  18  21
HETATM   21  C   UNL     1      26.195  41.434  49.117  1.00  0.00     0.034 A 
HETATM   22  C   UNL     1      26.013  40.319  49.933  1.00  0.00     0.030 A 
HETATM   23  C   UNL     1      26.857  39.208  49.811  1.00  0.00     0.010 A 
HETATM   24  C   UNL     1      27.903  39.194  48.880  1.00  0.00    -0.055 A 
HETATM   25  C   UNL     1      28.114  40.338  48.103  1.00  0.00     0.010 A 
HETATM   26  C   UNL     1      27.272  41.447  48.226  1.00  0.00     0.030 A 
BRANCH  24  27
HETATM   27  C   UNL     1      28.755  37.959  48.652  1.00  0.00     0.010 C 
HETATM   28  C   UNL     1      30.143  38.153  49.271  1.00  0.00     0.015 C 
HETATM   29  C   UNL     1      28.869  37.575  47.175  1.00  0.00     0.015 C 
ENDBRANCH  24  27
ENDBRANCH  18  21
ENDBRANCH  16  17
ENDBRANCH  15  16
ENDBRANCH   1  15
BRANCH  13  30
HETATM   30  C   UNL     1      17.261  47.158  47.689  1.00  0.00     0.140 C 
BRANCH  30  31
HETATM   31  C   UNL     1      16.379  48.395  47.762  1.00  0.00     0.220 C 
HETATM   32  N   UNL     1      16.968  49.582  47.399  1.00  0.00    -0.356 N 
HETATM   33  H   UNL     1      17.656  49.498  46.657  1.00  0.00     0.162 HD
HETATM   34  O   UNL     1      15.215  48.303  48.146  1.00  0.00    -0.274 OA
BRANCH  32  35
HETATM   35  C   UNL     1      16.314  50.891  47.485  1.00  0.00     0.084 C 
HETATM   36  C   UNL     1      15.993  51.340  48.922  1.00  0.00     0.025 C 
HETATM   37  C   UNL     1      17.252  51.568  49.756  1.00  0.00     0.002 C 
HETATM   38  C   UNL     1      18.188  52.571  49.090  1.00  0.00     0.000 C 
HETATM   39  C   UNL     1      18.499  52.193  47.644  1.00  0.00     0.002 C 
HETATM   40  C   UNL     1      17.225  51.944  46.829  1.00  0.00     0.025 C 
ENDBRANCH  32  35
ENDBRANCH  30  31
ENDBRANCH  13  30
TORSDOF 8
ENDMDL
