MODEL 1
REMARK VINA RESULT:      -9.3      0.000      0.000
REMARK  4 active torsions:
REMARK  status: ('A' for Active; 'I' for Inactive)
REMARK    1  A    between atoms: C_2  and  C_3 
REMARK       I    between atoms: C_3  and  N_4 
REMARK    2  A    between atoms: N_4  and  C_5 
REMARK    3  A    between atoms: C_12  and  C_13 
REMARK       I    between atoms: C_13  and  N_14 
REMARK    4  A    between atoms: C_19  and  C_20 
ROOT
HETATM    1  C   UNL     1      28.047  43.215  52.707  1.00  0.00     0.036 A 
HETATM    2  C   UNL     1      27.748  42.907  51.373  1.00  0.00     0.046 A 
HETATM    3  C   UNL     1      27.946  41.591  50.901  1.00  0.00     0.030 A 
HETATM    4  C   UNL     1      28.415  40.626  51.784  1.00  0.00     0.063 A 
HETATM    5  N   UNL     1      28.487  39.472  51.055  1.00  0.00    -0.277 N 
HETATM    6  H   UNL     1      28.783  38.558  51.381  1.00  0.00     0.189 HD
HETATM    7  N   UNL     1      28.129  39.602  49.768  1.00  0.00    -0.168 NA
HETATM    8  C   UNL     1      27.797  40.909  49.655  1.00  0.00     0.156 A 
HETATM    9  C   UNL     1      28.721  40.897  53.119  1.00  0.00     0.034 A 
HETATM   10  C   UNL     1      28.538  42.215  53.556  1.00  0.00     0.032 A 
ENDROOT
BRANCH   1  11
HETATM   11  N   UNL     1      27.901  44.504  53.260  1.00  0.00    -0.323 N 
HETATM   12  C   UNL     1      27.069  44.883  54.290  1.00  0.00     0.251 C 
HETATM   13  O   UNL     1      26.367  44.171  54.994  1.00  0.00    -0.268 OA
HETATM   14  H   UNL     1      28.481  45.231  52.864  1.00  0.00     0.169 HD
BRANCH  12  15
HETATM   15  C   UNL     1      27.145  46.348  54.572  1.00  0.00     0.007 C 
HETATM   16  C   UNL     1      26.257  47.184  53.702  1.00  0.00     0.054 C 
HETATM   17  C   UNL     1      27.964  46.871  55.505  1.00  0.00     0.023 C 
BRANCH  17  18
HETATM   18  C   UNL     1      28.931  46.153  56.350  1.00  0.00    -0.034 A 
HETATM   19  C   UNL     1      29.774  45.203  55.759  1.00  0.00     0.035 A 
HETATM   20  C   UNL     1      30.675  44.481  56.544  1.00  0.00     0.034 A 
HETATM   21 CL   UNL     1      31.710  43.323  55.805  1.00  0.00    -0.084 Cl
HETATM   22  C   UNL     1      30.741  44.688  57.920  1.00  0.00     0.024 A 
HETATM   23  C   UNL     1      29.893  45.617  58.518  1.00  0.00     0.003 A 
HETATM   24  C   UNL     1      28.986  46.339  57.738  1.00  0.00     0.011 A 
ENDBRANCH  17  18
ENDBRANCH  12  15
ENDBRANCH   1  11
BRANCH   8  25
HETATM   25  C   UNL     1      27.362  41.474  48.370  1.00  0.00     0.270 C 
HETATM   26  N   UNL     1      26.091  41.979  48.383  1.00  0.00    -0.365 N 
HETATM   27  H   UNL     1      25.554  41.917  49.241  1.00  0.00     0.159 HD
HETATM   28  H   UNL     1      25.699  42.366  47.540  1.00  0.00     0.159 HD
HETATM   29  O   UNL     1      28.042  41.497  47.349  1.00  0.00    -0.266 OA
ENDBRANCH   8  25
TORSDOF 4
ENDMDL
MODEL 2
REMARK VINA RESULT:      -9.2      1.742      2.707
REMARK  4 active torsions:
REMARK  status: ('A' for Active; 'I' for Inactive)
REMARK    1  A    between atoms: C_2  and  C_3 
REMARK       I    between atoms: C_3  and  N_4 
REMARK    2  A    between atoms: N_4  and  C_5 
REMARK    3  A    between atoms: C_12  and  C_13 
REMARK       I    between atoms: C_13  and  N_14 
REMARK    4  A    between atoms: C_19  and  C_20 
ROOT
HETATM    1  C   UNL     1      26.169  43.831  51.680  1.00  0.00     0.036 A 
HETATM    2  C   UNL     1      27.031  42.810  51.254  1.00  0.00     0.046 A 
HETATM    3  C   UNL     1      26.528  41.762  50.453  1.00  0.00     0.030 A 
HETATM    4  C   UNL     1      25.187  41.782  50.090  1.00  0.00     0.063 A 
HETATM    5  N   UNL     1      25.004  40.669  49.317  1.00  0.00    -0.277 N 
HETATM    6  H   UNL     1      24.146  40.367  48.870  1.00  0.00     0.189 HD
HETATM    7  N   UNL     1      26.102  39.911  49.163  1.00  0.00    -0.168 NA
HETATM    8  C   UNL     1      27.052  40.571  49.865  1.00  0.00     0.156 A 
HETATM    9  C   UNL     1      24.301  42.782  50.493  1.00  0.00     0.034 A 
HETATM   10  C   UNL     1      24.820  43.798  51.305  1.00  0.00     0.032 A 
ENDROOT
BRANCH   1  11
HETATM   11  N   UNL     1      26.577  44.904  52.497  1.00  0.00    -0.323 N 
HETATM   12  C   UNL     1      26.388  45.040  53.855  1.00  0.00     0.251 C 
HETATM   13  O   UNL     1      25.921  44.224  54.638  1.00  0.00    -0.268 OA
HETATM   14  H   UNL     1      27.075  45.655  52.038  1.00  0.00     0.169 HD
BRANCH  12  15
HETATM   15  C   UNL     1      26.911  46.339  54.374  1.00  0.00     0.007 C 
HETATM   16  C   UNL     1      26.042  47.517  54.056  1.00  0.00     0.054 C 
HETATM   17  C   UNL     1      28.076  46.444  55.041  1.00  0.00     0.023 C 
BRANCH  17  18
HETATM   18  C   UNL     1      29.040  45.371  55.331  1.00  0.00    -0.034 A 
HETATM   19  C   UNL     1      29.802  45.444  56.505  1.00  0.00     0.035 A 
HETATM   20  C   UNL     1      30.750  44.458  56.786  1.00  0.00     0.034 A 
HETATM   21 CL   UNL     1      31.674  44.556  58.234  1.00  0.00    -0.084 Cl
HETATM   22  C   UNL     1      30.958  43.401  55.904  1.00  0.00     0.024 A 
HETATM   23  C   UNL     1      30.217  43.331  54.726  1.00  0.00     0.003 A 
HETATM   24  C   UNL     1      29.271  44.317  54.437  1.00  0.00     0.011 A 
ENDBRANCH  17  18
ENDBRANCH  12  15
ENDBRANCH   1  11
BRANCH   8  25
HETATM   25  C   UNL     1      28.421  40.047  49.968  1.00  0.00     0.270 C 
HETATM   26  N   UNL     1      28.847  39.846  51.253  1.00  0.00    -0.365 N 
HETATM   27  H   UNL     1      28.218  40.078  52.013  1.00  0.00     0.159 HD
HETATM   28  H   UNL     1      29.781  39.510  51.422  1.00  0.00     0.159 HD
HETATM   29  O   UNL     1      29.154  39.810  49.014  1.00  0.00    -0.266 OA
ENDBRANCH   8  25
TORSDOF 4
ENDMDL
MODEL 3
REMARK VINA RESULT:      -9.0      2.450      3.969
REMARK  4 active torsions:
REMARK  status: ('A' for Active; 'I' for Inactive)
REMARK    1  A    between atoms: C_2  and  C_3 
REMARK       I    between atoms: C_3  and  N_4 
REMARK    2  A    between atoms: N_4  and  C_5 
REMARK    3  A    between atoms: C_12  and  C_13 
REMARK       I    between atoms: C_13  and  N_14 
REMARK    4  A    between atoms: C_19  and  C_20 
ROOT
HETATM    1  C   UNL     1      26.964  41.509  50.041  1.00  0.00     0.036 A 
HETATM    2  C   UNL     1      27.680  40.360  50.405  1.00  0.00     0.046 A 
HETATM    3  C   UNL     1      28.206  39.520  49.399  1.00  0.00     0.030 A 
HETATM    4  C   UNL     1      28.014  39.866  48.068  1.00  0.00     0.063 A 
HETATM    5  N   UNL     1      28.638  38.888  47.345  1.00  0.00    -0.277 N 
HETATM    6  H   UNL     1      28.708  38.822  46.335  1.00  0.00     0.189 HD
HETATM    7  N   UNL     1      29.201  37.921  48.085  1.00  0.00    -0.168 NA
HETATM    8  C   UNL     1      28.937  38.293  49.359  1.00  0.00     0.156 A 
HETATM    9  C   UNL     1      27.307  41.002  47.669  1.00  0.00     0.034 A 
HETATM   10  C   UNL     1      26.777  41.807  48.685  1.00  0.00     0.032 A 
ENDROOT
BRANCH   1  11
HETATM   11  N   UNL     1      26.386  42.394  50.973  1.00  0.00    -0.323 N 
HETATM   12  C   UNL     1      26.792  43.676  51.272  1.00  0.00     0.251 C 
HETATM   13  O   UNL     1      27.665  44.338  50.727  1.00  0.00    -0.268 OA
HETATM   14  H   UNL     1      25.575  42.055  51.472  1.00  0.00     0.169 HD
BRANCH  12  15
HETATM   15  C   UNL     1      25.969  44.295  52.354  1.00  0.00     0.007 C 
HETATM   16  C   UNL     1      24.635  44.797  51.894  1.00  0.00     0.054 C 
HETATM   17  C   UNL     1      26.405  44.420  53.622  1.00  0.00     0.023 C 
BRANCH  17  18
HETATM   18  C   UNL     1      27.721  44.040  54.157  1.00  0.00    -0.034 A 
HETATM   19  C   UNL     1      28.439  44.973  54.917  1.00  0.00     0.035 A 
HETATM   20  C   UNL     1      29.707  44.652  55.406  1.00  0.00     0.034 A 
HETATM   21 CL   UNL     1      30.574  45.804  56.344  1.00  0.00    -0.084 Cl
HETATM   22  C   UNL     1      30.277  43.409  55.138  1.00  0.00     0.024 A 
HETATM   23  C   UNL     1      29.577  42.483  54.368  1.00  0.00     0.003 A 
HETATM   24  C   UNL     1      28.310  42.801  53.872  1.00  0.00     0.011 A 
ENDBRANCH  17  18
ENDBRANCH  12  15
ENDBRANCH   1  11
BRANCH   8  25
HETATM   25  C   UNL     1      29.374  37.471  50.496  1.00  0.00     0.270 C 
HETATM   26  N   UNL     1      28.522  36.445  50.803  1.00  0.00    -0.365 N 
HETATM   27  H   UNL     1      27.677  36.338  50.254  1.00  0.00     0.159 HD
HETATM   28  H   UNL     1      28.728  35.842  51.583  1.00  0.00     0.159 HD
HETATM   29  O   UNL     1      30.396  37.662  51.147  1.00  0.00    -0.266 OA
ENDBRANCH   8  25
TORSDOF 4
ENDMDL
MODEL 4
REMARK VINA RESULT:      -8.9      3.471      4.583
REMARK  4 active torsions:
REMARK  status: ('A' for Active; 'I' for Inactive)
REMARK    1  A    between atoms: C_2  and  C_3 
REMARK       I    between atoms: C_3  and  N_4 
REMARK    2  A    between atoms: N_4  and  C_5 
REMARK    3  A    between atoms: C_12  and  C_13 
REMARK       I    between atoms: C_13  and  N_14 
REMARK    4  A    between atoms: C_19  and  C_20 
ROOT
HETATM    1  C   UNL     1      25.975  45.746  51.500  1.00  0.00     0.036 A 
HETATM    2  C   UNL     1      24.815  46.200  50.856  1.00  0.00     0.046 A 
HETATM    3  C   UNL     1      24.352  45.530  49.703  1.00  0.00     0.030 A 
HETATM    4  C   UNL     1      25.051  44.420  49.246  1.00  0.00     0.063 A 
HETATM    5  N   UNL     1      24.365  43.987  48.146  1.00  0.00    -0.277 N 
HETATM    6  H   UNL     1      24.585  43.189  47.561  1.00  0.00     0.189 HD
HETATM    7  N   UNL     1      23.292  44.730  47.830  1.00  0.00    -0.168 NA
HETATM    8  C   UNL     1      23.274  45.692  48.780  1.00  0.00     0.156 A 
HETATM    9  C   UNL     1      26.207  43.940  49.863  1.00  0.00     0.034 A 
HETATM   10  C   UNL     1      26.659  44.634  50.991  1.00  0.00     0.032 A 
ENDROOT
BRANCH   1  11
HETATM   11  N   UNL     1      26.523  46.362  52.643  1.00  0.00    -0.323 N 
HETATM   12  C   UNL     1      26.242  46.080  53.961  1.00  0.00     0.251 C 
HETATM   13  O   UNL     1      25.542  45.182  54.409  1.00  0.00    -0.268 OA
HETATM   14  H   UNL     1      27.209  47.087  52.478  1.00  0.00     0.169 HD
BRANCH  12  15
HETATM   15  C   UNL     1      26.977  46.976  54.904  1.00  0.00     0.007 C 
HETATM   16  C   UNL     1      26.317  48.301  55.127  1.00  0.00     0.054 C 
HETATM   17  C   UNL     1      28.147  46.632  55.475  1.00  0.00     0.023 C 
BRANCH  17  18
HETATM   18  C   UNL     1      28.919  45.398  55.261  1.00  0.00    -0.034 A 
HETATM   19  C   UNL     1      29.939  45.071  56.164  1.00  0.00     0.035 A 
HETATM   20  C   UNL     1      30.712  43.926  55.963  1.00  0.00     0.034 A 
HETATM   21 CL   UNL     1      31.957  43.532  57.084  1.00  0.00    -0.084 Cl
HETATM   22  C   UNL     1      30.487  43.102  54.863  1.00  0.00     0.024 A 
HETATM   23  C   UNL     1      29.487  43.430  53.951  1.00  0.00     0.003 A 
HETATM   24  C   UNL     1      28.714  44.578  54.144  1.00  0.00     0.011 A 
ENDBRANCH  17  18
ENDBRANCH  12  15
ENDBRANCH   1  11
BRANCH   8  25
HETATM   25  C   UNL     1      22.245  46.742  48.777  1.00  0.00     0.270 C 
HETATM   26  N   UNL     1      20.962  46.267  48.792  1.00  0.00    -0.365 N 
HETATM   27  H   UNL     1      20.817  45.264  48.789  1.00  0.00     0.159 HD
HETATM   28  H   UNL     1      20.191  46.914  48.767  1.00  0.00     0.159 HD
HETATM   29  O   UNL     1      22.474  47.947  48.751  1.00  0.00    -0.266 OA
ENDBRANCH   8  25
TORSDOF 4
ENDMDL
MODEL 5
REMARK VINA RESULT:      -8.7      3.648      7.666
REMARK  4 active torsions:
REMARK  status: ('A' for Active; 'I' for Inactive)
REMARK    1  A    between atoms: C_2  and  C_3 
REMARK       I    between atoms: C_3  and  N_4 
REMARK    2  A    between atoms: N_4  and  C_5 
REMARK    3  A    between atoms: C_12  and  C_13 
REMARK       I    between atoms: C_13  and  N_14 
REMARK    4  A    between atoms: C_19  and  C_20 
ROOT
HETATM    1  C   UNL     1      28.103  44.963  53.913  1.00  0.00     0.036 A 
HETATM    2  C   UNL     1      29.098  44.493  54.782  1.00  0.00     0.046 A 
HETATM    3  C   UNL     1      29.299  45.136  56.023  1.00  0.00     0.030 A 
HETATM    4  C   UNL     1      28.488  46.212  56.359  1.00  0.00     0.063 A 
HETATM    5  N   UNL     1      28.903  46.606  57.600  1.00  0.00    -0.277 N 
HETATM    6  H   UNL     1      28.527  47.362  58.162  1.00  0.00     0.189 HD
HETATM    7  N   UNL     1      29.930  45.897  58.095  1.00  0.00    -0.168 NA
HETATM    8  C   UNL     1      30.191  44.987  57.128  1.00  0.00     0.156 A 
HETATM    9  C   UNL     1      27.487  46.706  55.519  1.00  0.00     0.034 A 
HETATM   10  C   UNL     1      27.322  46.065  54.286  1.00  0.00     0.032 A 
ENDROOT
BRANCH   1  11
HETATM   11  N   UNL     1      27.844  44.398  52.648  1.00  0.00    -0.323 N 
HETATM   12  C   UNL     1      26.673  43.816  52.215  1.00  0.00     0.251 C 
HETATM   13  O   UNL     1      25.599  43.758  52.797  1.00  0.00    -0.268 OA
HETATM   14  H   UNL     1      28.600  44.433  51.977  1.00  0.00     0.169 HD
BRANCH  12  15
HETATM   15  C   UNL     1      26.785  43.278  50.826  1.00  0.00     0.007 C 
HETATM   16  C   UNL     1      27.298  41.872  50.756  1.00  0.00     0.054 C 
HETATM   17  C   UNL     1      26.481  44.005  49.735  1.00  0.00     0.023 C 
BRANCH  17  18
HETATM   18  C   UNL     1      26.051  45.411  49.688  1.00  0.00    -0.034 A 
HETATM   19  C   UNL     1      27.020  46.411  49.528  1.00  0.00     0.035 A 
HETATM   20  C   UNL     1      26.644  47.756  49.518  1.00  0.00     0.034 A 
HETATM   21 CL   UNL     1      27.843  48.973  49.315  1.00  0.00    -0.084 Cl
HETATM   22  C   UNL     1      25.308  48.120  49.674  1.00  0.00     0.024 A 
HETATM   23  C   UNL     1      24.342  47.133  49.851  1.00  0.00     0.003 A 
HETATM   24  C   UNL     1      24.713  45.786  49.868  1.00  0.00     0.011 A 
ENDBRANCH  17  18
ENDBRANCH  12  15
ENDBRANCH   1  11
BRANCH   8  25
HETATM   25  C   UNL     1      31.283  44.015  57.275  1.00  0.00     0.270 C 
HETATM   26  N   UNL     1      31.261  43.006  56.352  1.00  0.00    -0.365 N 
HETATM   27  H   UNL     1      30.514  42.993  55.668  1.00  0.00     0.159 HD
HETATM   28  H   UNL     1      31.958  42.280  56.390  1.00  0.00     0.159 HD
HETATM   29  O   UNL     1      32.149  44.062  58.143  1.00  0.00    -0.266 OA
ENDBRANCH   8  25
TORSDOF 4
ENDMDL
MODEL 6
REMARK VINA RESULT:      -8.6      4.963      6.962
REMARK  4 active torsions:
REMARK  status: ('A' for Active; 'I' for Inactive)
REMARK    1  A    between atoms: C_2  and  C_3 
REMARK       I    between atoms: C_3  and  N_4 
REMARK    2  A    between atoms: N_4  and  C_5 
REMARK    3  A    between atoms: C_12  and  C_13 
REMARK       I    between atoms: C_13  and  N_14 
REMARK    4  A    between atoms: C_19  and  C_20 
ROOT
HETATM    1  C   UNL     1      25.375  46.843  50.119  1.00  0.00     0.036 A 
HETATM    2  C   UNL     1      24.121  47.253  49.646  1.00  0.00     0.046 A 
HETATM    3  C   UNL     1      24.011  48.461  48.923  1.00  0.00     0.030 A 
HETATM    4  C   UNL     1      25.159  49.205  48.682  1.00  0.00     0.063 A 
HETATM    5  N   UNL     1      24.744  50.289  47.961  1.00  0.00    -0.277 N 
HETATM    6  H   UNL     1      25.319  51.044  47.601  1.00  0.00     0.189 HD
HETATM    7  N   UNL     1      23.422  50.331  47.728  1.00  0.00    -0.168 NA
HETATM    8  C   UNL     1      22.953  49.210  48.323  1.00  0.00     0.156 A 
HETATM    9  C   UNL     1      26.423  48.826  49.136  1.00  0.00     0.034 A 
HETATM   10  C   UNL     1      26.503  47.636  49.870  1.00  0.00     0.032 A 
ENDROOT
BRANCH   1  11
HETATM   11  N   UNL     1      25.578  45.665  50.866  1.00  0.00    -0.323 N 
HETATM   12  C   UNL     1      26.622  44.773  50.754  1.00  0.00     0.251 C 
HETATM   13  O   UNL     1      27.625  44.868  50.061  1.00  0.00    -0.268 OA
HETATM   14  H   UNL     1      24.886  45.456  51.573  1.00  0.00     0.169 HD
BRANCH  12  15
HETATM   15  C   UNL     1      26.476  43.608  51.678  1.00  0.00     0.007 C 
HETATM   16  C   UNL     1      25.948  42.370  51.020  1.00  0.00     0.054 C 
HETATM   17  C   UNL     1      26.764  43.678  52.991  1.00  0.00     0.023 C 
BRANCH  17  18
HETATM   18  C   UNL     1      27.205  44.858  53.749  1.00  0.00    -0.034 A 
HETATM   19  C   UNL     1      28.424  44.804  54.440  1.00  0.00     0.035 A 
HETATM   20  C   UNL     1      28.848  45.897  55.197  1.00  0.00     0.034 A 
HETATM   21 CL   UNL     1      30.349  45.821  56.035  1.00  0.00    -0.084 Cl
HETATM   22  C   UNL     1      28.067  47.047  55.285  1.00  0.00     0.024 A 
HETATM   23  C   UNL     1      26.846  47.102  54.616  1.00  0.00     0.003 A 
HETATM   24  C   UNL     1      26.413  46.009  53.860  1.00  0.00     0.011 A 
ENDBRANCH  17  18
ENDBRANCH  12  15
ENDBRANCH   1  11
BRANCH   8  25
HETATM   25  C   UNL     1      21.519  48.890  48.316  1.00  0.00     0.270 C 
HETATM   26  N   UNL     1      20.966  48.775  49.562  1.00  0.00    -0.365 N 
HETATM   27  H   UNL     1      21.565  48.899  50.370  1.00  0.00     0.159 HD
HETATM   28  H   UNL     1      19.993  48.535  49.656  1.00  0.00     0.159 HD
HETATM   29  O   UNL     1      20.844  48.721  47.305  1.00  0.00    -0.266 OA
ENDBRANCH   8  25
TORSDOF 4
ENDMDL
MODEL 7
REMARK VINA RESULT:      -8.6      6.742      9.854
REMARK  4 active torsions:
REMARK  status: ('A' for Active; 'I' for Inactive)
REMARK    1  A    between atoms: C_2  and  C_3 
REMARK       I    between atoms: C_3  and  N_4 
REMARK    2  A    between atoms: N_4  and  C_5 
REMARK    3  A    between atoms: C_12  and  C_13 
REMARK       I    between atoms: C_13  and  N_14 
REMARK    4  A    between atoms: C_19  and  C_20 
ROOT
HETATM    1  C   UNL     1      24.802  46.918  50.319  1.00  0.00     0.036 A 
HETATM    2  C   UNL     1      25.374  47.106  51.585  1.00  0.00     0.046 A 
HETATM    3  C   UNL     1      25.425  46.025  52.492  1.00  0.00     0.030 A 
HETATM    4  C   UNL     1      24.921  44.793  52.096  1.00  0.00     0.063 A 
HETATM    5  N   UNL     1      25.122  43.959  53.161  1.00  0.00    -0.277 N 
HETATM    6  H   UNL     1      24.883  42.976  53.223  1.00  0.00     0.189 HD
HETATM    7  N   UNL     1      25.692  44.544  54.227  1.00  0.00    -0.168 NA
HETATM    8  C   UNL     1      25.880  45.824  53.831  1.00  0.00     0.156 A 
HETATM    9  C   UNL     1      24.346  44.570  50.844  1.00  0.00     0.034 A 
HETATM   10  C   UNL     1      24.287  45.663  49.970  1.00  0.00     0.032 A 
ENDROOT
BRANCH   1  11
HETATM   11  N   UNL     1      24.688  47.942  49.356  1.00  0.00    -0.323 N 
HETATM   12  C   UNL     1      23.832  49.021  49.380  1.00  0.00     0.251 C 
HETATM   13  O   UNL     1      23.073  49.363  50.276  1.00  0.00    -0.268 OA
HETATM   14  H   UNL     1      25.313  47.885  48.563  1.00  0.00     0.169 HD
BRANCH  12  15
HETATM   15  C   UNL     1      23.957  49.873  48.160  1.00  0.00     0.007 C 
HETATM   16  C   UNL     1      25.371  50.193  47.781  1.00  0.00     0.054 C 
HETATM   17  C   UNL     1      22.891  50.339  47.482  1.00  0.00     0.023 C 
BRANCH  17  18
HETATM   18  C   UNL     1      21.470  50.156  47.814  1.00  0.00    -0.034 A 
HETATM   19  C   UNL     1      20.784  51.197  48.454  1.00  0.00     0.035 A 
HETATM   20  C   UNL     1      19.445  51.036  48.814  1.00  0.00     0.034 A 
HETATM   21 CL   UNL     1      18.612  52.325  49.593  1.00  0.00    -0.084 Cl
HETATM   22  C   UNL     1      18.778  49.841  48.553  1.00  0.00     0.024 A 
HETATM   23  C   UNL     1      19.458  48.795  47.934  1.00  0.00     0.003 A 
HETATM   24  C   UNL     1      20.800  48.949  47.576  1.00  0.00     0.011 A 
ENDBRANCH  17  18
ENDBRANCH  12  15
ENDBRANCH   1  11
BRANCH   8  25
HETATM   25  C   UNL     1      26.472  46.819  54.737  1.00  0.00     0.270 C 
HETATM   26  N   UNL     1      27.730  46.501  55.170  1.00  0.00    -0.365 N 
HETATM   27  H   UNL     1      28.142  45.629  54.860  1.00  0.00     0.159 HD
HETATM   28  H   UNL     1      28.205  47.113  55.813  1.00  0.00     0.159 HD
HETATM   29  O   UNL     1      25.916  47.848  55.106  1.00  0.00    -0.266 OA
ENDBRANCH   8  25
TORSDOF 4
ENDMDL
MODEL 8
REMARK VINA RESULT:      -8.6      8.647     11.511
REMARK  4 active torsions:
REMARK  status: ('A' for Active; 'I' for Inactive)
REMARK    1  A    between atoms: C_2  and  C_3 
REMARK       I    between atoms: C_3  and  N_4 
REMARK    2  A    between atoms: N_4  and  C_5 
REMARK    3  A    between atoms: C_12  and  C_13 
REMARK       I    between atoms: C_13  and  N_14 
REMARK    4  A    between atoms: C_19  and  C_20 
ROOT
HETATM    1  C   UNL     1      22.497  48.599  48.925  1.00  0.00     0.036 A 
HETATM    2  C   UNL     1      23.617  47.857  49.327  1.00  0.00     0.046 A 
HETATM    3  C   UNL     1      24.910  48.393  49.144  1.00  0.00     0.030 A 
HETATM    4  C   UNL     1      25.038  49.658  48.584  1.00  0.00     0.063 A 
HETATM    5  N   UNL     1      26.382  49.905  48.551  1.00  0.00    -0.277 N 
HETATM    6  H   UNL     1      26.843  50.742  48.212  1.00  0.00     0.189 HD
HETATM    7  N   UNL     1      27.145  48.904  49.018  1.00  0.00    -0.168 NA
HETATM    8  C   UNL     1      26.249  47.958  49.383  1.00  0.00     0.156 A 
HETATM    9  C   UNL     1      23.946  50.425  48.174  1.00  0.00     0.034 A 
HETATM   10  C   UNL     1      22.676  49.863  48.346  1.00  0.00     0.032 A 
ENDROOT
BRANCH   1  11
HETATM   11  N   UNL     1      21.171  48.138  49.048  1.00  0.00    -0.323 N 
HETATM   12  C   UNL     1      20.341  47.700  48.040  1.00  0.00     0.251 C 
HETATM   13  O   UNL     1      20.611  47.530  46.859  1.00  0.00    -0.268 OA
HETATM   14  H   UNL     1      20.789  48.114  49.984  1.00  0.00     0.169 HD
BRANCH  12  15
HETATM   15  C   UNL     1      18.982  47.335  48.541  1.00  0.00     0.007 C 
HETATM   16  C   UNL     1      18.724  45.861  48.588  1.00  0.00     0.054 C 
HETATM   17  C   UNL     1      18.060  48.254  48.888  1.00  0.00     0.023 C 
BRANCH  17  18
HETATM   18  C   UNL     1      18.180  49.718  48.800  1.00  0.00    -0.034 A 
HETATM   19  C   UNL     1      17.855  50.354  47.595  1.00  0.00     0.035 A 
HETATM   20  C   UNL     1      17.995  51.738  47.473  1.00  0.00     0.034 A 
HETATM   21 CL   UNL     1      17.587  52.507  45.989  1.00  0.00    -0.084 Cl
HETATM   22  C   UNL     1      18.466  52.500  48.540  1.00  0.00     0.024 A 
HETATM   23  C   UNL     1      18.808  51.873  49.736  1.00  0.00     0.003 A 
HETATM   24  C   UNL     1      18.675  50.488  49.861  1.00  0.00     0.011 A 
ENDBRANCH  17  18
ENDBRANCH  12  15
ENDBRANCH   1  11
BRANCH   8  25
HETATM   25  C   UNL     1      26.689  46.668  49.934  1.00  0.00     0.270 C 
HETATM   26  N   UNL     1      26.249  46.425  51.206  1.00  0.00    -0.365 N 
HETATM   27  H   UNL     1      25.685  47.130  51.666  1.00  0.00     0.159 HD
HETATM   28  H   UNL     1      26.521  45.576  51.674  1.00  0.00     0.159 HD
HETATM   29  O   UNL     1      27.399  45.861  49.343  1.00  0.00    -0.266 OA
ENDBRANCH   8  25
TORSDOF 4
ENDMDL
MODEL 9
REMARK VINA RESULT:      -8.5      3.840      7.323
REMARK  4 active torsions:
REMARK  status: ('A' for Active; 'I' for Inactive)
REMARK    1  A    between atoms: C_2  and  C_3 
REMARK       I    between atoms: C_3  and  N_4 
REMARK    2  A    between atoms: N_4  and  C_5 
REMARK    3  A    between atoms: C_12  and  C_13 
REMARK       I    between atoms: C_13  and  N_14 
REMARK    4  A    between atoms: C_19  and  C_20 
ROOT
HETATM    1  C   UNL     1      28.333  43.420  52.680  1.00  0.00     0.036 A 
HETATM    2  C   UNL     1      28.200  44.380  53.693  1.00  0.00     0.046 A 
HETATM    3  C   UNL     1      29.179  44.463  54.706  1.00  0.00     0.030 A 
HETATM    4  C   UNL     1      30.265  43.598  54.662  1.00  0.00     0.063 A 
HETATM    5  N   UNL     1      31.033  43.924  55.744  1.00  0.00    -0.277 N 
HETATM    6  H   UNL     1      31.912  43.501  56.022  1.00  0.00     0.189 HD
HETATM    7  N   UNL     1      30.534  44.910  56.506  1.00  0.00    -0.168 NA
HETATM    8  C   UNL     1      29.384  45.251  55.880  1.00  0.00     0.156 A 
HETATM    9  C   UNL     1      30.430  42.631  53.668  1.00  0.00     0.034 A 
HETATM   10  C   UNL     1      29.434  42.554  52.687  1.00  0.00     0.032 A 
ENDROOT
BRANCH   1  11
HETATM   11  N   UNL     1      27.396  43.250  51.641  1.00  0.00    -0.323 N 
HETATM   12  C   UNL     1      26.032  43.427  51.707  1.00  0.00     0.251 C 
HETATM   13  O   UNL     1      25.371  43.859  52.642  1.00  0.00    -0.268 OA
HETATM   14  H   UNL     1      27.767  42.977  50.741  1.00  0.00     0.169 HD
BRANCH  12  15
HETATM   15  C   UNL     1      25.352  43.103  50.417  1.00  0.00     0.007 C 
HETATM   16  C   UNL     1      25.121  41.639  50.200  1.00  0.00     0.054 C 
HETATM   17  C   UNL     1      25.010  44.043  49.516  1.00  0.00     0.023 C 
BRANCH  17  18
HETATM   18  C   UNL     1      25.266  45.490  49.591  1.00  0.00    -0.034 A 
HETATM   19  C   UNL     1      24.179  46.374  49.550  1.00  0.00     0.035 A 
HETATM   20  C   UNL     1      24.396  47.753  49.582  1.00  0.00     0.034 A 
HETATM   21 CL   UNL     1      23.052  48.827  49.538  1.00  0.00    -0.084 Cl
HETATM   22  C   UNL     1      25.689  48.266  49.644  1.00  0.00     0.024 A 
HETATM   23  C   UNL     1      26.776  47.395  49.668  1.00  0.00     0.003 A 
HETATM   24  C   UNL     1      26.565  46.014  49.630  1.00  0.00     0.011 A 
ENDBRANCH  17  18
ENDBRANCH  12  15
ENDBRANCH   1  11
BRANCH   8  25
HETATM   25  C   UNL     1      28.508  46.300  56.421  1.00  0.00     0.270 C 
HETATM   26  N   UNL     1      27.993  47.141  55.472  1.00  0.00    -0.365 N 
HETATM   27  H   UNL     1      28.252  46.994  54.503  1.00  0.00     0.159 HD
HETATM   28  H   UNL     1      27.400  47.905  55.752  1.00  0.00     0.159 HD
HETATM   29  O   UNL     1      28.248  46.452  57.610  1.00  0.00    -0.266 OA
ENDBRANCH   8  25
TORSDOF 4
ENDMDL
MODEL 10
REMARK VINA RESULT:      -8.5      2.957      7.598
REMARK  4 active torsions:
REMARK  status: ('A' for Active; 'I' for Inactive)
REMARK    1  A    between atoms: C_2  and  C_3 
REMARK       I    between atoms: C_3  and  N_4 
REMARK    2  A    between atoms: N_4  and  C_5 
REMARK    3  A    between atoms: C_12  and  C_13 
REMARK       I    between atoms: C_13  and  N_14 
REMARK    4  A    between atoms: C_19  and  C_20 
ROOT
HETATM    1  C   UNL     1      27.982  42.950  53.076  1.00  0.00     0.036 A 
HETATM    2  C   UNL     1      27.936  43.991  54.014  1.00  0.00     0.046 A 
HETATM    3  C   UNL     1      29.073  44.266  54.804  1.00  0.00     0.030 A 
HETATM    4  C   UNL     1      30.220  43.505  54.617  1.00  0.00     0.063 A 
HETATM    5  N   UNL     1      31.137  44.007  55.497  1.00  0.00    -0.277 N 
HETATM    6  H   UNL     1      32.094  43.698  55.630  1.00  0.00     0.189 HD
HETATM    7  N   UNL     1      30.684  45.015  56.260  1.00  0.00    -0.168 NA
HETATM    8  C   UNL     1      29.406  45.182  55.848  1.00  0.00     0.156 A 
HETATM    9  C   UNL     1      30.301  42.462  53.692  1.00  0.00     0.034 A 
HETATM   10  C   UNL     1      29.154  42.195  52.936  1.00  0.00     0.032 A 
ENDROOT
BRANCH   1  11
HETATM   11  N   UNL     1      26.891  42.590  52.259  1.00  0.00    -0.323 N 
HETATM   12  C   UNL     1      26.540  43.136  51.044  1.00  0.00     0.251 C 
HETATM   13  O   UNL     1      27.149  43.968  50.386  1.00  0.00    -0.268 OA
HETATM   14  H   UNL     1      26.306  41.837  52.595  1.00  0.00     0.169 HD
BRANCH  12  15
HETATM   15  C   UNL     1      25.289  42.536  50.490  1.00  0.00     0.007 C 
HETATM   16  C   UNL     1      24.031  43.168  51.001  1.00  0.00     0.054 C 
HETATM   17  C   UNL     1      25.295  41.497  49.634  1.00  0.00     0.023 C 
BRANCH  17  18
HETATM   18  C   UNL     1      26.463  40.753  49.138  1.00  0.00    -0.034 A 
HETATM   19  C   UNL     1      26.826  39.559  49.774  1.00  0.00     0.035 A 
HETATM   20  C   UNL     1      27.952  38.852  49.347  1.00  0.00     0.034 A 
HETATM   21 CL   UNL     1      28.384  37.383  50.132  1.00  0.00    -0.084 Cl
HETATM   22  C   UNL     1      28.732  39.327  48.294  1.00  0.00     0.024 A 
HETATM   23  C   UNL     1      28.387  40.523  47.668  1.00  0.00     0.003 A 
HETATM   24  C   UNL     1      27.264  41.237  48.095  1.00  0.00     0.011 A 
ENDBRANCH  17  18
ENDBRANCH  12  15
ENDBRANCH   1  11
BRANCH   8  25
HETATM   25  C   UNL     1      28.537  46.195  56.463  1.00  0.00     0.270 C 
HETATM   26  N   UNL     1      27.953  47.049  55.567  1.00  0.00    -0.365 N 
HETATM   27  H   UNL     1      28.164  46.936  54.583  1.00  0.00     0.159 HD
HETATM   28  H   UNL     1      27.359  47.791  55.900  1.00  0.00     0.159 HD
HETATM   29  O   UNL     1      28.338  46.308  57.668  1.00  0.00    -0.266 OA
ENDBRANCH   8  25
TORSDOF 4
ENDMDL
