MODEL 1
REMARK VINA RESULT:      -8.5      0.000      0.000
REMARK  4 active torsions:
REMARK  status: ('A' for Active; 'I' for Inactive)
REMARK    1  A    between atoms: C_6  and  N_7 
REMARK       I    between atoms: N_7  and  C_8 
REMARK    2  A    between atoms: C_8  and  C_9 
REMARK    3  A    between atoms: C_10  and  C_11 
REMARK    4  A    between atoms: C_12  and  O_13 
ROOT
HETATM    1  C   UNL     1      28.279  42.342  51.833  1.00  0.00     0.063 C 
HETATM    2  C   UNL     1      27.697  43.073  50.627  1.00  0.00     0.205 C 
HETATM    3  N   UNL     1      27.083  42.117  49.694  1.00  0.00    -0.084 N 
HETATM    4  C   UNL     1      26.862  40.795  49.985  1.00  0.00     0.725 A 
HETATM    5  N   UNL     1      27.253  40.305  51.178  1.00  0.00    -0.192 N 
HETATM    6  N   UNL     1      26.735  42.399  48.420  1.00  0.00    -0.149 NA
HETATM    7  C   UNL     1      26.239  41.218  48.033  1.00  0.00     0.275 A 
HETATM    8  N   UNL     1      26.302  40.209  48.958  1.00  0.00    -0.054 NA
HETATM    9  C   UNL     1      28.018  41.035  52.081  1.00  0.00     0.037 C 
HETATM   10  C   UNL     1      28.502  40.283  53.294  1.00  0.00     0.070 C 
HETATM   11  H   UNL     1      27.118  39.315  51.362  1.00  0.00     0.184 HD
ENDROOT
BRANCH   1  12
HETATM   12  C   UNL     1      29.197  43.143  52.680  1.00  0.00     0.256 C 
HETATM   13  N   UNL     1      28.627  43.450  53.900  1.00  0.00    -0.323 N 
HETATM   14  H   UNL     1      27.677  43.138  54.043  1.00  0.00     0.169 HD
HETATM   15  O   UNL     1      30.304  43.448  52.264  1.00  0.00    -0.267 OA
BRANCH  13  16
HETATM   16  C   UNL     1      29.214  44.158  54.976  1.00  0.00     0.041 A 
HETATM   17  C   UNL     1      28.602  45.351  55.421  1.00  0.00    -0.035 A 
HETATM   18  C   UNL     1      29.159  46.050  56.508  1.00  0.00     0.015 A 
HETATM   19  C   UNL     1      27.365  45.914  54.774  1.00  0.00     0.050 C 
HETATM   20  C   UNL     1      30.317  45.597  57.148  1.00  0.00    -0.061 A 
HETATM   21  C   UNL     1      30.875  46.330  58.331  1.00  0.00     0.048 C 
HETATM   22  C   UNL     1      30.909  44.414  56.706  1.00  0.00     0.009 A 
HETATM   23  C   UNL     1      30.366  43.707  55.628  1.00  0.00     0.030 A 
ENDBRANCH  13  16
ENDBRANCH   1  12
BRANCH   2  24
HETATM   24  C   UNL     1      26.677  44.146  50.998  1.00  0.00     0.005 A 
HETATM   25  C   UNL     1      26.704  45.412  50.380  1.00  0.00     0.076 A 
HETATM   26  C   UNL     1      25.758  46.379  50.741  1.00  0.00     0.037 A 
HETATM   27  C   UNL     1      24.782  46.097  51.699  1.00  0.00     0.003 A 
HETATM   28  C   UNL     1      24.741  44.848  52.307  1.00  0.00     0.001 A 
HETATM   29  C   UNL     1      25.680  43.879  51.961  1.00  0.00     0.012 A 
BRANCH  25  30
HETATM   30  O   UNL     1      27.696  45.611  49.456  1.00  0.00    -0.355 OA
HETATM   31  C   UNL     1      28.000  46.955  49.105  1.00  0.00     0.210 C 
ENDBRANCH  25  30
ENDBRANCH   2  24
TORSDOF 4
ENDMDL
MODEL 2
REMARK VINA RESULT:      -8.2      1.987      4.244
REMARK  4 active torsions:
REMARK  status: ('A' for Active; 'I' for Inactive)
REMARK    1  A    between atoms: C_6  and  N_7 
REMARK       I    between atoms: N_7  and  C_8 
REMARK    2  A    between atoms: C_8  and  C_9 
REMARK    3  A    between atoms: C_10  and  C_11 
REMARK    4  A    between atoms: C_12  and  O_13 
ROOT
HETATM    1  C   UNL     1      26.596  43.978  50.465  1.00  0.00     0.063 C 
HETATM    2  C   UNL     1      26.033  42.562  50.395  1.00  0.00     0.205 C 
HETATM    3  N   UNL     1      24.801  42.538  49.593  1.00  0.00    -0.084 N 
HETATM    4  C   UNL     1      24.361  43.590  48.831  1.00  0.00     0.725 A 
HETATM    5  N   UNL     1      25.061  44.742  48.824  1.00  0.00    -0.192 N 
HETATM    6  N   UNL     1      23.917  41.517  49.569  1.00  0.00    -0.149 NA
HETATM    7  C   UNL     1      23.012  41.995  48.708  1.00  0.00     0.275 A 
HETATM    8  N   UNL     1      23.243  43.262  48.237  1.00  0.00    -0.054 NA
HETATM    9  C   UNL     1      26.132  44.980  49.678  1.00  0.00     0.037 C 
HETATM   10  C   UNL     1      26.701  46.376  49.650  1.00  0.00     0.070 C 
HETATM   11  H   UNL     1      24.701  45.523  48.285  1.00  0.00     0.184 HD
ENDROOT
BRANCH   1  12
HETATM   12  C   UNL     1      27.643  44.196  51.494  1.00  0.00     0.256 C 
HETATM   13  N   UNL     1      27.117  44.747  52.646  1.00  0.00    -0.323 N 
HETATM   14  H   UNL     1      26.130  44.962  52.632  1.00  0.00     0.169 HD
HETATM   15  O   UNL     1      28.803  43.895  51.261  1.00  0.00    -0.267 OA
BRANCH  13  16
HETATM   16  C   UNL     1      27.798  45.052  53.849  1.00  0.00     0.041 A 
HETATM   17  C   UNL     1      27.442  46.223  54.555  1.00  0.00    -0.035 A 
HETATM   18  C   UNL     1      28.092  46.525  55.766  1.00  0.00     0.015 A 
HETATM   19  C   UNL     1      26.385  47.174  54.060  1.00  0.00     0.050 C 
HETATM   20  C   UNL     1      29.096  45.698  56.278  1.00  0.00    -0.061 A 
HETATM   21  C   UNL     1      29.751  46.010  57.591  1.00  0.00     0.048 C 
HETATM   22  C   UNL     1      29.435  44.541  55.578  1.00  0.00     0.009 A 
HETATM   23  C   UNL     1      28.797  44.226  54.373  1.00  0.00     0.030 A 
ENDBRANCH  13  16
ENDBRANCH   1  12
BRANCH   2  24
HETATM   24  C   UNL     1      27.021  41.539  49.838  1.00  0.00     0.005 A 
HETATM   25  C   UNL     1      27.690  40.642  50.694  1.00  0.00     0.076 A 
HETATM   26  C   UNL     1      28.592  39.716  50.158  1.00  0.00     0.037 A 
HETATM   27  C   UNL     1      28.827  39.666  48.782  1.00  0.00     0.003 A 
HETATM   28  C   UNL     1      28.165  40.541  47.929  1.00  0.00     0.001 A 
HETATM   29  C   UNL     1      27.268  41.471  48.451  1.00  0.00     0.012 A 
BRANCH  25  30
HETATM   30  O   UNL     1      27.408  40.760  52.031  1.00  0.00    -0.355 OA
HETATM   31  C   UNL     1      28.512  40.813  52.926  1.00  0.00     0.210 C 
ENDBRANCH  25  30
ENDBRANCH   2  24
TORSDOF 4
ENDMDL
MODEL 3
REMARK VINA RESULT:      -8.2      2.439      4.192
REMARK  4 active torsions:
REMARK  status: ('A' for Active; 'I' for Inactive)
REMARK    1  A    between atoms: C_6  and  N_7 
REMARK       I    between atoms: N_7  and  C_8 
REMARK    2  A    between atoms: C_8  and  C_9 
REMARK    3  A    between atoms: C_10  and  C_11 
REMARK    4  A    between atoms: C_12  and  O_13 
ROOT
HETATM    1  C   UNL     1      25.211  44.539  52.073  1.00  0.00     0.063 C 
HETATM    2  C   UNL     1      24.637  43.329  51.344  1.00  0.00     0.205 C 
HETATM    3  N   UNL     1      23.627  43.752  50.363  1.00  0.00    -0.084 N 
HETATM    4  C   UNL     1      23.411  45.056  49.998  1.00  0.00     0.725 A 
HETATM    5  N   UNL     1      24.129  46.035  50.584  1.00  0.00    -0.192 N 
HETATM    6  N   UNL     1      22.743  42.927  49.762  1.00  0.00    -0.149 NA
HETATM    7  C   UNL     1      22.080  43.795  48.990  1.00  0.00     0.275 A 
HETATM    8  N   UNL     1      22.454  45.109  49.108  1.00  0.00    -0.054 NA
HETATM    9  C   UNL     1      24.976  45.809  51.663  1.00  0.00     0.037 C 
HETATM   10  C   UNL     1      25.578  47.036  52.298  1.00  0.00     0.070 C 
HETATM   11  H   UNL     1      23.929  46.999  50.331  1.00  0.00     0.184 HD
ENDROOT
BRANCH   1  12
HETATM   12  C   UNL     1      25.993  44.231  53.297  1.00  0.00     0.256 C 
HETATM   13  N   UNL     1      27.349  44.388  53.088  1.00  0.00    -0.323 N 
HETATM   14  H   UNL     1      27.633  44.644  52.152  1.00  0.00     0.169 HD
HETATM   15  O   UNL     1      25.420  43.888  54.319  1.00  0.00    -0.267 OA
BRANCH  13  16
HETATM   16  C   UNL     1      28.395  44.228  54.028  1.00  0.00     0.041 A 
HETATM   17  C   UNL     1      29.237  43.099  53.925  1.00  0.00    -0.035 A 
HETATM   18  C   UNL     1      30.297  42.940  54.837  1.00  0.00     0.015 A 
HETATM   19  C   UNL     1      29.045  42.043  52.869  1.00  0.00     0.050 C 
HETATM   20  C   UNL     1      30.525  43.872  55.855  1.00  0.00    -0.061 A 
HETATM   21  C   UNL     1      31.684  43.712  56.793  1.00  0.00     0.048 C 
HETATM   22  C   UNL     1      29.693  44.987  55.943  1.00  0.00     0.009 A 
HETATM   23  C   UNL     1      28.636  45.159  55.044  1.00  0.00     0.030 A 
ENDBRANCH  13  16
ENDBRANCH   1  12
BRANCH   2  24
HETATM   24  C   UNL     1      25.695  42.477  50.648  1.00  0.00     0.005 A 
HETATM   25  C   UNL     1      26.530  43.031  49.657  1.00  0.00     0.076 A 
HETATM   26  C   UNL     1      27.491  42.227  49.032  1.00  0.00     0.037 A 
HETATM   27  C   UNL     1      27.637  40.884  49.391  1.00  0.00     0.003 A 
HETATM   28  C   UNL     1      26.825  40.332  50.373  1.00  0.00     0.001 A 
HETATM   29  C   UNL     1      25.861  41.120  50.998  1.00  0.00     0.012 A 
BRANCH  25  30
HETATM   30  O   UNL     1      26.319  44.352  49.360  1.00  0.00    -0.355 OA
HETATM   31  C   UNL     1      27.398  45.251  49.588  1.00  0.00     0.210 C 
ENDBRANCH  25  30
ENDBRANCH   2  24
TORSDOF 4
ENDMDL
MODEL 4
REMARK VINA RESULT:      -8.0      6.995      9.903
REMARK  4 active torsions:
REMARK  status: ('A' for Active; 'I' for Inactive)
REMARK    1  A    between atoms: C_6  and  N_7 
REMARK       I    between atoms: N_7  and  C_8 
REMARK    2  A    between atoms: C_8  and  C_9 
REMARK    3  A    between atoms: C_10  and  C_11 
REMARK    4  A    between atoms: C_12  and  O_13 
ROOT
HETATM    1  C   UNL     1      21.525  49.233  48.501  1.00  0.00     0.063 C 
HETATM    2  C   UNL     1      20.087  48.809  48.785  1.00  0.00     0.205 C 
HETATM    3  N   UNL     1      19.287  49.965  49.216  1.00  0.00    -0.084 N 
HETATM    4  C   UNL     1      19.716  51.265  49.144  1.00  0.00     0.725 A 
HETATM    5  N   UNL     1      20.956  51.529  48.687  1.00  0.00    -0.192 N 
HETATM    6  N   UNL     1      18.073  49.885  49.803  1.00  0.00    -0.149 NA
HETATM    7  C   UNL     1      17.801  51.183  49.983  1.00  0.00     0.275 A 
HETATM    8  N   UNL     1      18.781  52.059  49.599  1.00  0.00    -0.054 NA
HETATM    9  C   UNL     1      21.894  50.535  48.429  1.00  0.00     0.037 C 
HETATM   10  C   UNL     1      23.280  51.011  48.078  1.00  0.00     0.070 C 
HETATM   11  H   UNL     1      21.273  52.494  48.678  1.00  0.00     0.184 HD
ENDROOT
BRANCH   1  12
HETATM   12  C   UNL     1      22.501  48.122  48.372  1.00  0.00     0.256 C 
HETATM   13  N   UNL     1      23.213  47.932  49.540  1.00  0.00    -0.323 N 
HETATM   14  H   UNL     1      23.018  48.573  50.295  1.00  0.00     0.169 HD
HETATM   15  O   UNL     1      22.593  47.508  47.320  1.00  0.00    -0.267 OA
BRANCH  13  16
HETATM   16  C   UNL     1      24.193  46.945  49.805  1.00  0.00     0.041 A 
HETATM   17  C   UNL     1      25.558  47.298  49.712  1.00  0.00    -0.035 A 
HETATM   18  C   UNL     1      26.542  46.334  50.000  1.00  0.00     0.015 A 
HETATM   19  C   UNL     1      26.010  48.677  49.313  1.00  0.00     0.050 C 
HETATM   20  C   UNL     1      26.197  45.027  50.361  1.00  0.00    -0.061 A 
HETATM   21  C   UNL     1      27.256  44.023  50.705  1.00  0.00     0.048 C 
HETATM   22  C   UNL     1      24.848  44.692  50.456  1.00  0.00     0.009 A 
HETATM   23  C   UNL     1      23.857  45.639  50.175  1.00  0.00     0.030 A 
ENDBRANCH  13  16
ENDBRANCH   1  12
BRANCH   2  24
HETATM   24  C   UNL     1      19.405  48.134  47.597  1.00  0.00     0.005 A 
HETATM   25  C   UNL     1      19.088  46.762  47.631  1.00  0.00     0.076 A 
HETATM   26  C   UNL     1      18.465  46.167  46.528  1.00  0.00     0.037 A 
HETATM   27  C   UNL     1      18.145  46.924  45.399  1.00  0.00     0.003 A 
HETATM   28  C   UNL     1      18.445  48.280  45.359  1.00  0.00     0.001 A 
HETATM   29  C   UNL     1      19.070  48.883  46.449  1.00  0.00     0.012 A 
BRANCH  25  30
HETATM   30  O   UNL     1      19.441  46.090  48.773  1.00  0.00    -0.355 OA
HETATM   31  C   UNL     1      20.443  45.088  48.656  1.00  0.00     0.210 C 
ENDBRANCH  25  30
ENDBRANCH   2  24
TORSDOF 4
ENDMDL
MODEL 5
REMARK VINA RESULT:      -7.8     11.947     14.274
REMARK  4 active torsions:
REMARK  status: ('A' for Active; 'I' for Inactive)
REMARK    1  A    between atoms: C_6  and  N_7 
REMARK       I    between atoms: N_7  and  C_8 
REMARK    2  A    between atoms: C_8  and  C_9 
REMARK    3  A    between atoms: C_10  and  C_11 
REMARK    4  A    between atoms: C_12  and  O_13 
ROOT
HETATM    1  C   UNL     1      27.712  49.936  39.761  1.00  0.00     0.063 C 
HETATM    2  C   UNL     1      26.922  48.648  39.971  1.00  0.00     0.205 C 
HETATM    3  N   UNL     1      25.648  48.703  39.238  1.00  0.00    -0.084 N 
HETATM    4  C   UNL     1      25.332  49.670  38.319  1.00  0.00     0.725 A 
HETATM    5  N   UNL     1      26.209  50.665  38.076  1.00  0.00    -0.192 N 
HETATM    6  N   UNL     1      24.610  47.862  39.434  1.00  0.00    -0.149 NA
HETATM    7  C   UNL     1      23.735  48.337  38.540  1.00  0.00     0.275 A 
HETATM    8  N   UNL     1      24.136  49.445  37.841  1.00  0.00    -0.054 NA
HETATM    9  C   UNL     1      27.363  50.855  38.828  1.00  0.00     0.037 C 
HETATM   10  C   UNL     1      28.149  52.105  38.526  1.00  0.00     0.070 C 
HETATM   11  H   UNL     1      25.944  51.394  37.421  1.00  0.00     0.184 HD
ENDROOT
BRANCH   1  12
HETATM   12  C   UNL     1      28.852  50.140  40.690  1.00  0.00     0.256 C 
HETATM   13  N   UNL     1      30.065  49.955  40.057  1.00  0.00    -0.323 N 
HETATM   14  H   UNL     1      30.027  49.674  39.087  1.00  0.00     0.169 HD
HETATM   15  O   UNL     1      28.644  50.434  41.857  1.00  0.00    -0.267 OA
BRANCH  13  16
HETATM   16  C   UNL     1      31.361  50.106  40.606  1.00  0.00     0.041 A 
HETATM   17  C   UNL     1      32.150  48.953  40.815  1.00  0.00    -0.035 A 
HETATM   18  C   UNL     1      33.451  49.091  41.336  1.00  0.00     0.015 A 
HETATM   19  C   UNL     1      31.654  47.567  40.503  1.00  0.00     0.050 C 
HETATM   20  C   UNL     1      33.973  50.346  41.666  1.00  0.00    -0.061 A 
HETATM   21  C   UNL     1      35.375  50.481  42.180  1.00  0.00     0.048 C 
HETATM   22  C   UNL     1      33.188  51.477  41.449  1.00  0.00     0.009 A 
HETATM   23  C   UNL     1      31.894  51.357  40.931  1.00  0.00     0.030 A 
ENDBRANCH  13  16
ENDBRANCH   1  12
BRANCH   2  24
HETATM   24  C   UNL     1      27.686  47.390  39.566  1.00  0.00     0.005 A 
HETATM   25  C   UNL     1      27.691  46.250  40.394  1.00  0.00     0.076 A 
HETATM   26  C   UNL     1      28.402  45.111  40.000  1.00  0.00     0.037 A 
HETATM   27  C   UNL     1      29.097  45.090  38.789  1.00  0.00     0.003 A 
HETATM   28  C   UNL     1      29.091  46.206  37.961  1.00  0.00     0.001 A 
HETATM   29  C   UNL     1      28.391  47.348  38.344  1.00  0.00     0.012 A 
BRANCH  25  30
HETATM   30  O   UNL     1      26.989  46.355  41.567  1.00  0.00    -0.355 OA
HETATM   31  C   UNL     1      26.173  45.250  41.937  1.00  0.00     0.210 C 
ENDBRANCH  25  30
ENDBRANCH   2  24
TORSDOF 4
ENDMDL
MODEL 6
REMARK VINA RESULT:      -7.7      5.214      9.265
REMARK  4 active torsions:
REMARK  status: ('A' for Active; 'I' for Inactive)
REMARK    1  A    between atoms: C_6  and  N_7 
REMARK       I    between atoms: N_7  and  C_8 
REMARK    2  A    between atoms: C_8  and  C_9 
REMARK    3  A    between atoms: C_10  and  C_11 
REMARK    4  A    between atoms: C_12  and  O_13 
ROOT
HETATM    1  C   UNL     1      23.571  46.177  49.504  1.00  0.00     0.063 C 
HETATM    2  C   UNL     1      24.204  47.240  50.397  1.00  0.00     0.205 C 
HETATM    3  N   UNL     1      24.915  46.611  51.519  1.00  0.00    -0.084 N 
HETATM    4  C   UNL     1      25.166  45.266  51.612  1.00  0.00     0.725 A 
HETATM    5  N   UNL     1      24.715  44.440  50.647  1.00  0.00    -0.192 N 
HETATM    6  N   UNL     1      25.337  47.261  52.626  1.00  0.00    -0.149 NA
HETATM    7  C   UNL     1      25.903  46.255  53.302  1.00  0.00     0.275 A 
HETATM    8  N   UNL     1      25.816  45.017  52.720  1.00  0.00    -0.054 NA
HETATM    9  C   UNL     1      23.864  44.859  49.630  1.00  0.00     0.037 C 
HETATM   10  C   UNL     1      23.329  43.776  48.729  1.00  0.00     0.070 C 
HETATM   11  H   UNL     1      24.876  43.442  50.750  1.00  0.00     0.184 HD
ENDROOT
BRANCH   1  12
HETATM   12  C   UNL     1      22.569  46.678  48.532  1.00  0.00     0.256 C 
HETATM   13  N   UNL     1      21.380  47.010  49.151  1.00  0.00    -0.323 N 
HETATM   14  H   UNL     1      21.328  46.839  50.146  1.00  0.00     0.169 HD
HETATM   15  O   UNL     1      22.850  46.752  47.346  1.00  0.00    -0.267 OA
BRANCH  13  16
HETATM   16  C   UNL     1      20.218  47.559  48.558  1.00  0.00     0.041 A 
HETATM   17  C   UNL     1      19.208  46.683  48.101  1.00  0.00    -0.035 A 
HETATM   18  C   UNL     1      18.035  47.215  47.534  1.00  0.00     0.015 A 
HETATM   19  C   UNL     1      19.335  45.185  48.196  1.00  0.00     0.050 C 
HETATM   20  C   UNL     1      17.855  48.595  47.397  1.00  0.00    -0.061 A 
HETATM   21  C   UNL     1      16.582  49.149  46.829  1.00  0.00     0.048 C 
HETATM   22  C   UNL     1      18.854  49.451  47.858  1.00  0.00     0.009 A 
HETATM   23  C   UNL     1      20.025  48.937  48.425  1.00  0.00     0.030 A 
ENDBRANCH  13  16
ENDBRANCH   1  12
BRANCH   2  24
HETATM   24  C   UNL     1      25.156  48.173  49.652  1.00  0.00     0.005 A 
HETATM   25  C   UNL     1      24.693  49.383  49.098  1.00  0.00     0.076 A 
HETATM   26  C   UNL     1      25.586  50.220  48.418  1.00  0.00     0.037 A 
HETATM   27  C   UNL     1      26.934  49.872  48.295  1.00  0.00     0.003 A 
HETATM   28  C   UNL     1      27.401  48.685  48.847  1.00  0.00     0.001 A 
HETATM   29  C   UNL     1      26.521  47.841  49.521  1.00  0.00     0.012 A 
BRANCH  25  30
HETATM   30  O   UNL     1      23.358  49.648  49.257  1.00  0.00    -0.355 OA
HETATM   31  C   UNL     1      22.943  51.003  49.133  1.00  0.00     0.210 C 
ENDBRANCH  25  30
ENDBRANCH   2  24
TORSDOF 4
ENDMDL
MODEL 7
REMARK VINA RESULT:      -7.7      2.912      6.787
REMARK  4 active torsions:
REMARK  status: ('A' for Active; 'I' for Inactive)
REMARK    1  A    between atoms: C_6  and  N_7 
REMARK       I    between atoms: N_7  and  C_8 
REMARK    2  A    between atoms: C_8  and  C_9 
REMARK    3  A    between atoms: C_10  and  C_11 
REMARK    4  A    between atoms: C_12  and  O_13 
ROOT
HETATM    1  C   UNL     1      24.759  44.801  50.254  1.00  0.00     0.063 C 
HETATM    2  C   UNL     1      25.934  45.736  50.520  1.00  0.00     0.205 C 
HETATM    3  N   UNL     1      25.689  47.053  49.917  1.00  0.00    -0.084 N 
HETATM    4  C   UNL     1      24.482  47.447  49.399  1.00  0.00     0.725 A 
HETATM    5  N   UNL     1      23.447  46.583  49.397  1.00  0.00    -0.192 N 
HETATM    6  N   UNL     1      26.631  48.002  49.728  1.00  0.00    -0.149 NA
HETATM    7  C   UNL     1      25.898  48.969  49.164  1.00  0.00     0.275 A 
HETATM    8  N   UNL     1      24.580  48.668  48.940  1.00  0.00    -0.054 NA
HETATM    9  C   UNL     1      23.581  45.245  49.752  1.00  0.00     0.037 C 
HETATM   10  C   UNL     1      22.363  44.382  49.542  1.00  0.00     0.070 C 
HETATM   11  H   UNL     1      22.572  46.877  48.975  1.00  0.00     0.184 HD
ENDROOT
BRANCH   1  12
HETATM   12  C   UNL     1      25.015  43.364  50.527  1.00  0.00     0.256 C 
HETATM   13  N   UNL     1      25.869  42.813  49.591  1.00  0.00    -0.323 N 
HETATM   14  H   UNL     1      26.169  43.422  48.843  1.00  0.00     0.169 HD
HETATM   15  O   UNL     1      24.490  42.820  51.485  1.00  0.00    -0.267 OA
BRANCH  13  16
HETATM   16  C   UNL     1      26.371  41.490  49.550  1.00  0.00     0.041 A 
HETATM   17  C   UNL     1      25.711  40.536  48.745  1.00  0.00    -0.035 A 
HETATM   18  C   UNL     1      26.215  39.223  48.674  1.00  0.00     0.015 A 
HETATM   19  C   UNL     1      24.475  40.865  47.951  1.00  0.00     0.050 C 
HETATM   20  C   UNL     1      27.349  38.840  49.397  1.00  0.00    -0.061 A 
HETATM   21  C   UNL     1      27.899  37.450  49.279  1.00  0.00     0.048 C 
HETATM   22  C   UNL     1      27.997  39.792  50.183  1.00  0.00     0.009 A 
HETATM   23  C   UNL     1      27.509  41.101  50.263  1.00  0.00     0.030 A 
ENDBRANCH  13  16
ENDBRANCH   1  12
BRANCH   2  24
HETATM   24  C   UNL     1      26.254  45.908  52.003  1.00  0.00     0.005 A 
HETATM   25  C   UNL     1      27.223  45.100  52.631  1.00  0.00     0.076 A 
HETATM   26  C   UNL     1      27.495  45.277  53.993  1.00  0.00     0.037 A 
HETATM   27  C   UNL     1      26.823  46.255  54.731  1.00  0.00     0.003 A 
HETATM   28  C   UNL     1      25.873  47.062  54.118  1.00  0.00     0.001 A 
HETATM   29  C   UNL     1      25.589  46.892  52.765  1.00  0.00     0.012 A 
BRANCH  25  30
HETATM   30  O   UNL     1      27.832  44.163  51.838  1.00  0.00    -0.355 OA
HETATM   31  C   UNL     1      28.952  43.477  52.385  1.00  0.00     0.210 C 
ENDBRANCH  25  30
ENDBRANCH   2  24
TORSDOF 4
ENDMDL
MODEL 8
REMARK VINA RESULT:      -7.5     10.550     14.227
REMARK  4 active torsions:
REMARK  status: ('A' for Active; 'I' for Inactive)
REMARK    1  A    between atoms: C_6  and  N_7 
REMARK       I    between atoms: N_7  and  C_8 
REMARK    2  A    between atoms: C_8  and  C_9 
REMARK    3  A    between atoms: C_10  and  C_11 
REMARK    4  A    between atoms: C_12  and  O_13 
ROOT
HETATM    1  C   UNL     1      18.057  50.825  47.013  1.00  0.00     0.063 C 
HETATM    2  C   UNL     1      18.708  49.736  47.860  1.00  0.00     0.205 C 
HETATM    3  N   UNL     1      18.945  48.530  47.053  1.00  0.00    -0.084 N 
HETATM    4  C   UNL     1      18.814  48.482  45.689  1.00  0.00     0.725 A 
HETATM    5  N   UNL     1      18.412  49.582  45.023  1.00  0.00    -0.192 N 
HETATM    6  N   UNL     1      19.241  47.312  47.556  1.00  0.00    -0.149 NA
HETATM    7  C   UNL     1      19.353  46.600  46.429  1.00  0.00     0.275 A 
HETATM    8  N   UNL     1      19.094  47.276  45.266  1.00  0.00    -0.054 NA
HETATM    9  C   UNL     1      17.965  50.733  45.664  1.00  0.00     0.037 C 
HETATM   10  C   UNL     1      17.402  51.809  44.771  1.00  0.00     0.070 C 
HETATM   11  H   UNL     1      18.283  49.519  44.017  1.00  0.00     0.184 HD
ENDROOT
BRANCH   1  12
HETATM   12  C   UNL     1      17.478  51.961  47.773  1.00  0.00     0.256 C 
HETATM   13  N   UNL     1      16.120  51.806  47.965  1.00  0.00    -0.323 N 
HETATM   14  H   UNL     1      15.697  50.990  47.545  1.00  0.00     0.169 HD
HETATM   15  O   UNL     1      18.195  52.878  48.142  1.00  0.00    -0.267 OA
BRANCH  13  16
HETATM   16  C   UNL     1      15.243  52.659  48.676  1.00  0.00     0.041 A 
HETATM   17  C   UNL     1      14.466  53.592  47.955  1.00  0.00    -0.035 A 
HETATM   18  C   UNL     1      13.570  54.429  48.647  1.00  0.00     0.015 A 
HETATM   19  C   UNL     1      14.558  53.734  46.459  1.00  0.00     0.050 C 
HETATM   20  C   UNL     1      13.444  54.365  50.038  1.00  0.00    -0.061 A 
HETATM   21  C   UNL     1      12.455  55.233  50.758  1.00  0.00     0.048 C 
HETATM   22  C   UNL     1      14.209  53.435  50.740  1.00  0.00     0.009 A 
HETATM   23  C   UNL     1      15.103  52.597  50.066  1.00  0.00     0.030 A 
ENDBRANCH  13  16
ENDBRANCH   1  12
BRANCH   2  24
HETATM   24  C   UNL     1      20.016  50.173  48.516  1.00  0.00     0.005 A 
HETATM   25  C   UNL     1      20.090  50.388  49.906  1.00  0.00     0.076 A 
HETATM   26  C   UNL     1      21.300  50.791  50.481  1.00  0.00     0.037 A 
HETATM   27  C   UNL     1      22.438  50.971  49.691  1.00  0.00     0.003 A 
HETATM   28  C   UNL     1      22.377  50.752  48.320  1.00  0.00     0.001 A 
HETATM   29  C   UNL     1      21.177  50.356  47.735  1.00  0.00     0.012 A 
BRANCH  25  30
HETATM   30  O   UNL     1      18.928  50.195  50.609  1.00  0.00    -0.355 OA
HETATM   31  C   UNL     1      18.729  48.917  51.199  1.00  0.00     0.210 C 
ENDBRANCH  25  30
ENDBRANCH   2  24
TORSDOF 4
ENDMDL
MODEL 9
REMARK VINA RESULT:      -7.3      8.388     12.439
REMARK  4 active torsions:
REMARK  status: ('A' for Active; 'I' for Inactive)
REMARK    1  A    between atoms: C_6  and  N_7 
REMARK       I    between atoms: N_7  and  C_8 
REMARK    2  A    between atoms: C_8  and  C_9 
REMARK    3  A    between atoms: C_10  and  C_11 
REMARK    4  A    between atoms: C_12  and  O_13 
ROOT
HETATM    1  C   UNL     1      20.103  48.519  48.619  1.00  0.00     0.063 C 
HETATM    2  C   UNL     1      21.337  48.390  47.732  1.00  0.00     0.205 C 
HETATM    3  N   UNL     1      22.361  49.367  48.132  1.00  0.00    -0.084 N 
HETATM    4  C   UNL     1      22.300  50.115  49.279  1.00  0.00     0.725 A 
HETATM    5  N   UNL     1      21.232  49.996  50.093  1.00  0.00    -0.192 N 
HETATM    6  N   UNL     1      23.438  49.703  47.389  1.00  0.00    -0.149 NA
HETATM    7  C   UNL     1      24.021  50.601  48.191  1.00  0.00     0.275 A 
HETATM    8  N   UNL     1      23.355  50.886  49.355  1.00  0.00    -0.054 NA
HETATM    9  C   UNL     1      20.101  49.263  49.752  1.00  0.00     0.037 C 
HETATM   10  C   UNL     1      18.937  49.365  50.704  1.00  0.00     0.070 C 
HETATM   11  H   UNL     1      21.185  50.585  50.918  1.00  0.00     0.184 HD
ENDROOT
BRANCH   1  12
HETATM   12  C   UNL     1      18.889  47.822  48.124  1.00  0.00     0.256 C 
HETATM   13  N   UNL     1      18.133  48.638  47.305  1.00  0.00    -0.323 N 
HETATM   14  H   UNL     1      18.466  49.583  47.181  1.00  0.00     0.169 HD
HETATM   15  O   UNL     1      18.668  46.668  48.455  1.00  0.00    -0.267 OA
BRANCH  13  16
HETATM   16  C   UNL     1      16.939  48.308  46.618  1.00  0.00     0.041 A 
HETATM   17  C   UNL     1      15.732  48.923  47.018  1.00  0.00    -0.035 A 
HETATM   18  C   UNL     1      14.542  48.625  46.327  1.00  0.00     0.015 A 
HETATM   19  C   UNL     1      15.662  49.894  48.166  1.00  0.00     0.050 C 
HETATM   20  C   UNL     1      14.528  47.720  45.262  1.00  0.00    -0.061 A 
HETATM   21  C   UNL     1      13.261  47.444  44.508  1.00  0.00     0.048 C 
HETATM   22  C   UNL     1      15.726  47.124  44.871  1.00  0.00     0.009 A 
HETATM   23  C   UNL     1      16.917  47.410  45.547  1.00  0.00     0.030 A 
ENDBRANCH  13  16
ENDBRANCH   1  12
BRANCH   2  24
HETATM   24  C   UNL     1      21.945  46.990  47.731  1.00  0.00     0.005 A 
HETATM   25  C   UNL     1      21.802  46.142  46.615  1.00  0.00     0.076 A 
HETATM   26  C   UNL     1      22.367  44.861  46.641  1.00  0.00     0.037 A 
HETATM   27  C   UNL     1      23.081  44.421  47.759  1.00  0.00     0.003 A 
HETATM   28  C   UNL     1      23.235  45.254  48.860  1.00  0.00     0.001 A 
HETATM   29  C   UNL     1      22.673  46.529  48.849  1.00  0.00     0.012 A 
BRANCH  25  30
HETATM   30  O   UNL     1      21.084  46.646  45.562  1.00  0.00    -0.355 OA
HETATM   31  C   UNL     1      20.170  45.768  44.917  1.00  0.00     0.210 C 
ENDBRANCH  25  30
ENDBRANCH   2  24
TORSDOF 4
ENDMDL
MODEL 10
REMARK VINA RESULT:      -7.3      4.506      6.858
REMARK  4 active torsions:
REMARK  status: ('A' for Active; 'I' for Inactive)
REMARK    1  A    between atoms: C_6  and  N_7 
REMARK       I    between atoms: N_7  and  C_8 
REMARK    2  A    between atoms: C_8  and  C_9 
REMARK    3  A    between atoms: C_10  and  C_11 
REMARK    4  A    between atoms: C_12  and  O_13 
ROOT
HETATM    1  C   UNL     1      23.070  46.003  49.140  1.00  0.00     0.063 C 
HETATM    2  C   UNL     1      22.088  44.929  48.684  1.00  0.00     0.205 C 
HETATM    3  N   UNL     1      20.741  45.496  48.531  1.00  0.00    -0.084 N 
HETATM    4  C   UNL     1      20.465  46.839  48.566  1.00  0.00     0.725 A 
HETATM    5  N   UNL     1      21.465  47.715  48.787  1.00  0.00    -0.192 N 
HETATM    6  N   UNL     1      19.607  44.771  48.417  1.00  0.00    -0.149 NA
HETATM    7  C   UNL     1      18.699  45.747  48.307  1.00  0.00     0.275 A 
HETATM    8  N   UNL     1      19.181  47.027  48.399  1.00  0.00    -0.054 NA
HETATM    9  C   UNL     1      22.751  47.321  49.143  1.00  0.00     0.037 C 
HETATM   10  C   UNL     1      23.704  48.429  49.509  1.00  0.00     0.070 C 
HETATM   11  H   UNL     1      21.238  48.703  48.849  1.00  0.00     0.184 HD
ENDROOT
BRANCH   1  12
HETATM   12  C   UNL     1      24.376  45.502  49.636  1.00  0.00     0.256 C 
HETATM   13  N   UNL     1      24.367  45.326  51.006  1.00  0.00    -0.323 N 
HETATM   14  H   UNL     1      23.519  45.590  51.487  1.00  0.00     0.169 HD
HETATM   15  O   UNL     1      25.291  45.298  48.853  1.00  0.00    -0.267 OA
BRANCH  13  16
HETATM   16  C   UNL     1      25.410  44.826  51.821  1.00  0.00     0.041 A 
HETATM   17  C   UNL     1      26.022  45.693  52.754  1.00  0.00    -0.035 A 
HETATM   18  C   UNL     1      27.042  45.201  53.590  1.00  0.00     0.015 A 
HETATM   19  C   UNL     1      25.626  47.139  52.892  1.00  0.00     0.050 C 
HETATM   20  C   UNL     1      27.474  43.874  53.506  1.00  0.00    -0.061 A 
HETATM   21  C   UNL     1      28.532  43.353  54.432  1.00  0.00     0.048 C 
HETATM   22  C   UNL     1      26.858  43.024  52.588  1.00  0.00     0.009 A 
HETATM   23  C   UNL     1      25.842  43.498  51.751  1.00  0.00     0.030 A 
ENDBRANCH  13  16
ENDBRANCH   1  12
BRANCH   2  24
HETATM   24  C   UNL     1      22.498  44.238  47.386  1.00  0.00     0.005 A 
HETATM   25  C   UNL     1      22.793  42.860  47.363  1.00  0.00     0.076 A 
HETATM   26  C   UNL     1      23.169  42.252  46.160  1.00  0.00     0.037 A 
HETATM   27  C   UNL     1      23.244  42.997  44.980  1.00  0.00     0.003 A 
HETATM   28  C   UNL     1      22.945  44.354  44.990  1.00  0.00     0.001 A 
HETATM   29  C   UNL     1      22.575  44.972  46.183  1.00  0.00     0.012 A 
BRANCH  25  30
HETATM   30  O   UNL     1      22.702  42.204  48.563  1.00  0.00    -0.355 OA
HETATM   31  C   UNL     1      23.906  41.685  49.114  1.00  0.00     0.210 C 
ENDBRANCH  25  30
ENDBRANCH   2  24
TORSDOF 4
ENDMDL
