MODEL 1
REMARK VINA RESULT:      -7.7      0.000      0.000
REMARK  9 active torsions:
REMARK  status: ('A' for Active; 'I' for Inactive)
REMARK    1  A    between atoms: C_2  and  C_3 
REMARK    2  A    between atoms: C_7  and  C_8 
REMARK    3  A    between atoms: C_8  and  C_9 
REMARK       I    between atoms: C_9  and  N_10 
REMARK    4  A    between atoms: N_10  and  C_11 
REMARK    5  A    between atoms: C_11  and  C_12 
REMARK    6  A    between atoms: C_12  and  C_13 
REMARK    7  A    between atoms: C_21  and  C_22 
REMARK    8  A    between atoms: C_32  and  C_33 
REMARK    9  A    between atoms: C_33  and  O_34 
ROOT
HETATM    1  C   UNL     1      24.161  46.181  49.881  1.00  0.00     0.051 C 
HETATM    2  N   UNL     1      23.607  45.273  49.000  1.00  0.00    -0.228 NA
HETATM    3  C   UNL     1      24.174  44.121  48.898  1.00  0.00     0.170 C 
HETATM    4  N   UNL     1      25.209  43.520  49.925  1.00  0.00    -0.318 N 
HETATM    5  C   UNL     1      25.392  42.270  49.637  1.00  0.00     0.011 C 
HETATM    6  C   UNL     1      25.311  44.369  51.131  1.00  0.00     0.166 C 
HETATM    7  S   UNL     1      23.772  42.992  47.637  1.00  0.00    -0.086 SA
HETATM    8  C   UNL     1      25.104  41.899  48.198  1.00  0.00     0.135 C 
HETATM    9  C   UNL     1      25.120  45.813  50.758  1.00  0.00     0.069 C 
ENDROOT
BRANCH   5  10
HETATM   10  C   UNL     1      25.538  41.203  50.687  1.00  0.00     0.156 C 
BRANCH  10  11
HETATM   11  C   UNL     1      26.595  40.228  50.200  1.00  0.00     0.222 C 
HETATM   12  N   UNL     1      26.204  38.924  50.037  1.00  0.00    -0.361 N 
HETATM   13  H   UNL     1      25.212  38.705  49.980  1.00  0.00     0.162 HD
HETATM   14  O   UNL     1      27.757  40.607  50.060  1.00  0.00    -0.273 OA
BRANCH  12  15
HETATM   15  C   UNL     1      27.147  37.903  49.592  1.00  0.00     0.124 C 
BRANCH  15  16
HETATM   16  C   UNL     1      27.061  37.663  48.077  1.00  0.00     0.053 C 
BRANCH  16  17
HETATM   17  C   UNL     1      28.237  38.285  47.305  1.00  0.00     0.189 C 
HETATM   18  N   UNL     1      27.682  39.326  46.317  1.00  0.00    -0.071 N 
HETATM   19  H   UNL     1      26.658  39.358  46.400  1.00  0.00     0.279 HD
HETATM   20  C   UNL     1      28.173  40.725  46.564  1.00  0.00     0.270 C 
HETATM   21  C   UNL     1      27.987  38.846  44.907  1.00  0.00     0.235 C 
HETATM   22  C   UNL     1      28.256  37.367  45.080  1.00  0.00     0.030 C 
HETATM   23  C   UNL     1      28.993  37.310  46.403  1.00  0.00     0.035 C 
ENDBRANCH  16  17
ENDBRANCH  15  16
ENDBRANCH  12  15
ENDBRANCH  10  11
ENDBRANCH   5  10
BRANCH   6  24
HETATM   24  C   UNL     1      26.496  44.102  52.058  1.00  0.00    -0.024 A 
HETATM   25  C   UNL     1      26.351  44.228  53.464  1.00  0.00    -0.053 A 
HETATM   26  C   UNL     1      25.040  44.570  54.127  1.00  0.00     0.049 C 
HETATM   27  C   UNL     1      27.469  44.045  54.295  1.00  0.00     0.014 A 
HETATM   28  C   UNL     1      28.731  43.756  53.770  1.00  0.00    -0.061 A 
HETATM   29  C   UNL     1      29.927  43.656  54.674  1.00  0.00     0.048 C 
HETATM   30  C   UNL     1      28.879  43.660  52.388  1.00  0.00     0.007 A 
HETATM   31  C   UNL     1      27.780  43.828  51.542  1.00  0.00     0.011 A 
ENDBRANCH   6  24
BRANCH   9  32
HETATM   32  C   UNL     1      26.319  46.673  50.683  1.00  0.00     0.293 C 
HETATM   33  O   UNL     1      26.642  47.335  51.660  1.00  0.00    -0.259 OA
BRANCH  32  34
HETATM   34  O   UNL     1      26.980  46.547  49.520  1.00  0.00    -0.323 OA
HETATM   35  C   UNL     1      27.557  47.780  49.072  1.00  0.00     0.213 C 
ENDBRANCH  32  34
ENDBRANCH   9  32
BRANCH   1  36
HETATM   36  C   UNL     1      23.715  47.618  49.659  1.00  0.00     0.056 C 
HETATM   37  C   UNL     1      22.547  47.690  48.676  1.00  0.00     0.011 C 
ENDBRANCH   1  36
TORSDOF 9
ENDMDL
MODEL 2
REMARK VINA RESULT:      -7.4      4.025      9.398
REMARK  9 active torsions:
REMARK  status: ('A' for Active; 'I' for Inactive)
REMARK    1  A    between atoms: C_2  and  C_3 
REMARK    2  A    between atoms: C_7  and  C_8 
REMARK    3  A    between atoms: C_8  and  C_9 
REMARK       I    between atoms: C_9  and  N_10 
REMARK    4  A    between atoms: N_10  and  C_11 
REMARK    5  A    between atoms: C_11  and  C_12 
REMARK    6  A    between atoms: C_12  and  C_13 
REMARK    7  A    between atoms: C_21  and  C_22 
REMARK    8  A    between atoms: C_32  and  C_33 
REMARK    9  A    between atoms: C_33  and  O_34 
ROOT
HETATM    1  C   UNL     1      25.203  46.607  51.138  1.00  0.00     0.051 C 
HETATM    2  N   UNL     1      24.588  47.819  50.893  1.00  0.00    -0.228 NA
HETATM    3  C   UNL     1      23.851  47.909  49.839  1.00  0.00     0.170 C 
HETATM    4  N   UNL     1      23.299  46.689  49.006  1.00  0.00    -0.318 N 
HETATM    5  C   UNL     1      22.418  47.133  48.167  1.00  0.00     0.011 C 
HETATM    6  C   UNL     1      23.577  45.410  49.694  1.00  0.00     0.166 C 
HETATM    7  S   UNL     1      23.252  49.431  49.247  1.00  0.00    -0.086 SA
HETATM    8  C   UNL     1      22.572  48.591  47.793  1.00  0.00     0.135 C 
HETATM    9  C   UNL     1      24.882  45.501  50.435  1.00  0.00     0.069 C 
ENDROOT
BRANCH   5  10
HETATM   10  C   UNL     1      21.148  46.392  47.847  1.00  0.00     0.156 C 
BRANCH  10  11
HETATM   11  C   UNL     1      19.988  47.263  48.294  1.00  0.00     0.222 C 
HETATM   12  N   UNL     1      19.764  47.348  49.643  1.00  0.00    -0.361 N 
HETATM   13  H   UNL     1      20.499  47.070  50.289  1.00  0.00     0.162 HD
HETATM   14  O   UNL     1      19.251  47.776  47.453  1.00  0.00    -0.273 OA
BRANCH  12  15
HETATM   15  C   UNL     1      18.663  48.143  50.178  1.00  0.00     0.124 C 
BRANCH  15  16
HETATM   16  C   UNL     1      19.083  49.596  50.452  1.00  0.00     0.053 C 
BRANCH  16  17
HETATM   17  C   UNL     1      18.095  50.624  49.876  1.00  0.00     0.189 C 
HETATM   18  N   UNL     1      17.863  50.303  48.389  1.00  0.00    -0.071 N 
HETATM   19  H   UNL     1      18.425  49.483  48.127  1.00  0.00     0.279 HD
HETATM   20  C   UNL     1      16.437  49.967  48.051  1.00  0.00     0.270 C 
HETATM   21  C   UNL     1      18.391  51.469  47.568  1.00  0.00     0.235 C 
HETATM   22  C   UNL     1      19.326  52.184  48.519  1.00  0.00     0.030 C 
HETATM   23  C   UNL     1      18.613  52.061  49.851  1.00  0.00     0.035 C 
ENDBRANCH  16  17
ENDBRANCH  15  16
ENDBRANCH  12  15
ENDBRANCH  10  11
ENDBRANCH   5  10
BRANCH   6  24
HETATM   24  C   UNL     1      23.401  44.136  48.868  1.00  0.00    -0.024 A 
HETATM   25  C   UNL     1      23.080  42.908  49.502  1.00  0.00    -0.053 A 
HETATM   26  C   UNL     1      22.844  42.787  50.986  1.00  0.00     0.049 C 
HETATM   27  C   UNL     1      22.990  41.735  48.734  1.00  0.00     0.014 A 
HETATM   28  C   UNL     1      23.223  41.743  47.356  1.00  0.00    -0.061 A 
HETATM   29  C   UNL     1      23.210  40.460  46.574  1.00  0.00     0.048 C 
HETATM   30  C   UNL     1      23.565  42.944  46.738  1.00  0.00     0.007 A 
HETATM   31  C   UNL     1      23.651  44.125  47.480  1.00  0.00     0.011 A 
ENDBRANCH   6  24
BRANCH   9  32
HETATM   32  C   UNL     1      26.063  44.842  49.840  1.00  0.00     0.293 C 
HETATM   33  O   UNL     1      26.741  45.453  49.024  1.00  0.00    -0.259 OA
BRANCH  32  34
HETATM   34  O   UNL     1      26.299  43.625  50.358  1.00  0.00    -0.323 OA
HETATM   35  C   UNL     1      26.773  42.688  49.385  1.00  0.00     0.213 C 
ENDBRANCH  32  34
ENDBRANCH   9  32
BRANCH   1  36
HETATM   36  C   UNL     1      26.354  46.682  52.132  1.00  0.00     0.056 C 
HETATM   37  C   UNL     1      25.875  47.175  53.497  1.00  0.00     0.011 C 
ENDBRANCH   1  36
TORSDOF 9
ENDMDL
MODEL 3
REMARK VINA RESULT:      -6.8      2.352      5.127
REMARK  9 active torsions:
REMARK  status: ('A' for Active; 'I' for Inactive)
REMARK    1  A    between atoms: C_2  and  C_3 
REMARK    2  A    between atoms: C_7  and  C_8 
REMARK    3  A    between atoms: C_8  and  C_9 
REMARK       I    between atoms: C_9  and  N_10 
REMARK    4  A    between atoms: N_10  and  C_11 
REMARK    5  A    between atoms: C_11  and  C_12 
REMARK    6  A    between atoms: C_12  and  C_13 
REMARK    7  A    between atoms: C_21  and  C_22 
REMARK    8  A    between atoms: C_32  and  C_33 
REMARK    9  A    between atoms: C_33  and  O_34 
ROOT
HETATM    1  C   UNL     1      27.859  45.220  53.973  1.00  0.00     0.051 C 
HETATM    2  N   UNL     1      28.425  43.976  53.775  1.00  0.00    -0.228 NA
HETATM    3  C   UNL     1      27.930  43.238  52.841  1.00  0.00     0.170 C 
HETATM    4  N   UNL     1      26.991  43.746  51.680  1.00  0.00    -0.318 N 
HETATM    5  C   UNL     1      26.876  42.798  50.804  1.00  0.00     0.011 C 
HETATM    6  C   UNL     1      26.897  45.222  51.683  1.00  0.00     0.166 C 
HETATM    7  S   UNL     1      28.339  41.557  52.665  1.00  0.00    -0.086 SA
HETATM    8  C   UNL     1      27.113  41.403  51.340  1.00  0.00     0.135 C 
HETATM    9  C   UNL     1      26.973  45.736  53.094  1.00  0.00     0.069 C 
ENDROOT
BRANCH   5  10
HETATM   10  C   UNL     1      26.855  43.055  49.322  1.00  0.00     0.156 C 
BRANCH  10  11
HETATM   11  C   UNL     1      26.638  41.719  48.633  1.00  0.00     0.222 C 
HETATM   12  N   UNL     1      27.720  41.171  47.995  1.00  0.00    -0.361 N 
HETATM   13  H   UNL     1      28.654  41.508  48.218  1.00  0.00     0.162 HD
HETATM   14  O   UNL     1      25.510  41.230  48.590  1.00  0.00    -0.273 OA
BRANCH  12  15
HETATM   15  C   UNL     1      27.615  39.900  47.286  1.00  0.00     0.124 C 
BRANCH  15  16
HETATM   16  C   UNL     1      28.500  38.814  47.917  1.00  0.00     0.053 C 
BRANCH  16  17
HETATM   17  C   UNL     1      28.177  38.564  49.400  1.00  0.00     0.189 C 
HETATM   18  N   UNL     1      28.991  37.352  49.884  1.00  0.00    -0.071 N 
HETATM   19  H   UNL     1      29.554  36.989  49.104  1.00  0.00     0.279 HD
HETATM   20  C   UNL     1      29.954  37.666  50.994  1.00  0.00     0.270 C 
HETATM   21  C   UNL     1      28.014  36.249  50.260  1.00  0.00     0.235 C 
HETATM   22  C   UNL     1      26.737  36.642  49.551  1.00  0.00     0.030 C 
HETATM   23  C   UNL     1      26.731  38.153  49.676  1.00  0.00     0.035 C 
ENDBRANCH  16  17
ENDBRANCH  15  16
ENDBRANCH  12  15
ENDBRANCH  10  11
ENDBRANCH   5  10
BRANCH   6  24
HETATM   24  C   UNL     1      25.781  45.838  50.840  1.00  0.00    -0.024 A 
HETATM   25  C   UNL     1      25.942  47.128  50.270  1.00  0.00    -0.053 A 
HETATM   26  C   UNL     1      27.208  47.935  50.407  1.00  0.00     0.049 C 
HETATM   27  C   UNL     1      24.879  47.706  49.555  1.00  0.00     0.014 A 
HETATM   28  C   UNL     1      23.656  47.047  49.402  1.00  0.00    -0.061 A 
HETATM   29  C   UNL     1      22.507  47.725  48.713  1.00  0.00     0.048 C 
HETATM   30  C   UNL     1      23.490  45.792  49.986  1.00  0.00     0.007 A 
HETATM   31  C   UNL     1      24.536  45.193  50.692  1.00  0.00     0.011 A 
ENDBRANCH   6  24
BRANCH   9  32
HETATM   32  C   UNL     1      25.718  46.170  53.741  1.00  0.00     0.293 C 
HETATM   33  O   UNL     1      25.036  45.347  54.337  1.00  0.00    -0.259 OA
BRANCH  32  34
HETATM   34  O   UNL     1      25.518  47.496  53.656  1.00  0.00    -0.323 OA
HETATM   35  C   UNL     1      25.947  48.200  54.828  1.00  0.00     0.213 C 
ENDBRANCH  32  34
ENDBRANCH   9  32
BRANCH   1  36
HETATM   36  C   UNL     1      28.198  45.853  55.314  1.00  0.00     0.056 C 
HETATM   37  C   UNL     1      29.557  45.375  55.825  1.00  0.00     0.011 C 
ENDBRANCH   1  36
TORSDOF 9
ENDMDL
MODEL 4
REMARK VINA RESULT:      -6.6      5.333      9.521
REMARK  9 active torsions:
REMARK  status: ('A' for Active; 'I' for Inactive)
REMARK    1  A    between atoms: C_2  and  C_3 
REMARK    2  A    between atoms: C_7  and  C_8 
REMARK    3  A    between atoms: C_8  and  C_9 
REMARK       I    between atoms: C_9  and  N_10 
REMARK    4  A    between atoms: N_10  and  C_11 
REMARK    5  A    between atoms: C_11  and  C_12 
REMARK    6  A    between atoms: C_12  and  C_13 
REMARK    7  A    between atoms: C_21  and  C_22 
REMARK    8  A    between atoms: C_32  and  C_33 
REMARK    9  A    between atoms: C_33  and  O_34 
ROOT
HETATM    1  C   UNL     1      16.059  48.937  46.539  1.00  0.00     0.051 C 
HETATM    2  N   UNL     1      15.957  47.608  46.178  1.00  0.00    -0.228 NA
HETATM    3  C   UNL     1      17.036  46.903  46.191  1.00  0.00     0.170 C 
HETATM    4  N   UNL     1      18.379  47.306  46.913  1.00  0.00    -0.318 N 
HETATM    5  C   UNL     1      19.165  46.276  46.918  1.00  0.00     0.011 C 
HETATM    6  C   UNL     1      18.192  48.517  47.740  1.00  0.00     0.166 C 
HETATM    7  S   UNL     1      17.119  45.312  45.493  1.00  0.00    -0.086 SA
HETATM    8  C   UNL     1      18.900  45.267  45.822  1.00  0.00     0.135 C 
HETATM    9  C   UNL     1      17.189  49.430  47.090  1.00  0.00     0.069 C 
ENDROOT
BRANCH   5  10
HETATM   10  C   UNL     1      20.034  45.918  48.093  1.00  0.00     0.156 C 
BRANCH  10  11
HETATM   11  C   UNL     1      21.418  46.480  47.822  1.00  0.00     0.222 C 
HETATM   12  N   UNL     1      22.137  46.900  48.911  1.00  0.00    -0.361 N 
HETATM   13  H   UNL     1      21.862  46.589  49.840  1.00  0.00     0.162 HD
HETATM   14  O   UNL     1      21.803  46.623  46.663  1.00  0.00    -0.273 OA
BRANCH  12  15
HETATM   15  C   UNL     1      23.471  47.473  48.760  1.00  0.00     0.124 C 
BRANCH  15  16
HETATM   16  C   UNL     1      24.258  47.454  50.079  1.00  0.00     0.053 C 
BRANCH  16  17
HETATM   17  C   UNL     1      25.045  46.149  50.289  1.00  0.00     0.189 C 
HETATM   18  N   UNL     1      24.177  45.178  51.108  1.00  0.00    -0.071 N 
HETATM   19  H   UNL     1      23.280  45.629  51.329  1.00  0.00     0.279 HD
HETATM   20  C   UNL     1      23.847  43.900  50.390  1.00  0.00     0.270 C 
HETATM   21  C   UNL     1      24.874  44.931  52.437  1.00  0.00     0.235 C 
HETATM   22  C   UNL     1      25.833  46.094  52.562  1.00  0.00     0.030 C 
HETATM   23  C   UNL     1      26.308  46.297  51.136  1.00  0.00     0.035 C 
ENDBRANCH  16  17
ENDBRANCH  15  16
ENDBRANCH  12  15
ENDBRANCH  10  11
ENDBRANCH   5  10
BRANCH   6  24
HETATM   24  C   UNL     1      19.461  49.213  48.231  1.00  0.00    -0.024 A 
HETATM   25  C   UNL     1      19.663  49.444  49.617  1.00  0.00    -0.053 A 
HETATM   26  C   UNL     1      18.692  48.985  50.675  1.00  0.00     0.049 C 
HETATM   27  C   UNL     1      20.803  50.146  50.043  1.00  0.00     0.014 A 
HETATM   28  C   UNL     1      21.742  50.637  49.133  1.00  0.00    -0.061 A 
HETATM   29  C   UNL     1      22.904  51.462  49.609  1.00  0.00     0.048 C 
HETATM   30  C   UNL     1      21.530  50.433  47.771  1.00  0.00     0.007 A 
HETATM   31  C   UNL     1      20.409  49.730  47.324  1.00  0.00     0.011 A 
ENDBRANCH   6  24
BRANCH   9  32
HETATM   32  C   UNL     1      17.696  50.621  46.380  1.00  0.00     0.293 C 
HETATM   33  O   UNL     1      17.714  51.700  46.958  1.00  0.00    -0.259 OA
BRANCH  32  34
HETATM   34  O   UNL     1      18.171  50.337  45.155  1.00  0.00    -0.323 OA
HETATM   35  C   UNL     1      17.793  51.308  44.172  1.00  0.00     0.213 C 
ENDBRANCH  32  34
ENDBRANCH   9  32
BRANCH   1  36
HETATM   36  C   UNL     1      14.873  49.791  46.116  1.00  0.00     0.056 C 
HETATM   37  C   UNL     1      14.049  49.096  45.033  1.00  0.00     0.011 C 
ENDBRANCH   1  36
TORSDOF 9
ENDMDL
MODEL 5
REMARK VINA RESULT:      -6.6      8.560     14.643
REMARK  9 active torsions:
REMARK  status: ('A' for Active; 'I' for Inactive)
REMARK    1  A    between atoms: C_2  and  C_3 
REMARK    2  A    between atoms: C_7  and  C_8 
REMARK    3  A    between atoms: C_8  and  C_9 
REMARK       I    between atoms: C_9  and  N_10 
REMARK    4  A    between atoms: N_10  and  C_11 
REMARK    5  A    between atoms: C_11  and  C_12 
REMARK    6  A    between atoms: C_12  and  C_13 
REMARK    7  A    between atoms: C_21  and  C_22 
REMARK    8  A    between atoms: C_32  and  C_33 
REMARK    9  A    between atoms: C_33  and  O_34 
ROOT
HETATM    1  C   UNL     1      18.969  47.074  47.934  1.00  0.00     0.051 C 
HETATM    2  N   UNL     1      19.978  47.511  48.770  1.00  0.00    -0.228 NA
HETATM    3  C   UNL     1      20.446  48.694  48.568  1.00  0.00     0.170 C 
HETATM    4  N   UNL     1      19.750  49.816  47.705  1.00  0.00    -0.318 N 
HETATM    5  C   UNL     1      20.373  50.933  47.909  1.00  0.00     0.011 C 
HETATM    6  C   UNL     1      18.388  49.404  47.303  1.00  0.00     0.166 C 
HETATM    7  S   UNL     1      21.895  49.268  49.342  1.00  0.00    -0.086 SA
HETATM    8  C   UNL     1      21.810  50.789  48.361  1.00  0.00     0.135 C 
HETATM    9  C   UNL     1      18.348  47.918  47.082  1.00  0.00     0.069 C 
ENDROOT
BRANCH   5  10
HETATM   10  C   UNL     1      19.663  52.254  48.029  1.00  0.00     0.156 C 
BRANCH  10  11
HETATM   11  C   UNL     1      18.683  52.140  49.184  1.00  0.00     0.222 C 
HETATM   12  N   UNL     1      17.445  52.697  49.000  1.00  0.00    -0.361 N 
HETATM   13  H   UNL     1      17.132  52.915  48.057  1.00  0.00     0.162 HD
HETATM   14  O   UNL     1      19.051  51.647  50.250  1.00  0.00    -0.273 OA
BRANCH  12  15
HETATM   15  C   UNL     1      16.436  52.659  50.053  1.00  0.00     0.124 C 
BRANCH  15  16
HETATM   16  C   UNL     1      15.033  52.989  49.519  1.00  0.00     0.053 C 
BRANCH  16  17
HETATM   17  C   UNL     1      14.610  54.440  49.801  1.00  0.00     0.189 C 
HETATM   18  N   UNL     1      13.608  54.442  50.969  1.00  0.00    -0.071 N 
HETATM   19  H   UNL     1      13.451  53.476  51.281  1.00  0.00     0.279 HD
HETATM   20  C   UNL     1      14.075  55.210  52.173  1.00  0.00     0.270 C 
HETATM   21  C   UNL     1      12.274  54.948  50.442  1.00  0.00     0.235 C 
HETATM   22  C   UNL     1      12.385  54.764  48.945  1.00  0.00     0.030 C 
HETATM   23  C   UNL     1      13.835  55.110  48.667  1.00  0.00     0.035 C 
ENDBRANCH  16  17
ENDBRANCH  15  16
ENDBRANCH  12  15
ENDBRANCH  10  11
ENDBRANCH   5  10
BRANCH   6  24
HETATM   24  C   UNL     1      17.721  50.230  46.203  1.00  0.00    -0.024 A 
HETATM   25  C   UNL     1      16.328  50.497  46.252  1.00  0.00    -0.053 A 
HETATM   26  C   UNL     1      15.444  50.044  47.387  1.00  0.00     0.049 C 
HETATM   27  C   UNL     1      15.720  51.199  45.197  1.00  0.00     0.014 A 
HETATM   28  C   UNL     1      16.452  51.631  44.089  1.00  0.00    -0.061 A 
HETATM   29  C   UNL     1      15.762  52.298  42.933  1.00  0.00     0.048 C 
HETATM   30  C   UNL     1      17.815  51.344  44.028  1.00  0.00     0.007 A 
HETATM   31  C   UNL     1      18.442  50.656  45.070  1.00  0.00     0.011 A 
ENDBRANCH   6  24
BRANCH   9  32
HETATM   32  C   UNL     1      18.349  47.424  45.690  1.00  0.00     0.293 C 
HETATM   33  O   UNL     1      19.415  47.283  45.106  1.00  0.00    -0.259 OA
BRANCH  32  34
HETATM   34  O   UNL     1      17.122  47.099  45.249  1.00  0.00    -0.323 OA
HETATM   35  C   UNL     1      17.079  45.815  44.618  1.00  0.00     0.213 C 
ENDBRANCH  32  34
ENDBRANCH   9  32
BRANCH   1  36
HETATM   36  C   UNL     1      18.753  45.568  47.952  1.00  0.00     0.056 C 
HETATM   37  C   UNL     1      20.065  44.817  47.722  1.00  0.00     0.011 C 
ENDBRANCH   1  36
TORSDOF 9
ENDMDL
MODEL 6
REMARK VINA RESULT:      -6.5     10.346     13.449
REMARK  9 active torsions:
REMARK  status: ('A' for Active; 'I' for Inactive)
REMARK    1  A    between atoms: C_2  and  C_3 
REMARK    2  A    between atoms: C_7  and  C_8 
REMARK    3  A    between atoms: C_8  and  C_9 
REMARK       I    between atoms: C_9  and  N_10 
REMARK    4  A    between atoms: N_10  and  C_11 
REMARK    5  A    between atoms: C_11  and  C_12 
REMARK    6  A    between atoms: C_12  and  C_13 
REMARK    7  A    between atoms: C_21  and  C_22 
REMARK    8  A    between atoms: C_32  and  C_33 
REMARK    9  A    between atoms: C_33  and  O_34 
ROOT
HETATM    1  C   UNL     1      25.280  48.730  38.523  1.00  0.00     0.051 C 
HETATM    2  N   UNL     1      25.952  49.814  39.052  1.00  0.00    -0.228 NA
HETATM    3  C   UNL     1      26.901  49.574  39.892  1.00  0.00     0.170 C 
HETATM    4  N   UNL     1      27.600  48.176  40.101  1.00  0.00    -0.318 N 
HETATM    5  C   UNL     1      28.648  48.351  40.842  1.00  0.00     0.011 C 
HETATM    6  C   UNL     1      27.161  47.206  39.075  1.00  0.00     0.166 C 
HETATM    7  S   UNL     1      27.636  50.825  40.851  1.00  0.00    -0.086 SA
HETATM    8  C   UNL     1      28.601  49.572  41.735  1.00  0.00     0.135 C 
HETATM    9  C   UNL     1      25.729  47.469  38.703  1.00  0.00     0.069 C 
ENDROOT
BRANCH   5  10
HETATM   10  C   UNL     1      29.946  47.627  40.606  1.00  0.00     0.156 C 
BRANCH  10  11
HETATM   11  C   UNL     1      30.984  48.666  40.223  1.00  0.00     0.222 C 
HETATM   12  N   UNL     1      30.726  49.414  39.104  1.00  0.00    -0.361 N 
HETATM   13  H   UNL     1      29.778  49.450  38.737  1.00  0.00     0.162 HD
HETATM   14  O   UNL     1      32.037  48.739  40.857  1.00  0.00    -0.273 OA
BRANCH  12  15
HETATM   15  C   UNL     1      31.667  50.427  38.639  1.00  0.00     0.124 C 
BRANCH  15  16
HETATM   16  C   UNL     1      31.140  51.852  38.869  1.00  0.00     0.053 C 
BRANCH  16  17
HETATM   17  C   UNL     1      31.980  52.644  39.885  1.00  0.00     0.189 C 
HETATM   18  N   UNL     1      32.590  51.657  40.895  1.00  0.00    -0.071 N 
HETATM   19  H   UNL     1      32.290  50.703  40.659  1.00  0.00     0.279 HD
HETATM   20  C   UNL     1      34.093  51.642  40.902  1.00  0.00     0.270 C 
HETATM   21  C   UNL     1      32.008  51.966  42.265  1.00  0.00     0.235 C 
HETATM   22  C   UNL     1      30.758  52.759  41.955  1.00  0.00     0.030 C 
HETATM   23  C   UNL     1      31.176  53.600  40.766  1.00  0.00     0.035 C 
ENDBRANCH  16  17
ENDBRANCH  15  16
ENDBRANCH  12  15
ENDBRANCH  10  11
ENDBRANCH   5  10
BRANCH   6  24
HETATM   24  C   UNL     1      27.492  45.737  39.337  1.00  0.00    -0.024 A 
HETATM   25  C   UNL     1      27.959  44.908  38.284  1.00  0.00    -0.053 A 
HETATM   26  C   UNL     1      28.206  45.417  36.886  1.00  0.00     0.049 C 
HETATM   27  C   UNL     1      28.192  43.544  38.528  1.00  0.00     0.014 A 
HETATM   28  C   UNL     1      27.961  42.976  39.783  1.00  0.00    -0.061 A 
HETATM   29  C   UNL     1      28.131  41.498  39.993  1.00  0.00     0.048 C 
HETATM   30  C   UNL     1      27.476  43.784  40.810  1.00  0.00     0.007 A 
HETATM   31  C   UNL     1      27.246  45.145  40.593  1.00  0.00     0.011 A 
ENDBRANCH   6  24
BRANCH   9  32
HETATM   32  C   UNL     1      24.694  46.570  39.254  1.00  0.00     0.293 C 
HETATM   33  O   UNL     1      24.305  45.624  38.582  1.00  0.00    -0.259 OA
BRANCH  32  34
HETATM   34  O   UNL     1      24.355  46.876  40.517  1.00  0.00    -0.323 OA
HETATM   35  C   UNL     1      22.943  46.807  40.747  1.00  0.00     0.213 C 
ENDBRANCH  32  34
ENDBRANCH   9  32
BRANCH   1  36
HETATM   36  C   UNL     1      23.944  49.077  37.883  1.00  0.00     0.056 C 
HETATM   37  C   UNL     1      23.169  50.085  38.731  1.00  0.00     0.011 C 
ENDBRANCH   1  36
TORSDOF 9
ENDMDL
MODEL 7
REMARK VINA RESULT:      -6.5     10.110     13.744
REMARK  9 active torsions:
REMARK  status: ('A' for Active; 'I' for Inactive)
REMARK    1  A    between atoms: C_2  and  C_3 
REMARK    2  A    between atoms: C_7  and  C_8 
REMARK    3  A    between atoms: C_8  and  C_9 
REMARK       I    between atoms: C_9  and  N_10 
REMARK    4  A    between atoms: N_10  and  C_11 
REMARK    5  A    between atoms: C_11  and  C_12 
REMARK    6  A    between atoms: C_12  and  C_13 
REMARK    7  A    between atoms: C_21  and  C_22 
REMARK    8  A    between atoms: C_32  and  C_33 
REMARK    9  A    between atoms: C_33  and  O_34 
ROOT
HETATM    1  C   UNL     1      28.057  44.948  39.618  1.00  0.00     0.051 C 
HETATM    2  N   UNL     1      29.239  45.639  39.799  1.00  0.00    -0.228 NA
HETATM    3  C   UNL     1      29.251  46.889  39.487  1.00  0.00     0.170 C 
HETATM    4  N   UNL     1      27.973  47.784  39.259  1.00  0.00    -0.318 N 
HETATM    5  C   UNL     1      28.349  49.023  39.192  1.00  0.00     0.011 C 
HETATM    6  C   UNL     1      26.743  47.055  39.635  1.00  0.00     0.166 C 
HETATM    7  S   UNL     1      30.723  47.811  39.387  1.00  0.00    -0.086 SA
HETATM    8  C   UNL     1      29.785  49.230  38.764  1.00  0.00     0.135 C 
HETATM    9  C   UNL     1      26.904  45.591  39.333  1.00  0.00     0.069 C 
ENDROOT
BRANCH   5  10
HETATM   10  C   UNL     1      27.564  50.149  39.808  1.00  0.00     0.156 C 
BRANCH  10  11
HETATM   11  C   UNL     1      28.306  50.590  41.058  1.00  0.00     0.222 C 
HETATM   12  N   UNL     1      28.889  51.830  41.023  1.00  0.00    -0.361 N 
HETATM   13  H   UNL     1      28.596  52.499  40.315  1.00  0.00     0.162 HD
HETATM   14  O   UNL     1      28.436  49.808  41.999  1.00  0.00    -0.273 OA
BRANCH  12  15
HETATM   15  C   UNL     1      29.641  52.343  42.164  1.00  0.00     0.124 C 
BRANCH  15  16
HETATM   16  C   UNL     1      31.155  52.336  41.905  1.00  0.00     0.053 C 
BRANCH  16  17
HETATM   17  C   UNL     1      31.906  51.310  42.771  1.00  0.00     0.189 C 
HETATM   18  N   UNL     1      33.376  51.750  42.891  1.00  0.00    -0.071 N 
HETATM   19  H   UNL     1      33.513  52.620  42.361  1.00  0.00     0.279 HD
HETATM   20  C   UNL     1      33.815  52.035  44.300  1.00  0.00     0.270 C 
HETATM   21  C   UNL     1      34.239  50.694  42.219  1.00  0.00     0.235 C 
HETATM   22  C   UNL     1      33.269  49.950  41.328  1.00  0.00     0.030 C 
HETATM   23  C   UNL     1      32.004  49.912  42.161  1.00  0.00     0.035 C 
ENDBRANCH  16  17
ENDBRANCH  15  16
ENDBRANCH  12  15
ENDBRANCH  10  11
ENDBRANCH   5  10
BRANCH   6  24
HETATM   24  C   UNL     1      25.420  47.660  39.168  1.00  0.00    -0.024 A 
HETATM   25  C   UNL     1      24.253  47.539  39.968  1.00  0.00    -0.053 A 
HETATM   26  C   UNL     1      24.251  46.873  41.320  1.00  0.00     0.049 C 
HETATM   27  C   UNL     1      23.031  48.042  39.490  1.00  0.00     0.014 A 
HETATM   28  C   UNL     1      22.930  48.648  38.235  1.00  0.00    -0.061 A 
HETATM   29  C   UNL     1      21.594  49.093  37.710  1.00  0.00     0.048 C 
HETATM   30  C   UNL     1      24.070  48.741  37.438  1.00  0.00     0.007 A 
HETATM   31  C   UNL     1      25.297  48.257  37.896  1.00  0.00     0.011 A 
ENDBRANCH   6  24
BRANCH   9  32
HETATM   32  C   UNL     1      26.236  45.055  38.130  1.00  0.00     0.293 C 
HETATM   33  O   UNL     1      26.778  45.178  37.039  1.00  0.00    -0.259 OA
BRANCH  32  34
HETATM   34  O   UNL     1      25.100  44.396  38.413  1.00  0.00    -0.323 OA
HETATM   35  C   UNL     1      24.079  44.598  37.429  1.00  0.00     0.213 C 
ENDBRANCH  32  34
ENDBRANCH   9  32
BRANCH   1  36
HETATM   36  C   UNL     1      28.214  43.435  39.609  1.00  0.00     0.056 C 
HETATM   37  C   UNL     1      27.661  42.813  40.890  1.00  0.00     0.011 C 
ENDBRANCH   1  36
TORSDOF 9
ENDMDL
MODEL 8
REMARK VINA RESULT:      -6.5     18.656     21.895
REMARK  9 active torsions:
REMARK  status: ('A' for Active; 'I' for Inactive)
REMARK    1  A    between atoms: C_2  and  C_3 
REMARK    2  A    between atoms: C_7  and  C_8 
REMARK    3  A    between atoms: C_8  and  C_9 
REMARK       I    between atoms: C_9  and  N_10 
REMARK    4  A    between atoms: N_10  and  C_11 
REMARK    5  A    between atoms: C_11  and  C_12 
REMARK    6  A    between atoms: C_12  and  C_13 
REMARK    7  A    between atoms: C_21  and  C_22 
REMARK    8  A    between atoms: C_32  and  C_33 
REMARK    9  A    between atoms: C_33  and  O_34 
ROOT
HETATM    1  C   UNL     1      41.247  47.369  66.484  1.00  0.00     0.051 C 
HETATM    2  N   UNL     1      40.355  48.422  66.529  1.00  0.00    -0.228 NA
HETATM    3  C   UNL     1      39.293  48.332  65.805  1.00  0.00     0.170 C 
HETATM    4  N   UNL     1      38.741  47.005  65.156  1.00  0.00    -0.318 N 
HETATM    5  C   UNL     1      37.550  47.238  64.700  1.00  0.00     0.011 C 
HETATM    6  C   UNL     1      39.493  45.827  65.639  1.00  0.00     0.166 C 
HETATM    7  S   UNL     1      38.231  49.684  65.535  1.00  0.00    -0.086 SA
HETATM    8  C   UNL     1      37.267  48.687  64.369  1.00  0.00     0.135 C 
HETATM    9  C   UNL     1      40.929  46.203  65.882  1.00  0.00     0.069 C 
ENDROOT
BRANCH   5  10
HETATM   10  C   UNL     1      36.426  46.244  64.806  1.00  0.00     0.156 C 
BRANCH  10  11
HETATM   11  C   UNL     1      35.922  46.279  66.238  1.00  0.00     0.222 C 
HETATM   12  N   UNL     1      35.945  45.096  66.930  1.00  0.00    -0.361 N 
HETATM   13  H   UNL     1      36.521  44.330  66.587  1.00  0.00     0.162 HD
HETATM   14  O   UNL     1      35.437  47.316  66.689  1.00  0.00    -0.273 OA
BRANCH  12  15
HETATM   15  C   UNL     1      35.465  45.016  68.305  1.00  0.00     0.124 C 
BRANCH  15  16
HETATM   16  C   UNL     1      36.578  44.599  69.279  1.00  0.00     0.053 C 
BRANCH  16  17
HETATM   17  C   UNL     1      37.006  45.738  70.221  1.00  0.00     0.189 C 
HETATM   18  N   UNL     1      36.605  47.080  69.585  1.00  0.00    -0.071 N 
HETATM   19  H   UNL     1      36.151  46.903  68.680  1.00  0.00     0.279 HD
HETATM   20  C   UNL     1      35.627  47.875  70.404  1.00  0.00     0.270 C 
HETATM   21  C   UNL     1      37.877  47.858  69.286  1.00  0.00     0.235 C 
HETATM   22  C   UNL     1      38.957  46.799  69.293  1.00  0.00     0.030 C 
HETATM   23  C   UNL     1      38.517  45.873  70.410  1.00  0.00     0.035 C 
ENDBRANCH  16  17
ENDBRANCH  15  16
ENDBRANCH  12  15
ENDBRANCH  10  11
ENDBRANCH   5  10
BRANCH   6  24
HETATM   24  C   UNL     1      39.298  44.525  64.863  1.00  0.00    -0.024 A 
HETATM   25  C   UNL     1      39.205  43.287  65.551  1.00  0.00    -0.053 A 
HETATM   26  C   UNL     1      39.237  43.179  67.055  1.00  0.00     0.049 C 
HETATM   27  C   UNL     1      39.095  42.094  64.817  1.00  0.00     0.014 A 
HETATM   28  C   UNL     1      39.088  42.093  63.420  1.00  0.00    -0.061 A 
HETATM   29  C   UNL     1      39.061  40.797  62.660  1.00  0.00     0.048 C 
HETATM   30  C   UNL     1      39.207  43.306  62.745  1.00  0.00     0.007 A 
HETATM   31  C   UNL     1      39.308  44.506  63.453  1.00  0.00     0.011 A 
ENDBRANCH   6  24
BRANCH   9  32
HETATM   32  C   UNL     1      41.932  45.787  64.881  1.00  0.00     0.293 C 
HETATM   33  O   UNL     1      42.122  46.489  63.896  1.00  0.00    -0.259 OA
BRANCH  32  34
HETATM   34  O   UNL     1      42.599  44.676  65.239  1.00  0.00    -0.323 OA
HETATM   35  C   UNL     1      44.020  44.849  65.214  1.00  0.00     0.213 C 
ENDBRANCH  32  34
ENDBRANCH   9  32
BRANCH   1  36
HETATM   36  C   UNL     1      42.633  47.703  67.017  1.00  0.00     0.056 C 
HETATM   37  C   UNL     1      42.584  48.060  68.502  1.00  0.00     0.011 C 
ENDBRANCH   1  36
TORSDOF 9
ENDMDL
MODEL 9
REMARK VINA RESULT:      -6.5      2.895      6.085
REMARK  9 active torsions:
REMARK  status: ('A' for Active; 'I' for Inactive)
REMARK    1  A    between atoms: C_2  and  C_3 
REMARK    2  A    between atoms: C_7  and  C_8 
REMARK    3  A    between atoms: C_8  and  C_9 
REMARK       I    between atoms: C_9  and  N_10 
REMARK    4  A    between atoms: N_10  and  C_11 
REMARK    5  A    between atoms: C_11  and  C_12 
REMARK    6  A    between atoms: C_12  and  C_13 
REMARK    7  A    between atoms: C_21  and  C_22 
REMARK    8  A    between atoms: C_32  and  C_33 
REMARK    9  A    between atoms: C_33  and  O_34 
ROOT
HETATM    1  C   UNL     1      28.866  43.768  53.364  1.00  0.00     0.051 C 
HETATM    2  N   UNL     1      29.289  42.512  52.974  1.00  0.00    -0.228 NA
HETATM    3  C   UNL     1      28.594  41.903  52.076  1.00  0.00     0.170 C 
HETATM    4  N   UNL     1      27.530  42.583  51.130  1.00  0.00    -0.318 N 
HETATM    5  C   UNL     1      27.201  41.733  50.209  1.00  0.00     0.011 C 
HETATM    6  C   UNL     1      27.560  44.054  51.271  1.00  0.00     0.166 C 
HETATM    7  S   UNL     1      28.829  40.222  51.696  1.00  0.00    -0.086 SA
HETATM    8  C   UNL     1      27.402  40.280  50.582  1.00  0.00     0.135 C 
HETATM    9  C   UNL     1      27.899  44.425  52.688  1.00  0.00     0.069 C 
ENDROOT
BRANCH   5  10
HETATM   10  C   UNL     1      26.969  42.130  48.777  1.00  0.00     0.156 C 
BRANCH  10  11
HETATM   11  C   UNL     1      25.587  41.637  48.386  1.00  0.00     0.222 C 
HETATM   12  N   UNL     1      25.398  41.311  47.068  1.00  0.00    -0.361 N 
HETATM   13  H   UNL     1      26.208  41.149  46.474  1.00  0.00     0.162 HD
HETATM   14  O   UNL     1      24.682  41.633  49.220  1.00  0.00    -0.273 OA
BRANCH  12  15
HETATM   15  C   UNL     1      24.103  40.844  46.584  1.00  0.00     0.124 C 
BRANCH  15  16
HETATM   16  C   UNL     1      23.383  41.911  45.745  1.00  0.00     0.053 C 
BRANCH  16  17
HETATM   17  C   UNL     1      22.168  42.520  46.466  1.00  0.00     0.189 C 
HETATM   18  N   UNL     1      21.218  43.114  45.412  1.00  0.00    -0.071 N 
HETATM   19  H   UNL     1      21.619  42.971  44.476  1.00  0.00     0.279 HD
HETATM   20  C   UNL     1      19.855  42.481  45.393  1.00  0.00     0.270 C 
HETATM   21  C   UNL     1      21.154  44.617  45.629  1.00  0.00     0.235 C 
HETATM   22  C   UNL     1      22.394  44.916  46.444  1.00  0.00     0.030 C 
HETATM   23  C   UNL     1      22.493  43.714  47.362  1.00  0.00     0.035 C 
ENDBRANCH  16  17
ENDBRANCH  15  16
ENDBRANCH  12  15
ENDBRANCH  10  11
ENDBRANCH   5  10
BRANCH   6  24
HETATM   24  C   UNL     1      26.381  44.823  50.676  1.00  0.00    -0.024 A 
HETATM   25  C   UNL     1      26.604  45.994  49.906  1.00  0.00    -0.053 A 
HETATM   26  C   UNL     1      27.981  46.517  49.584  1.00  0.00     0.049 C 
HETATM   27  C   UNL     1      25.504  46.725  49.425  1.00  0.00     0.014 A 
HETATM   28  C   UNL     1      24.191  46.336  49.698  1.00  0.00    -0.061 A 
HETATM   29  C   UNL     1      23.036  47.186  49.250  1.00  0.00     0.048 C 
HETATM   30  C   UNL     1      23.973  45.201  50.478  1.00  0.00     0.007 A 
HETATM   31  C   UNL     1      25.050  44.453  50.959  1.00  0.00     0.011 A 
ENDBRANCH   6  24
BRANCH   9  32
HETATM   32  C   UNL     1      26.801  44.881  53.566  1.00  0.00     0.293 C 
HETATM   33  O   UNL     1      26.014  44.059  54.015  1.00  0.00    -0.259 OA
BRANCH  32  34
HETATM   34  O   UNL     1      26.861  46.196  53.836  1.00  0.00    -0.323 OA
HETATM   35  C   UNL     1      25.618  46.868  53.605  1.00  0.00     0.213 C 
ENDBRANCH  32  34
ENDBRANCH   9  32
BRANCH   1  36
HETATM   36  C   UNL     1      29.462  44.246  54.680  1.00  0.00     0.056 C 
HETATM   37  C   UNL     1      30.462  43.232  55.235  1.00  0.00     0.011 C 
ENDBRANCH   1  36
TORSDOF 9
ENDMDL
MODEL 10
REMARK VINA RESULT:      -6.5     18.564     21.183
REMARK  9 active torsions:
REMARK  status: ('A' for Active; 'I' for Inactive)
REMARK    1  A    between atoms: C_2  and  C_3 
REMARK    2  A    between atoms: C_7  and  C_8 
REMARK    3  A    between atoms: C_8  and  C_9 
REMARK       I    between atoms: C_9  and  N_10 
REMARK    4  A    between atoms: N_10  and  C_11 
REMARK    5  A    between atoms: C_11  and  C_12 
REMARK    6  A    between atoms: C_12  and  C_13 
REMARK    7  A    between atoms: C_21  and  C_22 
REMARK    8  A    between atoms: C_32  and  C_33 
REMARK    9  A    between atoms: C_33  and  O_34 
ROOT
HETATM    1  C   UNL     1      38.518  46.703  66.765  1.00  0.00     0.051 C 
HETATM    2  N   UNL     1      37.636  45.962  66.003  1.00  0.00    -0.228 NA
HETATM    3  C   UNL     1      38.101  45.380  64.952  1.00  0.00     0.170 C 
HETATM    4  N   UNL     1      39.629  45.136  64.645  1.00  0.00    -0.318 N 
HETATM    5  C   UNL     1      39.719  44.331  63.634  1.00  0.00     0.011 C 
HETATM    6  C   UNL     1      40.465  45.491  65.811  1.00  0.00     0.166 C 
HETATM    7  S   UNL     1      37.069  44.661  63.750  1.00  0.00    -0.086 SA
HETATM    8  C   UNL     1      38.517  44.327  62.714  1.00  0.00     0.135 C 
HETATM    9  C   UNL     1      39.850  46.649  66.548  1.00  0.00     0.069 C 
ENDROOT
BRANCH   5  10
HETATM   10  C   UNL     1      40.752  43.241  63.547  1.00  0.00     0.156 C 
BRANCH  10  11
HETATM   11  C   UNL     1      40.102  41.958  64.037  1.00  0.00     0.222 C 
HETATM   12  N   UNL     1      39.931  40.961  63.113  1.00  0.00    -0.361 N 
HETATM   13  H   UNL     1      40.460  40.991  62.244  1.00  0.00     0.162 HD
HETATM   14  O   UNL     1      39.680  41.890  65.191  1.00  0.00    -0.273 OA
BRANCH  12  15
HETATM   15  C   UNL     1      39.301  39.696  63.475  1.00  0.00     0.124 C 
BRANCH  15  16
HETATM   16  C   UNL     1      40.284  38.518  63.391  1.00  0.00     0.053 C 
BRANCH  16  17
HETATM   17  C   UNL     1      41.187  38.402  64.630  1.00  0.00     0.189 C 
HETATM   18  N   UNL     1      41.898  37.038  64.595  1.00  0.00    -0.071 N 
HETATM   19  H   UNL     1      41.599  36.522  63.758  1.00  0.00     0.279 HD
HETATM   20  C   UNL     1      43.396  37.131  64.527  1.00  0.00     0.270 C 
HETATM   21  C   UNL     1      41.423  36.229  65.792  1.00  0.00     0.235 C 
HETATM   22  C   UNL     1      40.135  36.911  66.200  1.00  0.00     0.030 C 
HETATM   23  C   UNL     1      40.439  38.377  65.963  1.00  0.00     0.035 C 
ENDBRANCH  16  17
ENDBRANCH  15  16
ENDBRANCH  12  15
ENDBRANCH  10  11
ENDBRANCH   5  10
BRANCH   6  24
HETATM   24  C   UNL     1      41.968  45.622  65.562  1.00  0.00    -0.024 A 
HETATM   25  C   UNL     1      42.898  45.226  66.558  1.00  0.00    -0.053 A 
HETATM   26  C   UNL     1      42.483  44.617  67.874  1.00  0.00     0.049 C 
HETATM   27  C   UNL     1      44.272  45.417  66.337  1.00  0.00     0.014 A 
HETATM   28  C   UNL     1      44.749  46.003  65.162  1.00  0.00    -0.061 A 
HETATM   29  C   UNL     1      46.216  46.279  64.990  1.00  0.00     0.048 C 
HETATM   30  C   UNL     1      43.834  46.416  64.195  1.00  0.00     0.007 A 
HETATM   31  C   UNL     1      42.464  46.227  64.389  1.00  0.00     0.011 A 
ENDBRANCH   6  24
BRANCH   9  32
HETATM   32  C   UNL     1      40.451  47.986  66.362  1.00  0.00     0.293 C 
HETATM   33  O   UNL     1      41.217  48.420  67.212  1.00  0.00    -0.259 OA
BRANCH  32  34
HETATM   34  O   UNL     1      40.125  48.546  65.185  1.00  0.00    -0.323 OA
HETATM   35  C   UNL     1      39.591  49.867  65.327  1.00  0.00     0.213 C 
ENDBRANCH  32  34
ENDBRANCH   9  32
BRANCH   1  36
HETATM   36  C   UNL     1      37.849  47.674  67.726  1.00  0.00     0.056 C 
HETATM   37  C   UNL     1      36.649  48.359  67.074  1.00  0.00     0.011 C 
ENDBRANCH   1  36
TORSDOF 9
ENDMDL
