MODEL 1
REMARK VINA RESULT:      -9.1      0.000      0.000
REMARK  5 active torsions:
REMARK  status: ('A' for Active; 'I' for Inactive)
REMARK    1  A    between atoms: C_3  and  C_4 
REMARK    2  A    between atoms: C_4  and  N_5 
REMARK       I    between atoms: N_5  and  C_6 
REMARK    3  A    between atoms: C_6  and  C_7 
REMARK    4  A    between atoms: C_10  and  N_11 
REMARK       I    between atoms: N_11  and  C_12 
REMARK       I    between atoms: C_12  and  N_13 
REMARK    5  A    between atoms: N_13  and  C_14 
ROOT
HETATM    1  C   UNL     1      26.865  44.954  52.044  1.00  0.00     0.032 A 
HETATM    2  C   UNL     1      26.611  44.745  50.684  1.00  0.00     0.019 A 
HETATM    3  C   UNL     1      25.776  45.625  49.980  1.00  0.00     0.030 A 
HETATM    4  C   UNL     1      25.185  46.714  50.623  1.00  0.00     0.036 A 
HETATM    5  C   UNL     1      25.474  46.941  51.974  1.00  0.00     0.030 A 
HETATM    6  C   UNL     1      26.309  46.069  52.678  1.00  0.00     0.019 A 
ENDROOT
BRANCH   1   7
HETATM    7  C   UNL     1      27.725  44.043  52.850  1.00  0.00     0.251 C 
HETATM    8  N   UNL     1      28.545  44.633  53.789  1.00  0.00    -0.353 N 
HETATM    9  H   UNL     1      28.700  45.630  53.746  1.00  0.00     0.163 HD
HETATM   10  O   UNL     1      27.709  42.837  52.634  1.00  0.00    -0.268 OA
BRANCH   8  11
HETATM   11  C   UNL     1      29.545  43.845  54.481  1.00  0.00     0.164 C 
BRANCH  11  12
HETATM   12  C   UNL     1      29.919  44.457  55.801  1.00  0.00    -0.002 A 
HETATM   13  C   UNL     1      29.202  45.546  56.319  1.00  0.00     0.012 A 
HETATM   14  C   UNL     1      29.527  46.082  57.568  1.00  0.00     0.001 A 
HETATM   15  C   UNL     1      30.566  45.531  58.317  1.00  0.00     0.003 A 
HETATM   16  C   UNL     1      31.280  44.443  57.817  1.00  0.00     0.043 A 
HETATM   17  C   UNL     1      30.951  43.915  56.572  1.00  0.00     0.124 A 
HETATM   18  F   UNL     1      31.646  42.863  56.117  1.00  0.00    -0.205 F 
ENDBRANCH  11  12
ENDBRANCH   8  11
ENDBRANCH   1   7
BRANCH   4  19
HETATM   19  N   UNL     1      24.315  47.626  49.992  1.00  0.00    -0.309 N 
HETATM   20  C   UNL     1      24.650  48.702  49.214  1.00  0.00     0.325 C 
HETATM   21  N   UNL     1      23.611  49.469  48.757  1.00  0.00    -0.306 N 
HETATM   22  O   UNL     1      25.785  48.992  48.842  1.00  0.00    -0.247 OA
HETATM   23  H   UNL     1      23.891  50.113  48.028  1.00  0.00     0.171 HD
HETATM   24  H   UNL     1      23.355  47.328  49.909  1.00  0.00     0.170 HD
BRANCH  21  25
HETATM   25  C   UNL     1      22.309  49.569  49.206  1.00  0.00     0.072 A 
HETATM   26  C   UNL     1      21.178  48.733  49.071  1.00  0.00     0.169 A 
HETATM   27  N   UNL     1      20.096  49.235  49.672  1.00  0.00    -0.185 NA
HETATM   28  N   UNL     1      20.543  50.370  50.233  1.00  0.00    -0.287 N 
HETATM   29  H   UNL     1      19.889  50.934  50.767  1.00  0.00     0.188 HD
HETATM   30  C   UNL     1      21.867  50.604  49.997  1.00  0.00     0.140 A 
ENDBRANCH  21  25
ENDBRANCH   4  19
TORSDOF 5
ENDMDL
MODEL 2
REMARK VINA RESULT:      -8.8      0.896      1.527
REMARK  5 active torsions:
REMARK  status: ('A' for Active; 'I' for Inactive)
REMARK    1  A    between atoms: C_3  and  C_4 
REMARK    2  A    between atoms: C_4  and  N_5 
REMARK       I    between atoms: N_5  and  C_6 
REMARK    3  A    between atoms: C_6  and  C_7 
REMARK    4  A    between atoms: C_10  and  N_11 
REMARK       I    between atoms: N_11  and  C_12 
REMARK       I    between atoms: C_12  and  N_13 
REMARK    5  A    between atoms: N_13  and  C_14 
ROOT
HETATM    1  C   UNL     1      26.845  44.862  51.904  1.00  0.00     0.032 A 
HETATM    2  C   UNL     1      26.110  45.823  52.608  1.00  0.00     0.019 A 
HETATM    3  C   UNL     1      25.113  46.563  51.957  1.00  0.00     0.030 A 
HETATM    4  C   UNL     1      24.843  46.357  50.603  1.00  0.00     0.036 A 
HETATM    5  C   UNL     1      25.554  45.367  49.914  1.00  0.00     0.030 A 
HETATM    6  C   UNL     1      26.546  44.624  50.559  1.00  0.00     0.019 A 
ENDROOT
BRANCH   1   7
HETATM    7  C   UNL     1      27.931  44.060  52.535  1.00  0.00     0.251 C 
HETATM    8  N   UNL     1      28.388  44.490  53.762  1.00  0.00    -0.353 N 
HETATM    9  H   UNL     1      28.147  45.420  54.075  1.00  0.00     0.163 HD
HETATM   10  O   UNL     1      28.399  43.094  51.943  1.00  0.00    -0.268 OA
BRANCH   8  11
HETATM   11  C   UNL     1      29.563  43.884  54.356  1.00  0.00     0.164 C 
BRANCH  11  12
HETATM   12  C   UNL     1      29.883  44.487  55.694  1.00  0.00    -0.002 A 
HETATM   13  C   UNL     1      29.135  45.562  56.197  1.00  0.00     0.012 A 
HETATM   14  C   UNL     1      29.410  46.090  57.461  1.00  0.00     0.001 A 
HETATM   15  C   UNL     1      30.429  45.544  58.241  1.00  0.00     0.003 A 
HETATM   16  C   UNL     1      31.174  44.470  57.756  1.00  0.00     0.043 A 
HETATM   17  C   UNL     1      30.895  43.950  56.495  1.00  0.00     0.124 A 
HETATM   18  F   UNL     1      31.618  42.911  56.055  1.00  0.00    -0.205 F 
ENDBRANCH  11  12
ENDBRANCH   8  11
ENDBRANCH   1   7
BRANCH   4  19
HETATM   19  N   UNL     1      23.876  47.078  49.873  1.00  0.00    -0.309 N 
HETATM   20  C   UNL     1      23.985  48.344  49.362  1.00  0.00     0.325 C 
HETATM   21  N   UNL     1      22.875  48.843  48.733  1.00  0.00    -0.306 N 
HETATM   22  O   UNL     1      25.004  49.031  49.361  1.00  0.00    -0.247 OA
HETATM   23  H   UNL     1      23.072  49.680  48.198  1.00  0.00     0.171 HD
HETATM   24  H   UNL     1      23.121  46.531  49.488  1.00  0.00     0.170 HD
BRANCH  21  25
HETATM   25  C   UNL     1      21.553  48.452  48.810  1.00  0.00     0.072 A 
HETATM   26  C   UNL     1      20.443  48.948  49.529  1.00  0.00     0.169 A 
HETATM   27  N   UNL     1      19.332  48.242  49.306  1.00  0.00    -0.185 NA
HETATM   28  N   UNL     1      19.716  47.321  48.408  1.00  0.00    -0.287 N 
HETATM   29  H   UNL     1      19.025  46.660  48.069  1.00  0.00     0.188 HD
HETATM   30  C   UNL     1      21.034  47.417  48.066  1.00  0.00     0.140 A 
ENDBRANCH  21  25
ENDBRANCH   4  19
TORSDOF 5
ENDMDL
MODEL 3
REMARK VINA RESULT:      -8.8      1.930      2.712
REMARK  5 active torsions:
REMARK  status: ('A' for Active; 'I' for Inactive)
REMARK    1  A    between atoms: C_3  and  C_4 
REMARK    2  A    between atoms: C_4  and  N_5 
REMARK       I    between atoms: N_5  and  C_6 
REMARK    3  A    between atoms: C_6  and  C_7 
REMARK    4  A    between atoms: C_10  and  N_11 
REMARK       I    between atoms: N_11  and  C_12 
REMARK       I    between atoms: C_12  and  N_13 
REMARK    5  A    between atoms: N_13  and  C_14 
ROOT
HETATM    1  C   UNL     1      25.667  45.249  50.146  1.00  0.00     0.032 A 
HETATM    2  C   UNL     1      25.708  46.564  50.624  1.00  0.00     0.019 A 
HETATM    3  C   UNL     1      24.661  47.451  50.338  1.00  0.00     0.030 A 
HETATM    4  C   UNL     1      23.569  47.040  49.570  1.00  0.00     0.036 A 
HETATM    5  C   UNL     1      23.514  45.713  49.127  1.00  0.00     0.030 A 
HETATM    6  C   UNL     1      24.554  44.824  49.414  1.00  0.00     0.019 A 
ENDROOT
BRANCH   1   7
HETATM    7  C   UNL     1      26.758  44.267  50.399  1.00  0.00     0.251 C 
HETATM    8  N   UNL     1      27.100  44.044  51.716  1.00  0.00    -0.353 N 
HETATM    9  H   UNL     1      26.775  44.690  52.421  1.00  0.00     0.163 HD
HETATM   10  O   UNL     1      27.330  43.733  49.456  1.00  0.00    -0.268 OA
BRANCH   8  11
HETATM   11  C   UNL     1      28.269  43.253  52.042  1.00  0.00     0.164 C 
BRANCH  11  12
HETATM   12  C   UNL     1      28.914  43.715  53.317  1.00  0.00    -0.002 A 
HETATM   13  C   UNL     1      28.321  44.713  54.105  1.00  0.00     0.012 A 
HETATM   14  C   UNL     1      28.904  45.107  55.312  1.00  0.00     0.001 A 
HETATM   15  C   UNL     1      30.081  44.502  55.751  1.00  0.00     0.003 A 
HETATM   16  C   UNL     1      30.676  43.503  54.982  1.00  0.00     0.043 A 
HETATM   17  C   UNL     1      30.090  43.117  53.780  1.00  0.00     0.124 A 
HETATM   18  F   UNL     1      30.676  42.147  53.063  1.00  0.00    -0.205 F 
ENDBRANCH  11  12
ENDBRANCH   8  11
ENDBRANCH   1   7
BRANCH   4  19
HETATM   19  N   UNL     1      22.493  47.879  49.218  1.00  0.00    -0.309 N 
HETATM   20  C   UNL     1      22.510  48.949  48.364  1.00  0.00     0.325 C 
HETATM   21  N   UNL     1      21.334  49.639  48.230  1.00  0.00    -0.306 N 
HETATM   22  O   UNL     1      23.461  49.294  47.666  1.00  0.00    -0.247 OA
HETATM   23  H   UNL     1      21.342  50.276  47.443  1.00  0.00     0.171 HD
HETATM   24  H   UNL     1      21.573  47.522  49.429  1.00  0.00     0.170 HD
BRANCH  21  25
HETATM   25  C   UNL     1      20.221  49.675  49.047  1.00  0.00     0.072 A 
HETATM   26  C   UNL     1      19.930  50.363  50.246  1.00  0.00     0.169 A 
HETATM   27  N   UNL     1      18.707  50.090  50.708  1.00  0.00    -0.185 NA
HETATM   28  N   UNL     1      18.195  49.263  49.783  1.00  0.00    -0.287 N 
HETATM   29  H   UNL     1      17.249  48.921  49.912  1.00  0.00     0.188 HD
HETATM   30  C   UNL     1      19.058  48.999  48.758  1.00  0.00     0.140 A 
ENDBRANCH  21  25
ENDBRANCH   4  19
TORSDOF 5
ENDMDL
MODEL 4
REMARK VINA RESULT:      -8.8      4.089     10.401
REMARK  5 active torsions:
REMARK  status: ('A' for Active; 'I' for Inactive)
REMARK    1  A    between atoms: C_3  and  C_4 
REMARK    2  A    between atoms: C_4  and  N_5 
REMARK       I    between atoms: N_5  and  C_6 
REMARK    3  A    between atoms: C_6  and  C_7 
REMARK    4  A    between atoms: C_10  and  N_11 
REMARK       I    between atoms: N_11  and  C_12 
REMARK       I    between atoms: C_12  and  N_13 
REMARK    5  A    between atoms: N_13  and  C_14 
ROOT
HETATM    1  C   UNL     1      23.632  47.041  49.453  1.00  0.00     0.032 A 
HETATM    2  C   UNL     1      24.633  47.574  50.274  1.00  0.00     0.019 A 
HETATM    3  C   UNL     1      25.427  46.725  51.058  1.00  0.00     0.030 A 
HETATM    4  C   UNL     1      25.229  45.342  51.035  1.00  0.00     0.036 A 
HETATM    5  C   UNL     1      24.254  44.812  50.183  1.00  0.00     0.030 A 
HETATM    6  C   UNL     1      23.463  45.654  49.397  1.00  0.00     0.019 A 
ENDROOT
BRANCH   1   7
HETATM    7  C   UNL     1      22.743  47.892  48.614  1.00  0.00     0.251 C 
HETATM    8  N   UNL     1      21.386  47.771  48.827  1.00  0.00    -0.353 N 
HETATM    9  H   UNL     1      21.043  46.982  49.356  1.00  0.00     0.163 HD
HETATM   10  O   UNL     1      23.227  48.623  47.758  1.00  0.00    -0.268 OA
BRANCH   8  11
HETATM   11  C   UNL     1      20.447  48.417  47.932  1.00  0.00     0.164 C 
BRANCH  11  12
HETATM   12  C   UNL     1      19.877  49.669  48.535  1.00  0.00    -0.002 A 
HETATM   13  C   UNL     1      20.218  50.932  48.029  1.00  0.00     0.012 A 
HETATM   14  C   UNL     1      19.650  52.090  48.565  1.00  0.00     0.001 A 
HETATM   15  C   UNL     1      18.727  52.000  49.607  1.00  0.00     0.003 A 
HETATM   16  C   UNL     1      18.373  50.750  50.113  1.00  0.00     0.043 A 
HETATM   17  C   UNL     1      18.944  49.601  49.574  1.00  0.00     0.124 A 
HETATM   18  F   UNL     1      18.581  48.410  50.071  1.00  0.00    -0.205 F 
ENDBRANCH  11  12
ENDBRANCH   8  11
ENDBRANCH   1   7
BRANCH   4  19
HETATM   19  N   UNL     1      25.968  44.428  51.813  1.00  0.00    -0.309 N 
HETATM   20  C   UNL     1      25.713  44.023  53.096  1.00  0.00     0.325 C 
HETATM   21  N   UNL     1      26.620  43.158  53.652  1.00  0.00    -0.306 N 
HETATM   22  O   UNL     1      24.717  44.313  53.755  1.00  0.00    -0.247 OA
HETATM   23  H   UNL     1      26.281  42.732  54.505  1.00  0.00     0.171 HD
HETATM   24  H   UNL     1      26.609  43.838  51.303  1.00  0.00     0.170 HD
BRANCH  21  25
HETATM   25  C   UNL     1      27.924  42.879  53.293  1.00  0.00     0.072 A 
HETATM   26  C   UNL     1      29.137  43.585  53.449  1.00  0.00     0.169 A 
HETATM   27  N   UNL     1      30.180  42.931  52.933  1.00  0.00    -0.185 NA
HETATM   28  N   UNL     1      29.646  41.783  52.488  1.00  0.00    -0.287 N 
HETATM   29  H   UNL     1      30.260  41.100  52.055  1.00  0.00     0.188 HD
HETATM   30  C   UNL     1      28.299  41.697  52.698  1.00  0.00     0.140 A 
ENDBRANCH  21  25
ENDBRANCH   4  19
TORSDOF 5
ENDMDL
MODEL 5
REMARK VINA RESULT:      -8.5      2.503      3.213
REMARK  5 active torsions:
REMARK  status: ('A' for Active; 'I' for Inactive)
REMARK    1  A    between atoms: C_3  and  C_4 
REMARK    2  A    between atoms: C_4  and  N_5 
REMARK       I    between atoms: N_5  and  C_6 
REMARK    3  A    between atoms: C_6  and  C_7 
REMARK    4  A    between atoms: C_10  and  N_11 
REMARK       I    between atoms: N_11  and  C_12 
REMARK       I    between atoms: C_12  and  N_13 
REMARK    5  A    between atoms: N_13  and  C_14 
ROOT
HETATM    1  C   UNL     1      27.607  43.885  52.244  1.00  0.00     0.032 A 
HETATM    2  C   UNL     1      26.733  44.795  52.848  1.00  0.00     0.019 A 
HETATM    3  C   UNL     1      25.513  45.114  52.234  1.00  0.00     0.030 A 
HETATM    4  C   UNL     1      25.157  44.534  51.015  1.00  0.00     0.036 A 
HETATM    5  C   UNL     1      26.017  43.595  50.435  1.00  0.00     0.030 A 
HETATM    6  C   UNL     1      27.232  43.271  51.045  1.00  0.00     0.019 A 
ENDROOT
BRANCH   1   7
HETATM    7  C   UNL     1      28.925  43.522  52.836  1.00  0.00     0.251 C 
HETATM    8  N   UNL     1      28.982  43.423  54.210  1.00  0.00    -0.353 N 
HETATM    9  H   UNL     1      28.226  43.804  54.760  1.00  0.00     0.163 HD
HETATM   10  O   UNL     1      29.900  43.368  52.109  1.00  0.00    -0.268 OA
BRANCH   8  11
HETATM   11  C   UNL     1      30.259  43.262  54.877  1.00  0.00     0.164 C 
BRANCH  11  12
HETATM   12  C   UNL     1      30.387  44.178  56.060  1.00  0.00    -0.002 A 
HETATM   13  C   UNL     1      29.540  45.287  56.208  1.00  0.00     0.012 A 
HETATM   14  C   UNL     1      29.635  46.110  57.333  1.00  0.00     0.001 A 
HETATM   15  C   UNL     1      30.571  45.830  58.328  1.00  0.00     0.003 A 
HETATM   16  C   UNL     1      31.413  44.726  58.197  1.00  0.00     0.043 A 
HETATM   17  C   UNL     1      31.313  43.912  57.073  1.00  0.00     0.124 A 
HETATM   18  F   UNL     1      32.127  42.851  56.974  1.00  0.00    -0.205 F 
ENDBRANCH  11  12
ENDBRANCH   8  11
ENDBRANCH   1   7
BRANCH   4  19
HETATM   19  N   UNL     1      23.963  44.823  50.324  1.00  0.00    -0.309 N 
HETATM   20  C   UNL     1      22.847  44.037  50.215  1.00  0.00     0.325 C 
HETATM   21  N   UNL     1      21.831  44.527  49.437  1.00  0.00    -0.306 N 
HETATM   22  O   UNL     1      22.657  42.976  50.805  1.00  0.00    -0.247 OA
HETATM   23  H   UNL     1      20.964  44.019  49.559  1.00  0.00     0.171 HD
HETATM   24  H   UNL     1      23.822  45.792  50.081  1.00  0.00     0.170 HD
BRANCH  21  25
HETATM   25  C   UNL     1      21.845  45.506  48.463  1.00  0.00     0.072 A 
HETATM   26  C   UNL     1      22.110  46.893  48.496  1.00  0.00     0.169 A 
HETATM   27  N   UNL     1      21.998  47.464  47.294  1.00  0.00    -0.185 NA
HETATM   28  N   UNL     1      21.707  46.437  46.480  1.00  0.00    -0.287 N 
HETATM   29  H   UNL     1      21.583  46.626  45.491  1.00  0.00     0.188 HD
HETATM   30  C   UNL     1      21.622  45.240  47.131  1.00  0.00     0.140 A 
ENDBRANCH  21  25
ENDBRANCH   4  19
TORSDOF 5
ENDMDL
MODEL 6
REMARK VINA RESULT:      -8.5      3.541      5.025
REMARK  5 active torsions:
REMARK  status: ('A' for Active; 'I' for Inactive)
REMARK    1  A    between atoms: C_3  and  C_4 
REMARK    2  A    between atoms: C_4  and  N_5 
REMARK       I    between atoms: N_5  and  C_6 
REMARK    3  A    between atoms: C_6  and  C_7 
REMARK    4  A    between atoms: C_10  and  N_11 
REMARK       I    between atoms: N_11  and  C_12 
REMARK       I    between atoms: C_12  and  N_13 
REMARK    5  A    between atoms: N_13  and  C_14 
ROOT
HETATM    1  C   UNL     1      26.387  46.015  52.972  1.00  0.00     0.032 A 
HETATM    2  C   UNL     1      25.511  46.758  52.171  1.00  0.00     0.019 A 
HETATM    3  C   UNL     1      24.825  46.139  51.117  1.00  0.00     0.030 A 
HETATM    4  C   UNL     1      25.007  44.781  50.848  1.00  0.00     0.036 A 
HETATM    5  C   UNL     1      25.854  44.035  51.676  1.00  0.00     0.030 A 
HETATM    6  C   UNL     1      26.537  44.646  52.730  1.00  0.00     0.019 A 
ENDROOT
BRANCH   1   7
HETATM    7  C   UNL     1      27.160  46.620  54.092  1.00  0.00     0.251 C 
HETATM    8  N   UNL     1      28.130  45.831  54.674  1.00  0.00    -0.353 N 
HETATM    9  H   UNL     1      28.130  44.839  54.487  1.00  0.00     0.163 HD
HETATM   10  O   UNL     1      26.893  47.752  54.479  1.00  0.00    -0.268 OA
BRANCH   8  11
HETATM   11  C   UNL     1      28.795  46.268  55.885  1.00  0.00     0.164 C 
BRANCH  11  12
HETATM   12  C   UNL     1      29.804  45.262  56.358  1.00  0.00    -0.002 A 
HETATM   13  C   UNL     1      30.169  44.172  55.553  1.00  0.00     0.012 A 
HETATM   14  C   UNL     1      31.140  43.264  55.981  1.00  0.00     0.001 A 
HETATM   15  C   UNL     1      31.766  43.438  57.215  1.00  0.00     0.003 A 
HETATM   16  C   UNL     1      31.420  44.522  58.021  1.00  0.00     0.043 A 
HETATM   17  C   UNL     1      30.450  45.421  57.588  1.00  0.00     0.124 A 
HETATM   18  F   UNL     1      30.141  46.460  58.376  1.00  0.00    -0.205 F 
ENDBRANCH  11  12
ENDBRANCH   8  11
ENDBRANCH   1   7
BRANCH   4  19
HETATM   19  N   UNL     1      24.375  44.095  49.791  1.00  0.00    -0.309 N 
HETATM   20  C   UNL     1      23.143  43.497  49.800  1.00  0.00     0.325 C 
HETATM   21  N   UNL     1      22.776  42.844  48.652  1.00  0.00    -0.306 N 
HETATM   22  O   UNL     1      22.324  43.555  50.715  1.00  0.00    -0.247 OA
HETATM   23  H   UNL     1      21.792  42.607  48.635  1.00  0.00     0.171 HD
HETATM   24  H   UNL     1      24.759  44.258  48.873  1.00  0.00     0.170 HD
BRANCH  21  25
HETATM   25  C   UNL     1      23.545  42.380  47.604  1.00  0.00     0.072 A 
HETATM   26  C   UNL     1      24.492  41.337  47.492  1.00  0.00     0.169 A 
HETATM   27  N   UNL     1      25.011  41.246  46.266  1.00  0.00    -0.185 NA
HETATM   28  N   UNL     1      24.365  42.199  45.576  1.00  0.00    -0.287 N 
HETATM   29  H   UNL     1      24.587  42.318  44.593  1.00  0.00     0.188 HD
HETATM   30  C   UNL     1      23.463  42.894  46.330  1.00  0.00     0.140 A 
ENDBRANCH  21  25
ENDBRANCH   4  19
TORSDOF 5
ENDMDL
MODEL 7
REMARK VINA RESULT:      -8.4      1.738      2.267
REMARK  5 active torsions:
REMARK  status: ('A' for Active; 'I' for Inactive)
REMARK    1  A    between atoms: C_3  and  C_4 
REMARK    2  A    between atoms: C_4  and  N_5 
REMARK       I    between atoms: N_5  and  C_6 
REMARK    3  A    between atoms: C_6  and  C_7 
REMARK    4  A    between atoms: C_10  and  N_11 
REMARK       I    between atoms: N_11  and  C_12 
REMARK       I    between atoms: C_12  and  N_13 
REMARK    5  A    between atoms: N_13  and  C_14 
ROOT
HETATM    1  C   UNL     1      26.887  44.245  51.754  1.00  0.00     0.032 A 
HETATM    2  C   UNL     1      25.601  44.305  52.301  1.00  0.00     0.019 A 
HETATM    3  C   UNL     1      24.617  45.106  51.704  1.00  0.00     0.030 A 
HETATM    4  C   UNL     1      24.907  45.857  50.563  1.00  0.00     0.036 A 
HETATM    5  C   UNL     1      26.184  45.763  49.997  1.00  0.00     0.030 A 
HETATM    6  C   UNL     1      27.166  44.962  50.586  1.00  0.00     0.019 A 
ENDROOT
BRANCH   1   7
HETATM    7  C   UNL     1      27.980  43.429  52.354  1.00  0.00     0.251 C 
HETATM    8  N   UNL     1      28.675  43.996  53.401  1.00  0.00    -0.353 N 
HETATM    9  H   UNL     1      28.581  44.987  53.570  1.00  0.00     0.163 HD
HETATM   10  O   UNL     1      28.246  42.327  51.888  1.00  0.00    -0.268 OA
BRANCH   8  11
HETATM   11  C   UNL     1      29.867  43.354  53.917  1.00  0.00     0.164 C 
BRANCH  11  12
HETATM   12  C   UNL     1      30.222  43.860  55.286  1.00  0.00    -0.002 A 
HETATM   13  C   UNL     1      31.092  43.138  56.117  1.00  0.00     0.012 A 
HETATM   14  C   UNL     1      31.453  43.636  57.372  1.00  0.00     0.001 A 
HETATM   15  C   UNL     1      30.956  44.864  57.807  1.00  0.00     0.003 A 
HETATM   16  C   UNL     1      30.099  45.595  56.987  1.00  0.00     0.043 A 
HETATM   17  C   UNL     1      29.743  45.092  55.739  1.00  0.00     0.124 A 
HETATM   18  F   UNL     1      28.924  45.818  54.964  1.00  0.00    -0.205 F 
ENDBRANCH  11  12
ENDBRANCH   8  11
ENDBRANCH   1   7
BRANCH   4  19
HETATM   19  N   UNL     1      23.982  46.706  49.922  1.00  0.00    -0.309 N 
HETATM   20  C   UNL     1      23.167  46.408  48.863  1.00  0.00     0.325 C 
HETATM   21  N   UNL     1      22.391  47.432  48.387  1.00  0.00    -0.306 N 
HETATM   22  O   UNL     1      23.026  45.297  48.357  1.00  0.00    -0.247 OA
HETATM   23  H   UNL     1      21.666  47.113  47.756  1.00  0.00     0.171 HD
HETATM   24  H   UNL     1      23.724  47.536  50.433  1.00  0.00     0.170 HD
BRANCH  21  25
HETATM   25  C   UNL     1      22.517  48.798  48.546  1.00  0.00     0.072 A 
HETATM   26  C   UNL     1      23.457  49.739  48.070  1.00  0.00     0.169 A 
HETATM   27  N   UNL     1      23.194  50.980  48.486  1.00  0.00    -0.185 NA
HETATM   28  N   UNL     1      22.059  50.845  49.191  1.00  0.00    -0.287 N 
HETATM   29  H   UNL     1      21.648  51.674  49.607  1.00  0.00     0.188 HD
HETATM   30  C   UNL     1      21.604  49.558  49.240  1.00  0.00     0.140 A 
ENDBRANCH  21  25
ENDBRANCH   4  19
TORSDOF 5
ENDMDL
MODEL 8
REMARK VINA RESULT:      -8.1      8.011     13.863
REMARK  5 active torsions:
REMARK  status: ('A' for Active; 'I' for Inactive)
REMARK    1  A    between atoms: C_3  and  C_4 
REMARK    2  A    between atoms: C_4  and  N_5 
REMARK       I    between atoms: N_5  and  C_6 
REMARK    3  A    between atoms: C_6  and  C_7 
REMARK    4  A    between atoms: C_10  and  N_11 
REMARK       I    between atoms: N_11  and  C_12 
REMARK       I    between atoms: C_12  and  N_13 
REMARK    5  A    between atoms: N_13  and  C_14 
ROOT
HETATM    1  C   UNL     1      16.172  52.559  49.364  1.00  0.00     0.032 A 
HETATM    2  C   UNL     1      16.008  51.337  48.703  1.00  0.00     0.019 A 
HETATM    3  C   UNL     1      17.091  50.455  48.573  1.00  0.00     0.030 A 
HETATM    4  C   UNL     1      18.344  50.786  49.093  1.00  0.00     0.036 A 
HETATM    5  C   UNL     1      18.493  51.992  49.787  1.00  0.00     0.030 A 
HETATM    6  C   UNL     1      17.415  52.871  49.923  1.00  0.00     0.019 A 
ENDROOT
BRANCH   1   7
HETATM    7  C   UNL     1      15.066  53.546  49.516  1.00  0.00     0.251 C 
HETATM    8  N   UNL     1      15.424  54.876  49.573  1.00  0.00    -0.353 N 
HETATM    9  H   UNL     1      16.392  55.116  49.733  1.00  0.00     0.163 HD
HETATM   10  O   UNL     1      13.909  53.155  49.624  1.00  0.00    -0.268 OA
BRANCH   8  11
HETATM   11  C   UNL     1      14.437  55.883  49.907  1.00  0.00     0.164 C 
BRANCH  11  12
HETATM   12  C   UNL     1      14.812  56.637  51.151  1.00  0.00    -0.002 A 
HETATM   13  C   UNL     1      14.968  58.031  51.128  1.00  0.00     0.012 A 
HETATM   14  C   UNL     1      15.274  58.732  52.298  1.00  0.00     0.001 A 
HETATM   15  C   UNL     1      15.419  58.049  53.505  1.00  0.00     0.003 A 
HETATM   16  C   UNL     1      15.257  56.665  53.542  1.00  0.00     0.043 A 
HETATM   17  C   UNL     1      14.954  55.974  52.373  1.00  0.00     0.124 A 
HETATM   18  F   UNL     1      14.794  54.644  52.436  1.00  0.00    -0.205 F 
ENDBRANCH  11  12
ENDBRANCH   8  11
ENDBRANCH   1   7
BRANCH   4  19
HETATM   19  N   UNL     1      19.485  49.966  48.978  1.00  0.00    -0.309 N 
HETATM   20  C   UNL     1      19.773  48.828  49.682  1.00  0.00     0.325 C 
HETATM   21  N   UNL     1      20.982  48.239  49.420  1.00  0.00    -0.306 N 
HETATM   22  O   UNL     1      19.017  48.261  50.468  1.00  0.00    -0.247 OA
HETATM   23  H   UNL     1      21.053  47.304  49.801  1.00  0.00     0.171 HD
HETATM   24  H   UNL     1      20.034  50.095  48.141  1.00  0.00     0.170 HD
BRANCH  21  25
HETATM   25  C   UNL     1      22.118  48.757  48.830  1.00  0.00     0.072 A 
HETATM   26  C   UNL     1      22.323  49.631  47.739  1.00  0.00     0.169 A 
HETATM   27  N   UNL     1      23.617  49.862  47.504  1.00  0.00    -0.185 NA
HETATM   28  N   UNL     1      24.243  49.174  48.473  1.00  0.00    -0.287 N 
HETATM   29  H   UNL     1      25.257  49.206  48.509  1.00  0.00     0.188 HD
HETATM   30  C   UNL     1      23.386  48.510  49.303  1.00  0.00     0.140 A 
ENDBRANCH  21  25
ENDBRANCH   4  19
TORSDOF 5
ENDMDL
MODEL 9
REMARK VINA RESULT:      -8.0      3.437      4.387
REMARK  5 active torsions:
REMARK  status: ('A' for Active; 'I' for Inactive)
REMARK    1  A    between atoms: C_3  and  C_4 
REMARK    2  A    between atoms: C_4  and  N_5 
REMARK       I    between atoms: N_5  and  C_6 
REMARK    3  A    between atoms: C_6  and  C_7 
REMARK    4  A    between atoms: C_10  and  N_11 
REMARK       I    between atoms: N_11  and  C_12 
REMARK       I    between atoms: C_12  and  N_13 
REMARK    5  A    between atoms: N_13  and  C_14 
ROOT
HETATM    1  C   UNL     1      27.895  42.898  51.824  1.00  0.00     0.032 A 
HETATM    2  C   UNL     1      27.885  44.178  51.259  1.00  0.00     0.019 A 
HETATM    3  C   UNL     1      26.973  44.491  50.241  1.00  0.00     0.030 A 
HETATM    4  C   UNL     1      26.069  43.533  49.775  1.00  0.00     0.036 A 
HETATM    5  C   UNL     1      26.057  42.267  50.371  1.00  0.00     0.030 A 
HETATM    6  C   UNL     1      26.962  41.952  51.389  1.00  0.00     0.019 A 
ENDROOT
BRANCH   1   7
HETATM    7  C   UNL     1      28.853  42.499  52.893  1.00  0.00     0.251 C 
HETATM    8  N   UNL     1      29.399  43.515  53.649  1.00  0.00    -0.353 N 
HETATM    9  H   UNL     1      29.315  44.467  53.321  1.00  0.00     0.163 HD
HETATM   10  O   UNL     1      29.150  41.319  53.039  1.00  0.00    -0.268 OA
BRANCH   8  11
HETATM   11  C   UNL     1      30.475  43.236  54.577  1.00  0.00     0.164 C 
BRANCH  11  12
HETATM   12  C   UNL     1      30.414  44.129  55.783  1.00  0.00    -0.002 A 
HETATM   13  C   UNL     1      29.479  45.172  55.861  1.00  0.00     0.012 A 
HETATM   14  C   UNL     1      29.398  45.971  57.004  1.00  0.00     0.001 A 
HETATM   15  C   UNL     1      30.244  45.733  58.086  1.00  0.00     0.003 A 
HETATM   16  C   UNL     1      31.172  44.694  58.025  1.00  0.00     0.043 A 
HETATM   17  C   UNL     1      31.247  43.902  56.883  1.00  0.00     0.124 A 
HETATM   18  F   UNL     1      32.141  42.904  56.852  1.00  0.00    -0.205 F 
ENDBRANCH  11  12
ENDBRANCH   8  11
ENDBRANCH   1   7
BRANCH   4  19
HETATM   19  N   UNL     1      25.142  43.763  48.739  1.00  0.00    -0.309 N 
HETATM   20  C   UNL     1      23.995  44.509  48.791  1.00  0.00     0.325 C 
HETATM   21  N   UNL     1      23.231  44.532  47.654  1.00  0.00    -0.306 N 
HETATM   22  O   UNL     1      23.635  45.204  49.739  1.00  0.00    -0.247 OA
HETATM   23  H   UNL     1      22.521  45.253  47.674  1.00  0.00     0.171 HD
HETATM   24  H   UNL     1      25.467  43.554  47.807  1.00  0.00     0.170 HD
BRANCH  21  25
HETATM   25  C   UNL     1      23.216  43.675  46.571  1.00  0.00     0.072 A 
HETATM   26  C   UNL     1      23.099  42.273  46.455  1.00  0.00     0.169 A 
HETATM   27  N   UNL     1      23.142  41.858  45.186  1.00  0.00    -0.185 NA
HETATM   28  N   UNL     1      23.241  42.997  44.484  1.00  0.00    -0.287 N 
HETATM   29  H   UNL     1      23.279  42.938  43.471  1.00  0.00     0.188 HD
HETATM   30  C   UNL     1      23.270  44.115  45.268  1.00  0.00     0.140 A 
ENDBRANCH  21  25
ENDBRANCH   4  19
TORSDOF 5
ENDMDL
MODEL 10
REMARK VINA RESULT:      -7.9     13.124     14.055
REMARK  5 active torsions:
REMARK  status: ('A' for Active; 'I' for Inactive)
REMARK    1  A    between atoms: C_3  and  C_4 
REMARK    2  A    between atoms: C_4  and  N_5 
REMARK       I    between atoms: N_5  and  C_6 
REMARK    3  A    between atoms: C_6  and  C_7 
REMARK    4  A    between atoms: C_10  and  N_11 
REMARK       I    between atoms: N_11  and  C_12 
REMARK       I    between atoms: C_12  and  N_13 
REMARK    5  A    between atoms: N_13  and  C_14 
ROOT
HETATM    1  C   UNL     1      35.137  51.363  42.224  1.00  0.00     0.032 A 
HETATM    2  C   UNL     1      34.073  51.412  43.132  1.00  0.00     0.019 A 
HETATM    3  C   UNL     1      32.771  51.666  42.679  1.00  0.00     0.030 A 
HETATM    4  C   UNL     1      32.518  51.878  41.322  1.00  0.00     0.036 A 
HETATM    5  C   UNL     1      33.579  51.789  40.414  1.00  0.00     0.030 A 
HETATM    6  C   UNL     1      34.878  51.532  40.861  1.00  0.00     0.019 A 
ENDROOT
BRANCH   1   7
HETATM    7  C   UNL     1      36.544  51.119  42.647  1.00  0.00     0.251 C 
HETATM    8  N   UNL     1      36.899  51.555  43.906  1.00  0.00    -0.353 N 
HETATM    9  H   UNL     1      36.290  52.199  44.390  1.00  0.00     0.163 HD
HETATM   10  O   UNL     1      37.332  50.589  41.872  1.00  0.00    -0.268 OA
BRANCH   8  11
HETATM   11  C   UNL     1      38.286  51.528  44.323  1.00  0.00     0.164 C 
BRANCH  11  12
HETATM   12  C   UNL     1      38.589  52.614  45.315  1.00  0.00    -0.002 A 
HETATM   13  C   UNL     1      37.796  53.769  45.384  1.00  0.00     0.012 A 
HETATM   14  C   UNL     1      38.057  54.756  46.339  1.00  0.00     0.001 A 
HETATM   15  C   UNL     1      39.107  54.595  47.242  1.00  0.00     0.003 A 
HETATM   16  C   UNL     1      39.897  53.448  47.190  1.00  0.00     0.043 A 
HETATM   17  C   UNL     1      39.632  52.470  46.235  1.00  0.00     0.124 A 
HETATM   18  F   UNL     1      40.400  51.372  46.211  1.00  0.00    -0.205 F 
ENDBRANCH  11  12
ENDBRANCH   8  11
ENDBRANCH   1   7
BRANCH   4  19
HETATM   19  N   UNL     1      31.243  52.165  40.793  1.00  0.00    -0.309 N 
HETATM   20  C   UNL     1      30.665  53.394  40.622  1.00  0.00     0.325 C 
HETATM   21  N   UNL     1      29.385  53.401  40.133  1.00  0.00    -0.306 N 
HETATM   22  O   UNL     1      31.217  54.477  40.803  1.00  0.00    -0.247 OA
HETATM   23  H   UNL     1      29.087  54.320  39.830  1.00  0.00     0.171 HD
HETATM   24  H   UNL     1      30.806  51.416  40.277  1.00  0.00     0.170 HD
BRANCH  21  25
HETATM   25  C   UNL     1      28.436  52.398  40.099  1.00  0.00     0.072 A 
HETATM   26  C   UNL     1      28.058  51.465  39.108  1.00  0.00     0.169 A 
HETATM   27  N   UNL     1      27.065  50.667  39.508  1.00  0.00    -0.185 NA
HETATM   28  N   UNL     1      26.835  51.057  40.772  1.00  0.00    -0.287 N 
HETATM   29  H   UNL     1      26.114  50.577  41.301  1.00  0.00     0.188 HD
HETATM   30  C   UNL     1      27.645  52.079  41.178  1.00  0.00     0.140 A 
ENDBRANCH  21  25
ENDBRANCH   4  19
TORSDOF 5
ENDMDL
