MODEL 1
REMARK VINA RESULT:      -9.1      0.000      0.000
REMARK  8 active torsions:
REMARK  status: ('A' for Active; 'I' for Inactive)
REMARK    1  A    between atoms: C_7  and  C_8 
REMARK    2  A    between atoms: C_11  and  N_12 
REMARK       I    between atoms: N_12  and  C_13 
REMARK    3  A    between atoms: C_13  and  C_14 
REMARK    4  A    between atoms: C_14  and  N_15 
REMARK    5  A    between atoms: N_15  and  C_18 
REMARK    6  A    between atoms: C_18  and  C_19 
REMARK    7  A    between atoms: C_19  and  C_20 
REMARK    8  A    between atoms: C_20  and  O_21 
ROOT
HETATM    1  C   UNL     1      26.366  45.345  52.568  1.00  0.00    -0.000 A 
HETATM    2  C   UNL     1      25.679  44.388  51.809  1.00  0.00     0.016 A 
HETATM    3  C   UNL     1      24.716  44.767  50.862  1.00  0.00     0.030 A 
HETATM    4  C   UNL     1      24.417  46.111  50.647  1.00  0.00     0.034 A 
HETATM    5  C   UNL     1      25.079  47.074  51.417  1.00  0.00     0.030 A 
HETATM    6  C   UNL     1      26.045  46.695  52.358  1.00  0.00     0.016 A 
ENDROOT
BRANCH   4   7
HETATM    7  N   UNL     1      23.503  46.575  49.673  1.00  0.00    -0.326 N 
HETATM    8  C   UNL     1      23.197  47.890  49.397  1.00  0.00     0.247 C 
HETATM    9  O   UNL     1      23.694  48.899  49.896  1.00  0.00    -0.271 OA
HETATM   10  H   UNL     1      23.009  45.841  49.176  1.00  0.00     0.169 HD
BRANCH   8  11
HETATM   11  C   UNL     1      22.076  48.089  48.374  1.00  0.00     0.334 C 
BRANCH  11  12
HETATM   12  N   UNL     1      20.751  48.138  49.099  1.00  0.00    -0.067 N 
HETATM   13  H   UNL     1      20.173  47.357  48.754  1.00  0.00     0.277 HD
HETATM   14  H   UNL     1      20.944  47.870  50.079  1.00  0.00     0.277 HD
BRANCH  12  15
HETATM   15  C   UNL     1      20.020  49.431  49.036  1.00  0.00     0.235 C 
BRANCH  15  16
HETATM   16  C   UNL     1      19.556  49.800  50.439  1.00  0.00     0.053 C 
BRANCH  16  17
HETATM   17  C   UNL     1      18.707  48.695  51.051  1.00  0.00     0.165 C 
BRANCH  17  18
HETATM   18  O   UNL     1      18.720  48.847  52.460  1.00  0.00    -0.401 OA
HETATM   19  H   UNL     1      18.234  48.088  52.839  1.00  0.00     0.209 HD
ENDBRANCH  17  18
ENDBRANCH  16  17
ENDBRANCH  15  16
ENDBRANCH  12  15
ENDBRANCH  11  12
ENDBRANCH   8  11
ENDBRANCH   4   7
BRANCH   1  20
HETATM   20  C   UNL     1      27.437  45.000  53.521  1.00  0.00     0.109 A 
HETATM   21  N   UNL     1      27.745  45.740  54.568  1.00  0.00    -0.240 NA
HETATM   22  C   UNL     1      28.827  45.199  55.242  1.00  0.00     0.075 A 
HETATM   23  C   UNL     1      29.322  44.006  54.716  1.00  0.00     0.036 A 
HETATM   24  C   UNL     1      29.453  45.748  56.378  1.00  0.00     0.033 A 
HETATM   25  C   UNL     1      30.421  43.340  55.283  1.00  0.00     0.028 A 
HETATM   26  S   UNL     1      28.382  43.572  53.343  1.00  0.00    -0.067 SA
HETATM   27  C   UNL     1      31.040  43.903  56.410  1.00  0.00    -0.061 A 
HETATM   28  C   UNL     1      32.233  43.238  57.035  1.00  0.00     0.048 C 
HETATM   29  C   UNL     1      30.556  45.098  56.947  1.00  0.00     0.009 A 
ENDBRANCH   1  20
TORSDOF 8
ENDMDL
MODEL 2
REMARK VINA RESULT:      -9.0      1.175      1.245
REMARK  8 active torsions:
REMARK  status: ('A' for Active; 'I' for Inactive)
REMARK    1  A    between atoms: C_7  and  C_8 
REMARK    2  A    between atoms: C_11  and  N_12 
REMARK       I    between atoms: N_12  and  C_13 
REMARK    3  A    between atoms: C_13  and  C_14 
REMARK    4  A    between atoms: C_14  and  N_15 
REMARK    5  A    between atoms: N_15  and  C_18 
REMARK    6  A    between atoms: C_18  and  C_19 
REMARK    7  A    between atoms: C_19  and  C_20 
REMARK    8  A    between atoms: C_20  and  O_21 
ROOT
HETATM    1  C   UNL     1      26.342  45.508  52.556  1.00  0.00    -0.000 A 
HETATM    2  C   UNL     1      25.321  44.626  52.174  1.00  0.00     0.016 A 
HETATM    3  C   UNL     1      24.385  44.980  51.191  1.00  0.00     0.030 A 
HETATM    4  C   UNL     1      24.446  46.224  50.564  1.00  0.00     0.034 A 
HETATM    5  C   UNL     1      25.446  47.121  50.955  1.00  0.00     0.030 A 
HETATM    6  C   UNL     1      26.384  46.764  51.932  1.00  0.00     0.016 A 
ENDROOT
BRANCH   4   7
HETATM    7  N   UNL     1      23.576  46.632  49.526  1.00  0.00    -0.326 N 
HETATM    8  C   UNL     1      23.188  47.924  49.244  1.00  0.00     0.247 C 
HETATM    9  O   UNL     1      23.561  48.960  49.795  1.00  0.00    -0.271 OA
HETATM   10  H   UNL     1      23.184  45.871  48.982  1.00  0.00     0.169 HD
BRANCH   8  11
HETATM   11  C   UNL     1      22.138  48.052  48.138  1.00  0.00     0.334 C 
BRANCH  11  12
HETATM   12  N   UNL     1      21.008  48.925  48.632  1.00  0.00    -0.067 N 
HETATM   13  H   UNL     1      20.165  48.337  48.710  1.00  0.00     0.277 HD
HETATM   14  H   UNL     1      21.224  49.155  49.617  1.00  0.00     0.277 HD
BRANCH  12  15
HETATM   15  C   UNL     1      20.744  50.159  47.845  1.00  0.00     0.235 C 
BRANCH  15  16
HETATM   16  C   UNL     1      20.843  51.363  48.774  1.00  0.00     0.053 C 
BRANCH  16  17
HETATM   17  C   UNL     1      20.659  50.957  50.229  1.00  0.00     0.165 C 
BRANCH  17  18
HETATM   18  O   UNL     1      21.934  50.909  50.846  1.00  0.00    -0.401 OA
HETATM   19  H   UNL     1      22.299  50.016  50.690  1.00  0.00     0.209 HD
ENDBRANCH  17  18
ENDBRANCH  16  17
ENDBRANCH  15  16
ENDBRANCH  12  15
ENDBRANCH  11  12
ENDBRANCH   8  11
ENDBRANCH   4   7
BRANCH   1  20
HETATM   20  C   UNL     1      27.391  45.152  53.530  1.00  0.00     0.109 A 
HETATM   21  N   UNL     1      27.667  45.875  54.597  1.00  0.00    -0.240 NA
HETATM   22  C   UNL     1      28.736  45.329  55.288  1.00  0.00     0.075 A 
HETATM   23  C   UNL     1      29.252  44.150  54.753  1.00  0.00     0.036 A 
HETATM   24  C   UNL     1      29.329  45.861  56.449  1.00  0.00     0.033 A 
HETATM   25  C   UNL     1      30.342  43.480  55.336  1.00  0.00     0.028 A 
HETATM   26  S   UNL     1      28.350  43.735  53.350  1.00  0.00    -0.067 SA
HETATM   27  C   UNL     1      30.928  44.027  56.488  1.00  0.00    -0.061 A 
HETATM   28  C   UNL     1      32.110  43.359  57.131  1.00  0.00     0.048 C 
HETATM   29  C   UNL     1      30.422  45.209  57.034  1.00  0.00     0.009 A 
ENDBRANCH   1  20
TORSDOF 8
ENDMDL
MODEL 3
REMARK VINA RESULT:      -8.2      1.772      2.293
REMARK  8 active torsions:
REMARK  status: ('A' for Active; 'I' for Inactive)
REMARK    1  A    between atoms: C_7  and  C_8 
REMARK    2  A    between atoms: C_11  and  N_12 
REMARK       I    between atoms: N_12  and  C_13 
REMARK    3  A    between atoms: C_13  and  C_14 
REMARK    4  A    between atoms: C_14  and  N_15 
REMARK    5  A    between atoms: N_15  and  C_18 
REMARK    6  A    between atoms: C_18  and  C_19 
REMARK    7  A    between atoms: C_19  and  C_20 
REMARK    8  A    between atoms: C_20  and  O_21 
ROOT
HETATM    1  C   UNL     1      25.621  45.262  51.385  1.00  0.00    -0.000 A 
HETATM    2  C   UNL     1      24.778  44.335  50.759  1.00  0.00     0.016 A 
HETATM    3  C   UNL     1      23.733  44.752  49.921  1.00  0.00     0.030 A 
HETATM    4  C   UNL     1      23.506  46.108  49.686  1.00  0.00     0.034 A 
HETATM    5  C   UNL     1      24.327  47.043  50.326  1.00  0.00     0.030 A 
HETATM    6  C   UNL     1      25.373  46.624  51.157  1.00  0.00     0.016 A 
ENDROOT
BRANCH   4   7
HETATM    7  N   UNL     1      22.513  46.606  48.811  1.00  0.00    -0.326 N 
HETATM    8  C   UNL     1      22.554  47.796  48.118  1.00  0.00     0.247 C 
HETATM    9  O   UNL     1      23.472  48.615  48.082  1.00  0.00    -0.271 OA
HETATM   10  H   UNL     1      21.683  46.026  48.743  1.00  0.00     0.169 HD
BRANCH   8  11
HETATM   11  C   UNL     1      21.278  48.133  47.343  1.00  0.00     0.334 C 
BRANCH  11  12
HETATM   12  N   UNL     1      20.494  49.170  48.112  1.00  0.00    -0.067 N 
HETATM   13  H   UNL     1      19.498  48.906  48.073  1.00  0.00     0.277 HD
HETATM   14  H   UNL     1      20.731  49.035  49.110  1.00  0.00     0.277 HD
BRANCH  12  15
HETATM   15  C   UNL     1      20.702  50.583  47.703  1.00  0.00     0.235 C 
BRANCH  15  16
HETATM   16  C   UNL     1      20.523  51.479  48.923  1.00  0.00     0.053 C 
BRANCH  16  17
HETATM   17  C   UNL     1      20.834  50.730  50.210  1.00  0.00     0.165 C 
BRANCH  17  18
HETATM   18  O   UNL     1      22.226  50.472  50.255  1.00  0.00    -0.401 OA
HETATM   19  H   UNL     1      22.573  50.588  49.348  1.00  0.00     0.209 HD
ENDBRANCH  17  18
ENDBRANCH  16  17
ENDBRANCH  15  16
ENDBRANCH  12  15
ENDBRANCH  11  12
ENDBRANCH   8  11
ENDBRANCH   4   7
BRANCH   1  20
HETATM   20  C   UNL     1      26.776  44.869  52.214  1.00  0.00     0.109 A 
HETATM   21  N   UNL     1      27.702  44.020  51.815  1.00  0.00    -0.240 NA
HETATM   22  C   UNL     1      28.623  43.799  52.826  1.00  0.00     0.075 A 
HETATM   23  C   UNL     1      28.410  44.525  53.997  1.00  0.00     0.036 A 
HETATM   24  C   UNL     1      29.720  42.918  52.767  1.00  0.00     0.033 A 
HETATM   25  C   UNL     1      29.253  44.403  55.114  1.00  0.00     0.028 A 
HETATM   26  S   UNL     1      27.013  45.507  53.795  1.00  0.00    -0.067 SA
HETATM   27  C   UNL     1      30.338  43.515  55.044  1.00  0.00    -0.061 A 
HETATM   28  C   UNL     1      31.252  43.335  56.222  1.00  0.00     0.048 C 
HETATM   29  C   UNL     1      30.563  42.781  53.877  1.00  0.00     0.009 A 
ENDBRANCH   1  20
TORSDOF 8
ENDMDL
MODEL 4
REMARK VINA RESULT:      -8.1      5.930      8.972
REMARK  8 active torsions:
REMARK  status: ('A' for Active; 'I' for Inactive)
REMARK    1  A    between atoms: C_7  and  C_8 
REMARK    2  A    between atoms: C_11  and  N_12 
REMARK       I    between atoms: N_12  and  C_13 
REMARK    3  A    between atoms: C_13  and  C_14 
REMARK    4  A    between atoms: C_14  and  N_15 
REMARK    5  A    between atoms: N_15  and  C_18 
REMARK    6  A    between atoms: C_18  and  C_19 
REMARK    7  A    between atoms: C_19  and  C_20 
REMARK    8  A    between atoms: C_20  and  O_21 
ROOT
HETATM    1  C   UNL     1      20.624  50.653  48.149  1.00  0.00    -0.000 A 
HETATM    2  C   UNL     1      19.754  50.165  47.165  1.00  0.00     0.016 A 
HETATM    3  C   UNL     1      18.513  50.773  46.927  1.00  0.00     0.030 A 
HETATM    4  C   UNL     1      18.110  51.886  47.664  1.00  0.00     0.034 A 
HETATM    5  C   UNL     1      18.961  52.366  48.666  1.00  0.00     0.030 A 
HETATM    6  C   UNL     1      20.203  51.762  48.898  1.00  0.00     0.016 A 
ENDROOT
BRANCH   4   7
HETATM    7  N   UNL     1      16.902  52.588  47.446  1.00  0.00    -0.326 N 
HETATM    8  C   UNL     1      15.740  52.465  48.176  1.00  0.00     0.247 C 
HETATM    9  O   UNL     1      15.550  51.775  49.178  1.00  0.00    -0.271 OA
HETATM   10  H   UNL     1      16.913  53.202  46.639  1.00  0.00     0.169 HD
BRANCH   8  11
HETATM   11  C   UNL     1      14.551  53.260  47.632  1.00  0.00     0.334 C 
BRANCH  11  12
HETATM   12  N   UNL     1      14.528  54.621  48.287  1.00  0.00    -0.067 N 
HETATM   13  H   UNL     1      15.464  54.799  48.681  1.00  0.00     0.277 HD
HETATM   14  H   UNL     1      14.461  55.314  47.523  1.00  0.00     0.277 HD
BRANCH  12  15
HETATM   15  C   UNL     1      13.459  54.841  49.297  1.00  0.00     0.235 C 
BRANCH  15  16
HETATM   16  C   UNL     1      14.088  55.416  50.560  1.00  0.00     0.053 C 
BRANCH  16  17
HETATM   17  C   UNL     1      14.479  54.315  51.535  1.00  0.00     0.165 C 
BRANCH  17  18
HETATM   18  O   UNL     1      13.807  53.125  51.161  1.00  0.00    -0.401 OA
HETATM   19  H   UNL     1      13.449  53.263  50.262  1.00  0.00     0.209 HD
ENDBRANCH  17  18
ENDBRANCH  16  17
ENDBRANCH  15  16
ENDBRANCH  12  15
ENDBRANCH  11  12
ENDBRANCH   8  11
ENDBRANCH   4   7
BRANCH   1  20
HETATM   20  C   UNL     1      21.968  50.093  48.385  1.00  0.00     0.109 A 
HETATM   21  N   UNL     1      22.187  49.000  49.089  1.00  0.00    -0.240 NA
HETATM   22  C   UNL     1      23.546  48.754  49.191  1.00  0.00     0.075 A 
HETATM   23  C   UNL     1      24.368  49.657  48.518  1.00  0.00     0.036 A 
HETATM   24  C   UNL     1      24.145  47.699  49.907  1.00  0.00     0.033 A 
HETATM   25  C   UNL     1      25.769  49.545  48.533  1.00  0.00     0.028 A 
HETATM   26  S   UNL     1      23.383  50.832  47.741  1.00  0.00    -0.067 SA
HETATM   27  C   UNL     1      26.351  48.494  49.258  1.00  0.00    -0.061 A 
HETATM   28  C   UNL     1      27.845  48.349  49.322  1.00  0.00     0.048 C 
HETATM   29  C   UNL     1      25.540  47.582  49.938  1.00  0.00     0.009 A 
ENDBRANCH   1  20
TORSDOF 8
ENDMDL
MODEL 5
REMARK VINA RESULT:      -8.1      4.107      4.901
REMARK  8 active torsions:
REMARK  status: ('A' for Active; 'I' for Inactive)
REMARK    1  A    between atoms: C_7  and  C_8 
REMARK    2  A    between atoms: C_11  and  N_12 
REMARK       I    between atoms: N_12  and  C_13 
REMARK    3  A    between atoms: C_13  and  C_14 
REMARK    4  A    between atoms: C_14  and  N_15 
REMARK    5  A    between atoms: N_15  and  C_18 
REMARK    6  A    between atoms: C_18  and  C_19 
REMARK    7  A    between atoms: C_19  and  C_20 
REMARK    8  A    between atoms: C_20  and  O_21 
ROOT
HETATM    1  C   UNL     1      26.057  44.244  49.820  1.00  0.00    -0.000 A 
HETATM    2  C   UNL     1      26.659  45.508  49.890  1.00  0.00     0.016 A 
HETATM    3  C   UNL     1      25.889  46.680  49.911  1.00  0.00     0.030 A 
HETATM    4  C   UNL     1      24.497  46.619  49.864  1.00  0.00     0.034 A 
HETATM    5  C   UNL     1      23.886  45.364  49.768  1.00  0.00     0.030 A 
HETATM    6  C   UNL     1      24.656  44.194  49.755  1.00  0.00     0.016 A 
ENDROOT
BRANCH   4   7
HETATM    7  N   UNL     1      23.651  47.750  49.937  1.00  0.00    -0.326 N 
HETATM    8  C   UNL     1      22.966  48.330  48.892  1.00  0.00     0.247 C 
HETATM    9  O   UNL     1      22.914  47.949  47.722  1.00  0.00    -0.271 OA
HETATM   10  H   UNL     1      23.599  48.177  50.856  1.00  0.00     0.169 HD
BRANCH   8  11
HETATM   11  C   UNL     1      22.225  49.621  49.246  1.00  0.00     0.334 C 
BRANCH  11  12
HETATM   12  N   UNL     1      20.955  49.273  49.986  1.00  0.00    -0.067 N 
HETATM   13  H   UNL     1      21.204  48.644  50.764  1.00  0.00     0.277 HD
HETATM   14  H   UNL     1      20.652  50.135  50.471  1.00  0.00     0.277 HD
BRANCH  12  15
HETATM   15  C   UNL     1      19.852  48.712  49.161  1.00  0.00     0.235 C 
BRANCH  15  16
HETATM   16  C   UNL     1      18.786  48.144  50.090  1.00  0.00     0.053 C 
BRANCH  16  17
HETATM   17  C   UNL     1      18.627  48.999  51.339  1.00  0.00     0.165 C 
BRANCH  17  18
HETATM   18  O   UNL     1      18.602  48.143  52.469  1.00  0.00    -0.401 OA
HETATM   19  H   UNL     1      18.487  48.707  53.259  1.00  0.00     0.209 HD
ENDBRANCH  17  18
ENDBRANCH  16  17
ENDBRANCH  15  16
ENDBRANCH  12  15
ENDBRANCH  11  12
ENDBRANCH   8  11
ENDBRANCH   4   7
BRANCH   1  20
HETATM   20  C   UNL     1      26.821  42.983  49.870  1.00  0.00     0.109 A 
HETATM   21  N   UNL     1      27.138  42.283  48.799  1.00  0.00    -0.240 NA
HETATM   22  C   UNL     1      27.799  41.121  49.160  1.00  0.00     0.075 A 
HETATM   23  C   UNL     1      28.020  40.959  50.527  1.00  0.00     0.036 A 
HETATM   24  C   UNL     1      28.246  40.116  48.280  1.00  0.00     0.033 A 
HETATM   25  C   UNL     1      28.671  39.829  51.050  1.00  0.00     0.028 A 
HETATM   26  S   UNL     1      27.375  42.319  51.358  1.00  0.00    -0.067 SA
HETATM   27  C   UNL     1      29.102  38.831  50.161  1.00  0.00    -0.061 A 
HETATM   28  C   UNL     1      29.781  37.595  50.677  1.00  0.00     0.048 C 
HETATM   29  C   UNL     1      28.887  38.980  48.789  1.00  0.00     0.009 A 
ENDBRANCH   1  20
TORSDOF 8
ENDMDL
MODEL 6
REMARK VINA RESULT:      -8.0      2.679      3.249
REMARK  8 active torsions:
REMARK  status: ('A' for Active; 'I' for Inactive)
REMARK    1  A    between atoms: C_7  and  C_8 
REMARK    2  A    between atoms: C_11  and  N_12 
REMARK       I    between atoms: N_12  and  C_13 
REMARK    3  A    between atoms: C_13  and  C_14 
REMARK    4  A    between atoms: C_14  and  N_15 
REMARK    5  A    between atoms: N_15  and  C_18 
REMARK    6  A    between atoms: C_18  and  C_19 
REMARK    7  A    between atoms: C_19  and  C_20 
REMARK    8  A    between atoms: C_20  and  O_21 
ROOT
HETATM    1  C   UNL     1      26.776  44.366  51.777  1.00  0.00    -0.000 A 
HETATM    2  C   UNL     1      27.088  43.439  50.774  1.00  0.00     0.016 A 
HETATM    3  C   UNL     1      26.296  43.322  49.622  1.00  0.00     0.030 A 
HETATM    4  C   UNL     1      25.174  44.129  49.443  1.00  0.00     0.034 A 
HETATM    5  C   UNL     1      24.839  45.040  50.450  1.00  0.00     0.030 A 
HETATM    6  C   UNL     1      25.634  45.160  51.597  1.00  0.00     0.016 A 
ENDROOT
BRANCH   4   7
HETATM    7  N   UNL     1      24.359  44.110  48.286  1.00  0.00    -0.326 N 
HETATM    8  C   UNL     1      23.107  43.546  48.176  1.00  0.00     0.247 C 
HETATM    9  O   UNL     1      22.443  43.009  49.061  1.00  0.00    -0.271 OA
HETATM   10  H   UNL     1      24.787  44.524  47.465  1.00  0.00     0.169 HD
BRANCH   8  11
HETATM   11  C   UNL     1      22.514  43.569  46.765  1.00  0.00     0.334 C 
BRANCH  11  12
HETATM   12  N   UNL     1      21.330  44.507  46.744  1.00  0.00    -0.067 N 
HETATM   13  H   UNL     1      20.810  44.340  45.869  1.00  0.00     0.277 HD
HETATM   14  H   UNL     1      20.676  44.169  47.471  1.00  0.00     0.277 HD
BRANCH  12  15
HETATM   15  C   UNL     1      21.635  45.949  46.934  1.00  0.00     0.235 C 
BRANCH  15  16
HETATM   16  C   UNL     1      20.555  46.567  47.813  1.00  0.00     0.053 C 
BRANCH  16  17
HETATM   17  C   UNL     1      19.644  45.501  48.404  1.00  0.00     0.165 C 
BRANCH  17  18
HETATM   18  O   UNL     1      20.273  44.958  49.552  1.00  0.00    -0.401 OA
HETATM   19  H   UNL     1      20.642  44.089  49.298  1.00  0.00     0.209 HD
ENDBRANCH  17  18
ENDBRANCH  16  17
ENDBRANCH  15  16
ENDBRANCH  12  15
ENDBRANCH  11  12
ENDBRANCH   8  11
ENDBRANCH   4   7
BRANCH   1  20
HETATM   20  C   UNL     1      27.619  44.576  52.970  1.00  0.00     0.109 A 
HETATM   21  N   UNL     1      28.681  43.845  53.247  1.00  0.00    -0.240 NA
HETATM   22  C   UNL     1      29.232  44.233  54.457  1.00  0.00     0.075 A 
HETATM   23  C   UNL     1      28.598  45.303  55.086  1.00  0.00     0.036 A 
HETATM   24  C   UNL     1      30.346  43.643  55.086  1.00  0.00     0.033 A 
HETATM   25  C   UNL     1      29.034  45.807  56.323  1.00  0.00     0.028 A 
HETATM   26  S   UNL     1      27.281  45.820  54.110  1.00  0.00    -0.067 SA
HETATM   27  C   UNL     1      30.140  45.204  56.942  1.00  0.00    -0.061 A 
HETATM   28  C   UNL     1      30.628  45.694  58.276  1.00  0.00     0.048 C 
HETATM   29  C   UNL     1      30.785  44.130  56.323  1.00  0.00     0.009 A 
ENDBRANCH   1  20
TORSDOF 8
ENDMDL
MODEL 7
REMARK VINA RESULT:      -8.0      1.728      1.973
REMARK  8 active torsions:
REMARK  status: ('A' for Active; 'I' for Inactive)
REMARK    1  A    between atoms: C_7  and  C_8 
REMARK    2  A    between atoms: C_11  and  N_12 
REMARK       I    between atoms: N_12  and  C_13 
REMARK    3  A    between atoms: C_13  and  C_14 
REMARK    4  A    between atoms: C_14  and  N_15 
REMARK    5  A    between atoms: N_15  and  C_18 
REMARK    6  A    between atoms: C_18  and  C_19 
REMARK    7  A    between atoms: C_19  and  C_20 
REMARK    8  A    between atoms: C_20  and  O_21 
ROOT
HETATM    1  C   UNL     1      26.563  44.031  51.771  1.00  0.00    -0.000 A 
HETATM    2  C   UNL     1      26.907  43.801  50.432  1.00  0.00     0.016 A 
HETATM    3  C   UNL     1      25.953  43.909  49.409  1.00  0.00     0.030 A 
HETATM    4  C   UNL     1      24.633  44.251  49.698  1.00  0.00     0.034 A 
HETATM    5  C   UNL     1      24.274  44.458  51.034  1.00  0.00     0.030 A 
HETATM    6  C   UNL     1      25.229  44.357  52.054  1.00  0.00     0.016 A 
ENDROOT
BRANCH   4   7
HETATM    7  N   UNL     1      23.628  44.435  48.719  1.00  0.00    -0.326 N 
HETATM    8  C   UNL     1      23.024  45.625  48.379  1.00  0.00     0.247 C 
HETATM    9  O   UNL     1      23.277  46.749  48.814  1.00  0.00    -0.271 OA
HETATM   10  H   UNL     1      23.315  43.579  48.272  1.00  0.00     0.169 HD
BRANCH   8  11
HETATM   11  C   UNL     1      21.880  45.501  47.371  1.00  0.00     0.334 C 
BRANCH  11  12
HETATM   12  N   UNL     1      21.076  46.780  47.378  1.00  0.00    -0.067 N 
HETATM   13  H   UNL     1      21.705  47.547  47.660  1.00  0.00     0.277 HD
HETATM   14  H   UNL     1      20.868  47.001  46.390  1.00  0.00     0.277 HD
BRANCH  12  15
HETATM   15  C   UNL     1      19.832  46.765  48.192  1.00  0.00     0.235 C 
BRANCH  15  16
HETATM   16  C   UNL     1      19.325  48.194  48.339  1.00  0.00     0.053 C 
BRANCH  16  17
HETATM   17  C   UNL     1      19.828  48.831  49.626  1.00  0.00     0.165 C 
BRANCH  17  18
HETATM   18  O   UNL     1      21.230  48.638  49.705  1.00  0.00    -0.401 OA
HETATM   19  H   UNL     1      21.463  47.940  49.061  1.00  0.00     0.209 HD
ENDBRANCH  17  18
ENDBRANCH  16  17
ENDBRANCH  15  16
ENDBRANCH  12  15
ENDBRANCH  11  12
ENDBRANCH   8  11
ENDBRANCH   4   7
BRANCH   1  20
HETATM   20  C   UNL     1      27.546  44.002  52.871  1.00  0.00     0.109 A 
HETATM   21  N   UNL     1      27.733  45.005  53.705  1.00  0.00    -0.240 NA
HETATM   22  C   UNL     1      28.758  44.715  54.589  1.00  0.00     0.075 A 
HETATM   23  C   UNL     1      29.331  43.452  54.444  1.00  0.00     0.036 A 
HETATM   24  C   UNL     1      29.258  45.573  55.588  1.00  0.00     0.033 A 
HETATM   25  C   UNL     1      30.388  43.013  55.261  1.00  0.00     0.028 A 
HETATM   26  S   UNL     1      28.539  42.627  53.161  1.00  0.00    -0.067 SA
HETATM   27  C   UNL     1      30.881  43.883  56.246  1.00  0.00    -0.061 A 
HETATM   28  C   UNL     1      32.024  43.465  57.127  1.00  0.00     0.048 C 
HETATM   29  C   UNL     1      30.317  45.151  56.402  1.00  0.00     0.009 A 
ENDBRANCH   1  20
TORSDOF 8
ENDMDL
MODEL 8
REMARK VINA RESULT:      -7.9      1.862      2.384
REMARK  8 active torsions:
REMARK  status: ('A' for Active; 'I' for Inactive)
REMARK    1  A    between atoms: C_7  and  C_8 
REMARK    2  A    between atoms: C_11  and  N_12 
REMARK       I    between atoms: N_12  and  C_13 
REMARK    3  A    between atoms: C_13  and  C_14 
REMARK    4  A    between atoms: C_14  and  N_15 
REMARK    5  A    between atoms: N_15  and  C_18 
REMARK    6  A    between atoms: C_18  and  C_19 
REMARK    7  A    between atoms: C_19  and  C_20 
REMARK    8  A    between atoms: C_20  and  O_21 
ROOT
HETATM    1  C   UNL     1      26.187  45.709  52.130  1.00  0.00    -0.000 A 
HETATM    2  C   UNL     1      25.231  44.812  51.635  1.00  0.00     0.016 A 
HETATM    3  C   UNL     1      24.255  45.223  50.716  1.00  0.00     0.030 A 
HETATM    4  C   UNL     1      24.210  46.543  50.267  1.00  0.00     0.034 A 
HETATM    5  C   UNL     1      25.143  47.453  50.774  1.00  0.00     0.030 A 
HETATM    6  C   UNL     1      26.122  47.039  51.687  1.00  0.00     0.016 A 
ENDROOT
BRANCH   4   7
HETATM    7  N   UNL     1      23.294  47.021  49.300  1.00  0.00    -0.326 N 
HETATM    8  C   UNL     1      22.864  48.321  49.153  1.00  0.00     0.247 C 
HETATM    9  O   UNL     1      23.230  49.312  49.786  1.00  0.00    -0.271 OA
HETATM   10  H   UNL     1      22.903  46.303  48.700  1.00  0.00     0.169 HD
BRANCH   8  11
HETATM   11  C   UNL     1      21.774  48.522  48.098  1.00  0.00     0.334 C 
BRANCH  11  12
HETATM   12  N   UNL     1      21.759  47.329  47.171  1.00  0.00    -0.067 N 
HETATM   13  H   UNL     1      22.384  47.537  46.378  1.00  0.00     0.277 HD
HETATM   14  H   UNL     1      22.255  46.568  47.666  1.00  0.00     0.277 HD
BRANCH  12  15
HETATM   15  C   UNL     1      20.420  46.878  46.710  1.00  0.00     0.235 C 
BRANCH  15  16
HETATM   16  C   UNL     1      20.280  45.387  46.994  1.00  0.00     0.053 C 
BRANCH  16  17
HETATM   17  C   UNL     1      19.522  45.139  48.290  1.00  0.00     0.165 C 
BRANCH  17  18
HETATM   18  O   UNL     1      20.332  45.566  49.373  1.00  0.00    -0.401 OA
HETATM   19  H   UNL     1      21.247  45.645  49.038  1.00  0.00     0.209 HD
ENDBRANCH  17  18
ENDBRANCH  16  17
ENDBRANCH  15  16
ENDBRANCH  12  15
ENDBRANCH  11  12
ENDBRANCH   8  11
ENDBRANCH   4   7
BRANCH   1  20
HETATM   20  C   UNL     1      27.276  45.306  53.040  1.00  0.00     0.109 A 
HETATM   21  N   UNL     1      28.045  44.256  52.832  1.00  0.00    -0.240 NA
HETATM   22  C   UNL     1      28.934  44.092  53.881  1.00  0.00     0.075 A 
HETATM   23  C   UNL     1      28.861  45.060  54.881  1.00  0.00     0.036 A 
HETATM   24  C   UNL     1      29.873  43.051  54.015  1.00  0.00     0.033 A 
HETATM   25  C   UNL     1      29.692  45.026  56.015  1.00  0.00     0.028 A 
HETATM   26  S   UNL     1      27.639  46.196  54.467  1.00  0.00    -0.067 SA
HETATM   27  C   UNL     1      30.616  43.978  56.139  1.00  0.00    -0.061 A 
HETATM   28  C   UNL     1      31.508  43.889  57.344  1.00  0.00     0.048 C 
HETATM   29  C   UNL     1      30.700  43.001  55.144  1.00  0.00     0.009 A 
ENDBRANCH   1  20
TORSDOF 8
ENDMDL
MODEL 9
REMARK VINA RESULT:      -7.8      4.702     10.464
REMARK  8 active torsions:
REMARK  status: ('A' for Active; 'I' for Inactive)
REMARK    1  A    between atoms: C_7  and  C_8 
REMARK    2  A    between atoms: C_11  and  N_12 
REMARK       I    between atoms: N_12  and  C_13 
REMARK    3  A    between atoms: C_13  and  C_14 
REMARK    4  A    between atoms: C_14  and  N_15 
REMARK    5  A    between atoms: N_15  and  C_18 
REMARK    6  A    between atoms: C_18  and  C_19 
REMARK    7  A    between atoms: C_19  and  C_20 
REMARK    8  A    between atoms: C_20  and  O_21 
ROOT
HETATM    1  C   UNL     1      24.751  46.451  50.080  1.00  0.00    -0.000 A 
HETATM    2  C   UNL     1      25.363  46.587  51.333  1.00  0.00     0.016 A 
HETATM    3  C   UNL     1      26.332  45.672  51.771  1.00  0.00     0.030 A 
HETATM    4  C   UNL     1      26.715  44.599  50.967  1.00  0.00     0.034 A 
HETATM    5  C   UNL     1      26.092  44.440  49.724  1.00  0.00     0.030 A 
HETATM    6  C   UNL     1      25.129  45.358  49.285  1.00  0.00     0.016 A 
ENDROOT
BRANCH   4   7
HETATM    7  N   UNL     1      27.723  43.668  51.312  1.00  0.00    -0.326 N 
HETATM    8  C   UNL     1      27.536  42.344  51.640  1.00  0.00     0.247 C 
HETATM    9  O   UNL     1      26.480  41.709  51.641  1.00  0.00    -0.271 OA
HETATM   10  H   UNL     1      28.658  44.058  51.355  1.00  0.00     0.169 HD
BRANCH   8  11
HETATM   11  C   UNL     1      28.800  41.609  52.093  1.00  0.00     0.334 C 
BRANCH  11  12
HETATM   12  N   UNL     1      28.727  40.173  51.629  1.00  0.00    -0.067 N 
HETATM   13  H   UNL     1      29.476  39.648  52.105  1.00  0.00     0.277 HD
HETATM   14  H   UNL     1      27.866  39.775  52.042  1.00  0.00     0.277 HD
BRANCH  12  15
HETATM   15  C   UNL     1      28.757  39.959  50.158  1.00  0.00     0.235 C 
BRANCH  15  16
HETATM   16  C   UNL     1      28.817  38.462  49.881  1.00  0.00     0.053 C 
BRANCH  16  17
HETATM   17  C   UNL     1      30.104  37.850  50.415  1.00  0.00     0.165 C 
BRANCH  17  18
HETATM   18  O   UNL     1      31.179  38.285  49.600  1.00  0.00    -0.401 OA
HETATM   19  H   UNL     1      30.832  38.982  49.009  1.00  0.00     0.209 HD
ENDBRANCH  17  18
ENDBRANCH  16  17
ENDBRANCH  15  16
ENDBRANCH  12  15
ENDBRANCH  11  12
ENDBRANCH   8  11
ENDBRANCH   4   7
BRANCH   1  20
HETATM   20  C   UNL     1      23.783  47.428  49.546  1.00  0.00     0.109 A 
HETATM   21  N   UNL     1      23.835  48.720  49.807  1.00  0.00    -0.240 NA
HETATM   22  C   UNL     1      22.764  49.374  49.222  1.00  0.00     0.075 A 
HETATM   23  C   UNL     1      21.909  48.568  48.472  1.00  0.00     0.036 A 
HETATM   24  C   UNL     1      22.476  50.749  49.329  1.00  0.00     0.033 A 
HETATM   25  C   UNL     1      20.773  49.084  47.824  1.00  0.00     0.028 A 
HETATM   26  S   UNL     1      22.490  46.951  48.515  1.00  0.00    -0.067 SA
HETATM   27  C   UNL     1      20.495  50.454  47.947  1.00  0.00    -0.061 A 
HETATM   28  C   UNL     1      19.279  51.045  47.290  1.00  0.00     0.048 C 
HETATM   29  C   UNL     1      21.343  51.274  48.695  1.00  0.00     0.009 A 
ENDBRANCH   1  20
TORSDOF 8
ENDMDL
MODEL 10
REMARK VINA RESULT:      -7.6      3.738     10.425
REMARK  8 active torsions:
REMARK  status: ('A' for Active; 'I' for Inactive)
REMARK    1  A    between atoms: C_7  and  C_8 
REMARK    2  A    between atoms: C_11  and  N_12 
REMARK       I    between atoms: N_12  and  C_13 
REMARK    3  A    between atoms: C_13  and  C_14 
REMARK    4  A    between atoms: C_14  and  N_15 
REMARK    5  A    between atoms: N_15  and  C_18 
REMARK    6  A    between atoms: C_18  and  C_19 
REMARK    7  A    between atoms: C_19  and  C_20 
REMARK    8  A    between atoms: C_20  and  O_21 
ROOT
HETATM    1  C   UNL     1      24.416  46.958  50.020  1.00  0.00    -0.000 A 
HETATM    2  C   UNL     1      25.298  47.387  51.020  1.00  0.00     0.016 A 
HETATM    3  C   UNL     1      26.302  46.542  51.515  1.00  0.00     0.030 A 
HETATM    4  C   UNL     1      26.451  45.246  51.021  1.00  0.00     0.034 A 
HETATM    5  C   UNL     1      25.559  44.799  50.040  1.00  0.00     0.030 A 
HETATM    6  C   UNL     1      24.561  45.647  49.542  1.00  0.00     0.016 A 
ENDROOT
BRANCH   4   7
HETATM    7  N   UNL     1      27.472  44.355  51.426  1.00  0.00    -0.326 N 
HETATM    8  C   UNL     1      27.622  43.796  52.676  1.00  0.00     0.247 C 
HETATM    9  O   UNL     1      26.877  43.917  53.649  1.00  0.00    -0.271 OA
HETATM   10  H   UNL     1      28.169  44.163  50.715  1.00  0.00     0.169 HD
BRANCH   8  11
HETATM   11  C   UNL     1      28.893  42.965  52.861  1.00  0.00     0.334 C 
BRANCH  11  12
HETATM   12  N   UNL     1      29.104  42.708  54.334  1.00  0.00    -0.067 N 
HETATM   13  H   UNL     1      28.332  43.159  54.848  1.00  0.00     0.277 HD
HETATM   14  H   UNL     1      28.926  41.701  54.485  1.00  0.00     0.277 HD
BRANCH  12  15
HETATM   15  C   UNL     1      30.429  43.101  54.882  1.00  0.00     0.235 C 
BRANCH  15  16
HETATM   16  C   UNL     1      30.270  44.398  55.667  1.00  0.00     0.053 C 
BRANCH  16  17
HETATM   17  C   UNL     1      31.019  44.340  56.991  1.00  0.00     0.165 C 
BRANCH  17  18
HETATM   18  O   UNL     1      31.824  43.173  57.001  1.00  0.00    -0.401 OA
HETATM   19  H   UNL     1      31.333  42.486  57.493  1.00  0.00     0.209 HD
ENDBRANCH  17  18
ENDBRANCH  16  17
ENDBRANCH  15  16
ENDBRANCH  12  15
ENDBRANCH  11  12
ENDBRANCH   8  11
ENDBRANCH   4   7
BRANCH   1  20
HETATM   20  C   UNL     1      23.393  47.834  49.418  1.00  0.00     0.109 A 
HETATM   21  N   UNL     1      23.259  49.110  49.722  1.00  0.00    -0.240 NA
HETATM   22  C   UNL     1      22.180  49.657  49.048  1.00  0.00     0.075 A 
HETATM   23  C   UNL     1      21.510  48.787  48.188  1.00  0.00     0.036 A 
HETATM   24  C   UNL     1      21.715  50.981  49.166  1.00  0.00     0.033 A 
HETATM   25  C   UNL     1      20.390  49.191  47.441  1.00  0.00     0.028 A 
HETATM   26  S   UNL     1      22.279  47.250  48.243  1.00  0.00    -0.067 SA
HETATM   27  C   UNL     1      19.934  50.512  47.575  1.00  0.00    -0.061 A 
HETATM   28  C   UNL     1      18.727  50.981  46.813  1.00  0.00     0.048 C 
HETATM   29  C   UNL     1      20.595  51.394  48.433  1.00  0.00     0.009 A 
ENDBRANCH   1  20
TORSDOF 8
ENDMDL
