MODEL 1
REMARK VINA RESULT:      -9.4      0.000      0.000
REMARK  9 active torsions:
REMARK  status: ('A' for Active; 'I' for Inactive)
REMARK    1  A    between atoms: N_6  and  C_7 
REMARK    2  A    between atoms: C_7  and  C_8 
REMARK    3  A    between atoms: C_8  and  N_9 
REMARK       I    between atoms: N_9  and  C_10 
REMARK    4  A    between atoms: C_10  and  C_12 
REMARK    5  A    between atoms: C_16  and  C_17 
REMARK    6  A    between atoms: C_17  and  N_18 
REMARK    7  A    between atoms: N_18  and  C_19 
REMARK       I    between atoms: N_18  and  C_22 
REMARK    8  A    between atoms: C_22  and  C_24 
REMARK    9  A    between atoms: C_29  and  C_33 
ROOT
HETATM    1  C   UNL     1      24.047  47.954  48.493  1.00  0.00     0.165 C 
ENDROOT
BRANCH   1   2
HETATM    2  C   UNL     1      22.983  48.948  48.900  1.00  0.00    -0.039 A 
HETATM    3  C   UNL     1      23.269  50.319  48.955  1.00  0.00     0.009 A 
HETATM    4  C   UNL     1      22.280  51.238  49.308  1.00  0.00     0.002 A 
HETATM    5  C   UNL     1      20.986  50.802  49.597  1.00  0.00     0.017 A 
HETATM    6  C   UNL     1      20.673  49.439  49.524  1.00  0.00     0.032 A 
HETATM    7  C   UNL     1      21.679  48.518  49.192  1.00  0.00     0.026 A 
BRANCH   6   8
HETATM    8  C   UNL     1      19.303  48.916  49.794  1.00  0.00     0.251 C 
HETATM    9  N   UNL     1      18.592  48.423  48.712  1.00  0.00    -0.355 N 
HETATM   10  H   UNL     1      19.093  48.222  47.855  1.00  0.00     0.162 HD
HETATM   11  O   UNL     1      18.850  48.904  50.936  1.00  0.00    -0.268 OA
BRANCH   9  12
HETATM   12  C   UNL     1      17.326  47.737  48.914  1.00  0.00     0.153 C 
BRANCH  12  13
HETATM   13  C   UNL     1      16.423  47.789  47.661  1.00  0.00     0.292 C 
BRANCH  13  14
HETATM   14  N   UNL     1      15.287  48.739  47.716  1.00  0.00     0.093 N 
HETATM   15  C   UNL     1      14.524  48.699  46.444  1.00  0.00     0.300 C 
HETATM   16  C   UNL     1      15.228  49.355  45.231  1.00  0.00     0.264 C 
HETATM   17  N   UNL     1      15.660  50.773  45.569  1.00  0.00    -0.072 N 
HETATM   18  C   UNL     1      16.378  51.430  44.430  1.00  0.00     0.269 C 
HETATM   19  H   UNL     1      14.803  51.310  45.751  1.00  0.00     0.279 HD
HETATM   20  C   UNL     1      16.483  50.816  46.849  1.00  0.00     0.264 C 
HETATM   21  C   UNL     1      15.703  50.132  47.989  1.00  0.00     0.300 C 
ENDBRANCH  13  14
ENDBRANCH  12  13
ENDBRANCH   9  12
ENDBRANCH   6   8
ENDBRANCH   1   2
BRANCH   1  22
HETATM   22  N   UNL     1      24.967  47.610  49.577  1.00  0.00    -0.337 N 
HETATM   23  C   UNL     1      24.713  46.418  50.301  1.00  0.00     0.280 C 
HETATM   24  O   UNL     1      23.712  45.747  50.020  1.00  0.00    -0.265 OA
BRANCH  22  25
HETATM   25  C   UNL     1      26.139  48.434  49.758  1.00  0.00     0.088 A 
HETATM   26  C   UNL     1      27.475  48.151  49.111  1.00  0.00     0.027 A 
HETATM   27  C   UNL     1      26.654  49.306  48.638  1.00  0.00     0.027 A 
ENDBRANCH  22  25
BRANCH  23  28
HETATM   28  C   UNL     1      25.627  46.010  51.380  1.00  0.00     0.166 A 
HETATM   29  N   UNL     1      26.415  44.951  51.377  1.00  0.00    -0.235 NA
HETATM   30  C   UNL     1      27.180  44.922  52.531  1.00  0.00     0.075 A 
HETATM   31  C   UNL     1      28.167  43.969  52.847  1.00  0.00     0.034 A 
HETATM   32  C   UNL     1      26.933  45.950  53.440  1.00  0.00     0.036 A 
HETATM   33  C   UNL     1      28.886  44.080  54.046  1.00  0.00     0.014 A 
HETATM   34  C   UNL     1      28.632  45.119  54.948  1.00  0.00    -0.022 A 
HETATM   35  C   UNL     1      27.639  46.065  54.651  1.00  0.00     0.033 A 
HETATM   36  S   UNL     1      25.699  46.966  52.811  1.00  0.00    -0.063 SA
BRANCH  34  37
HETATM   37  C   UNL     1      29.411  45.226  56.170  1.00  0.00     0.010 A 
HETATM   38  C   UNL     1      29.203  46.002  57.336  1.00  0.00     0.152 A 
HETATM   39  N   UNL     1      30.156  45.825  58.253  1.00  0.00    -0.187 NA
HETATM   40  N   UNL     1      30.981  44.933  57.683  1.00  0.00    -0.289 N 
HETATM   41  H   UNL     1      31.800  44.635  58.202  1.00  0.00     0.188 HD
HETATM   42  C   UNL     1      30.581  44.544  56.436  1.00  0.00     0.123 A 
ENDBRANCH  34  37
ENDBRANCH  23  28
ENDBRANCH   1  22
TORSDOF 9
ENDMDL
MODEL 2
REMARK VINA RESULT:      -9.4      1.520      2.108
REMARK  9 active torsions:
REMARK  status: ('A' for Active; 'I' for Inactive)
REMARK    1  A    between atoms: N_6  and  C_7 
REMARK    2  A    between atoms: C_7  and  C_8 
REMARK    3  A    between atoms: C_8  and  N_9 
REMARK       I    between atoms: N_9  and  C_10 
REMARK    4  A    between atoms: C_10  and  C_12 
REMARK    5  A    between atoms: C_16  and  C_17 
REMARK    6  A    between atoms: C_17  and  N_18 
REMARK    7  A    between atoms: N_18  and  C_19 
REMARK       I    between atoms: N_18  and  C_22 
REMARK    8  A    between atoms: C_22  and  C_24 
REMARK    9  A    between atoms: C_29  and  C_33 
ROOT
HETATM    1  C   UNL     1      24.258  47.629  48.641  1.00  0.00     0.165 C 
ENDROOT
BRANCH   1   2
HETATM    2  C   UNL     1      23.396  48.844  48.898  1.00  0.00    -0.039 A 
HETATM    3  C   UNL     1      23.938  50.134  48.823  1.00  0.00     0.009 A 
HETATM    4  C   UNL     1      23.137  51.256  49.037  1.00  0.00     0.002 A 
HETATM    5  C   UNL     1      21.777  51.107  49.314  1.00  0.00     0.017 A 
HETATM    6  C   UNL     1      21.210  49.828  49.370  1.00  0.00     0.032 A 
HETATM    7  C   UNL     1      22.027  48.702  49.178  1.00  0.00     0.026 A 
BRANCH   6   8
HETATM    8  C   UNL     1      19.759  49.605  49.634  1.00  0.00     0.251 C 
HETATM    9  N   UNL     1      18.936  49.442  48.532  1.00  0.00    -0.355 N 
HETATM   10  H   UNL     1      19.362  49.249  47.635  1.00  0.00     0.162 HD
HETATM   11  O   UNL     1      19.334  49.543  50.786  1.00  0.00    -0.268 OA
BRANCH   9  12
HETATM   12  C   UNL     1      17.547  49.048  48.704  1.00  0.00     0.153 C 
BRANCH  12  13
HETATM   13  C   UNL     1      16.575  50.240  48.550  1.00  0.00     0.292 C 
BRANCH  13  14
HETATM   14  N   UNL     1      17.190  51.540  48.192  1.00  0.00     0.093 N 
HETATM   15  C   UNL     1      17.252  52.422  49.382  1.00  0.00     0.300 C 
HETATM   16  C   UNL     1      15.895  53.005  49.845  1.00  0.00     0.264 C 
HETATM   17  N   UNL     1      15.188  53.692  48.687  1.00  0.00    -0.072 N 
HETATM   18  C   UNL     1      13.851  54.238  49.087  1.00  0.00     0.269 C 
HETATM   19  H   UNL     1      15.778  54.484  48.406  1.00  0.00     0.279 HD
HETATM   20  C   UNL     1      15.078  52.776  47.477  1.00  0.00     0.264 C 
HETATM   21  C   UNL     1      16.476  52.243  47.103  1.00  0.00     0.300 C 
ENDBRANCH  13  14
ENDBRANCH  12  13
ENDBRANCH   9  12
ENDBRANCH   6   8
ENDBRANCH   1   2
BRANCH   1  22
HETATM   22  N   UNL     1      25.179  47.326  49.737  1.00  0.00    -0.337 N 
HETATM   23  C   UNL     1      24.902  46.186  50.532  1.00  0.00     0.280 C 
HETATM   24  O   UNL     1      23.883  45.525  50.298  1.00  0.00    -0.265 OA
BRANCH  22  25
HETATM   25  C   UNL     1      26.372  48.131  49.860  1.00  0.00     0.088 A 
HETATM   26  C   UNL     1      27.678  47.809  49.172  1.00  0.00     0.027 A 
HETATM   27  C   UNL     1      26.863  48.970  48.705  1.00  0.00     0.027 A 
ENDBRANCH  22  25
BRANCH  23  28
HETATM   28  C   UNL     1      25.816  45.819  51.626  1.00  0.00     0.166 A 
HETATM   29  N   UNL     1      26.622  44.775  51.654  1.00  0.00    -0.235 NA
HETATM   30  C   UNL     1      27.380  44.786  52.813  1.00  0.00     0.075 A 
HETATM   31  C   UNL     1      28.380  43.858  53.158  1.00  0.00     0.034 A 
HETATM   32  C   UNL     1      27.110  45.833  53.694  1.00  0.00     0.036 A 
HETATM   33  C   UNL     1      29.089  44.010  54.359  1.00  0.00     0.014 A 
HETATM   34  C   UNL     1      28.812  45.067  55.233  1.00  0.00    -0.022 A 
HETATM   35  C   UNL     1      27.806  45.989  54.906  1.00  0.00     0.033 A 
HETATM   36  S   UNL     1      25.864  46.812  53.033  1.00  0.00    -0.063 SA
BRANCH  34  37
HETATM   37  C   UNL     1      29.582  45.217  56.457  1.00  0.00     0.010 A 
HETATM   38  C   UNL     1      30.766  44.575  56.890  1.00  0.00     0.152 A 
HETATM   39  N   UNL     1      31.170  44.988  58.093  1.00  0.00    -0.187 NA
HETATM   40  N   UNL     1      30.247  45.898  58.440  1.00  0.00    -0.289 N 
HETATM   41  H   UNL     1      30.341  46.363  59.337  1.00  0.00     0.188 HD
HETATM   42  C   UNL     1      29.274  46.071  57.496  1.00  0.00     0.123 A 
ENDBRANCH  34  37
ENDBRANCH  23  28
ENDBRANCH   1  22
TORSDOF 9
ENDMDL
MODEL 3
REMARK VINA RESULT:      -8.8      1.729      2.297
REMARK  9 active torsions:
REMARK  status: ('A' for Active; 'I' for Inactive)
REMARK    1  A    between atoms: N_6  and  C_7 
REMARK    2  A    between atoms: C_7  and  C_8 
REMARK    3  A    between atoms: C_8  and  N_9 
REMARK       I    between atoms: N_9  and  C_10 
REMARK    4  A    between atoms: C_10  and  C_12 
REMARK    5  A    between atoms: C_16  and  C_17 
REMARK    6  A    between atoms: C_17  and  N_18 
REMARK    7  A    between atoms: N_18  and  C_19 
REMARK       I    between atoms: N_18  and  C_22 
REMARK    8  A    between atoms: C_22  and  C_24 
REMARK    9  A    between atoms: C_29  and  C_33 
ROOT
HETATM    1  C   UNL     1      23.552  48.080  48.448  1.00  0.00     0.165 C 
ENDROOT
BRANCH   1   2
HETATM    2  C   UNL     1      22.480  48.967  49.039  1.00  0.00    -0.039 A 
HETATM    3  C   UNL     1      22.786  50.261  49.481  1.00  0.00     0.009 A 
HETATM    4  C   UNL     1      21.791  51.088  50.005  1.00  0.00     0.002 A 
HETATM    5  C   UNL     1      20.472  50.639  50.081  1.00  0.00     0.017 A 
HETATM    6  C   UNL     1      20.140  49.359  49.622  1.00  0.00     0.032 A 
HETATM    7  C   UNL     1      21.150  48.523  49.119  1.00  0.00     0.026 A 
BRANCH   6   8
HETATM    8  C   UNL     1      18.745  48.833  49.651  1.00  0.00     0.251 C 
HETATM    9  N   UNL     1      17.953  49.085  48.542  1.00  0.00    -0.355 N 
HETATM   10  H   UNL     1      18.401  49.394  47.689  1.00  0.00     0.162 HD
HETATM   11  O   UNL     1      18.339  48.183  50.612  1.00  0.00    -0.268 OA
BRANCH   9  12
HETATM   12  C   UNL     1      16.646  48.462  48.415  1.00  0.00     0.153 C 
BRANCH  12  13
HETATM   13  C   UNL     1      16.638  47.321  47.372  1.00  0.00     0.292 C 
BRANCH  13  14
HETATM   14  N   UNL     1      17.431  47.556  46.143  1.00  0.00     0.093 N 
HETATM   15  C   UNL     1      16.531  47.718  44.976  1.00  0.00     0.300 C 
HETATM   16  C   UNL     1      15.846  46.420  44.484  1.00  0.00     0.264 C 
HETATM   17  N   UNL     1      16.880  45.334  44.234  1.00  0.00    -0.072 N 
HETATM   18  C   UNL     1      16.252  44.048  43.790  1.00  0.00     0.269 C 
HETATM   19  H   UNL     1      17.483  45.667  43.471  1.00  0.00     0.279 HD
HETATM   20  C   UNL     1      17.779  45.128  45.445  1.00  0.00     0.264 C 
HETATM   21  C   UNL     1      18.403  46.476  45.861  1.00  0.00     0.300 C 
ENDBRANCH  13  14
ENDBRANCH  12  13
ENDBRANCH   9  12
ENDBRANCH   6   8
ENDBRANCH   1   2
BRANCH   1  22
HETATM   22  N   UNL     1      24.549  47.643  49.425  1.00  0.00    -0.337 N 
HETATM   23  C   UNL     1      24.399  46.348  49.981  1.00  0.00     0.280 C 
HETATM   24  O   UNL     1      23.421  45.665  49.656  1.00  0.00    -0.265 OA
BRANCH  22  25
HETATM   25  C   UNL     1      25.685  48.502  49.665  1.00  0.00     0.088 A 
HETATM   26  C   UNL     1      27.069  48.240  49.118  1.00  0.00     0.027 A 
HETATM   27  C   UNL     1      26.253  49.361  48.561  1.00  0.00     0.027 A 
ENDBRANCH  22  25
BRANCH  23  28
HETATM   28  C   UNL     1      25.394  45.847  50.944  1.00  0.00     0.166 A 
HETATM   29  N   UNL     1      26.203  44.820  50.768  1.00  0.00    -0.235 NA
HETATM   30  C   UNL     1      27.046  44.682  51.859  1.00  0.00     0.075 A 
HETATM   31  C   UNL     1      28.073  43.730  51.998  1.00  0.00     0.034 A 
HETATM   32  C   UNL     1      26.839  45.594  52.894  1.00  0.00     0.036 A 
HETATM   33  C   UNL     1      28.869  43.725  53.152  1.00  0.00     0.014 A 
HETATM   34  C   UNL     1      28.655  44.648  54.182  1.00  0.00    -0.022 A 
HETATM   35  C   UNL     1      27.623  45.591  54.061  1.00  0.00     0.033 A 
HETATM   36  S   UNL     1      25.543  46.637  52.467  1.00  0.00    -0.063 SA
BRANCH  34  37
HETATM   37  C   UNL     1      29.513  44.638  55.355  1.00  0.00     0.010 A 
HETATM   38  C   UNL     1      30.518  43.727  55.760  1.00  0.00     0.152 A 
HETATM   39  N   UNL     1      31.089  44.067  56.917  1.00  0.00    -0.187 NA
HETATM   40  N   UNL     1      30.455  45.197  57.262  1.00  0.00    -0.289 N 
HETATM   41  H   UNL     1      30.723  45.655  58.128  1.00  0.00     0.188 HD
HETATM   42  C   UNL     1      29.502  45.582  56.362  1.00  0.00     0.123 A 
ENDBRANCH  34  37
ENDBRANCH  23  28
ENDBRANCH   1  22
TORSDOF 9
ENDMDL
MODEL 4
REMARK VINA RESULT:      -8.7      1.893      2.688
REMARK  9 active torsions:
REMARK  status: ('A' for Active; 'I' for Inactive)
REMARK    1  A    between atoms: N_6  and  C_7 
REMARK    2  A    between atoms: C_7  and  C_8 
REMARK    3  A    between atoms: C_8  and  N_9 
REMARK       I    between atoms: N_9  and  C_10 
REMARK    4  A    between atoms: C_10  and  C_12 
REMARK    5  A    between atoms: C_16  and  C_17 
REMARK    6  A    between atoms: C_17  and  N_18 
REMARK    7  A    between atoms: N_18  and  C_19 
REMARK       I    between atoms: N_18  and  C_22 
REMARK    8  A    between atoms: C_22  and  C_24 
REMARK    9  A    between atoms: C_29  and  C_33 
ROOT
HETATM    1  C   UNL     1      22.814  48.722  47.700  1.00  0.00     0.165 C 
ENDROOT
BRANCH   1   2
HETATM    2  C   UNL     1      21.624  49.527  48.171  1.00  0.00    -0.039 A 
HETATM    3  C   UNL     1      21.744  50.900  48.423  1.00  0.00     0.009 A 
HETATM    4  C   UNL     1      20.639  51.646  48.835  1.00  0.00     0.002 A 
HETATM    5  C   UNL     1      19.394  51.034  48.988  1.00  0.00     0.017 A 
HETATM    6  C   UNL     1      19.248  49.668  48.719  1.00  0.00     0.032 A 
HETATM    7  C   UNL     1      20.368  48.918  48.328  1.00  0.00     0.026 A 
BRANCH   6   8
HETATM    8  C   UNL     1      17.938  48.963  48.837  1.00  0.00     0.251 C 
HETATM    9  N   UNL     1      16.867  49.505  48.146  1.00  0.00    -0.355 N 
HETATM   10  H   UNL     1      17.053  50.191  47.426  1.00  0.00     0.162 HD
HETATM   11  O   UNL     1      17.839  47.933  49.500  1.00  0.00    -0.268 OA
BRANCH   9  12
HETATM   12  C   UNL     1      15.605  48.787  48.067  1.00  0.00     0.153 C 
BRANCH  12  13
HETATM   13  C   UNL     1      15.419  48.073  46.708  1.00  0.00     0.292 C 
BRANCH  13  14
HETATM   14  N   UNL     1      14.878  48.903  45.606  1.00  0.00     0.093 N 
HETATM   15  C   UNL     1      13.426  48.649  45.440  1.00  0.00     0.300 C 
HETATM   16  C   UNL     1      13.062  47.282  44.812  1.00  0.00     0.264 C 
HETATM   17  N   UNL     1      13.808  47.081  43.503  1.00  0.00    -0.072 N 
HETATM   18  C   UNL     1      13.508  45.751  42.881  1.00  0.00     0.269 C 
HETATM   19  H   UNL     1      13.478  47.810  42.857  1.00  0.00     0.279 HD
HETATM   20  C   UNL     1      15.305  47.294  43.674  1.00  0.00     0.264 C 
HETATM   21  C   UNL     1      15.562  48.673  44.314  1.00  0.00     0.300 C 
ENDBRANCH  13  14
ENDBRANCH  12  13
ENDBRANCH   9  12
ENDBRANCH   6   8
ENDBRANCH   1   2
BRANCH   1  22
HETATM   22  N   UNL     1      23.780  48.436  48.761  1.00  0.00    -0.337 N 
HETATM   23  C   UNL     1      23.697  47.175  49.402  1.00  0.00     0.280 C 
HETATM   24  O   UNL     1      22.796  46.393  49.074  1.00  0.00    -0.265 OA
BRANCH  22  25
HETATM   25  C   UNL     1      24.829  49.399  49.000  1.00  0.00     0.088 A 
HETATM   26  C   UNL     1      26.279  49.170  48.643  1.00  0.00     0.027 A 
HETATM   27  C   UNL     1      25.469  50.148  47.855  1.00  0.00     0.027 A 
ENDBRANCH  22  25
BRANCH  23  28
HETATM   28  C   UNL     1      24.666  46.824  50.453  1.00  0.00     0.166 A 
HETATM   29  N   UNL     1      24.824  47.443  51.608  1.00  0.00    -0.235 NA
HETATM   30  C   UNL     1      25.782  46.795  52.370  1.00  0.00     0.075 A 
HETATM   31  C   UNL     1      26.175  47.142  53.677  1.00  0.00     0.034 A 
HETATM   32  C   UNL     1      26.387  45.695  51.763  1.00  0.00     0.036 A 
HETATM   33  C   UNL     1      27.143  46.376  54.341  1.00  0.00     0.014 A 
HETATM   34  C   UNL     1      27.740  45.271  53.723  1.00  0.00    -0.022 A 
HETATM   35  C   UNL     1      27.368  44.927  52.414  1.00  0.00     0.033 A 
HETATM   36  S   UNL     1      25.726  45.492  50.191  1.00  0.00    -0.063 SA
BRANCH  34  37
HETATM   37  C   UNL     1      28.721  44.478  54.445  1.00  0.00     0.010 A 
HETATM   38  C   UNL     1      29.078  43.113  54.324  1.00  0.00     0.152 A 
HETATM   39  N   UNL     1      30.035  42.750  55.179  1.00  0.00    -0.187 NA
HETATM   40  N   UNL     1      30.299  43.879  55.855  1.00  0.00    -0.289 N 
HETATM   41  H   UNL     1      31.011  43.852  56.578  1.00  0.00     0.188 HD
HETATM   42  C   UNL     1      29.539  44.941  55.455  1.00  0.00     0.123 A 
ENDBRANCH  34  37
ENDBRANCH  23  28
ENDBRANCH   1  22
TORSDOF 9
ENDMDL
MODEL 5
REMARK VINA RESULT:      -8.6      2.477      3.613
REMARK  9 active torsions:
REMARK  status: ('A' for Active; 'I' for Inactive)
REMARK    1  A    between atoms: N_6  and  C_7 
REMARK    2  A    between atoms: C_7  and  C_8 
REMARK    3  A    between atoms: C_8  and  N_9 
REMARK       I    between atoms: N_9  and  C_10 
REMARK    4  A    between atoms: C_10  and  C_12 
REMARK    5  A    between atoms: C_16  and  C_17 
REMARK    6  A    between atoms: C_17  and  N_18 
REMARK    7  A    between atoms: N_18  and  C_19 
REMARK       I    between atoms: N_18  and  C_22 
REMARK    8  A    between atoms: C_22  and  C_24 
REMARK    9  A    between atoms: C_29  and  C_33 
ROOT
HETATM    1  C   UNL     1      23.077  49.146  47.704  1.00  0.00     0.165 C 
ENDROOT
BRANCH   1   2
HETATM    2  C   UNL     1      21.776  49.699  48.241  1.00  0.00    -0.039 A 
HETATM    3  C   UNL     1      21.769  50.808  49.096  1.00  0.00     0.009 A 
HETATM    4  C   UNL     1      20.567  51.332  49.573  1.00  0.00     0.002 A 
HETATM    5  C   UNL     1      19.351  50.764  49.188  1.00  0.00     0.017 A 
HETATM    6  C   UNL     1      19.335  49.670  48.315  1.00  0.00     0.032 A 
HETATM    7  C   UNL     1      20.549  49.133  47.859  1.00  0.00     0.026 A 
BRANCH   6   8
HETATM    8  C   UNL     1      18.068  49.037  47.847  1.00  0.00     0.251 C 
HETATM    9  N   UNL     1      17.935  48.827  46.484  1.00  0.00    -0.355 N 
HETATM   10  H   UNL     1      18.761  48.887  45.902  1.00  0.00     0.162 HD
HETATM   11  O   UNL     1      17.202  48.697  48.650  1.00  0.00    -0.268 OA
BRANCH   9  12
HETATM   12  C   UNL     1      16.814  48.061  45.964  1.00  0.00     0.153 C 
BRANCH  12  13
HETATM   13  C   UNL     1      17.264  46.751  45.279  1.00  0.00     0.292 C 
BRANCH  13  14
HETATM   14  N   UNL     1      16.905  45.494  45.976  1.00  0.00     0.093 N 
HETATM   15  C   UNL     1      17.622  45.404  47.271  1.00  0.00     0.300 C 
HETATM   16  C   UNL     1      19.138  45.107  47.168  1.00  0.00     0.264 C 
HETATM   17  N   UNL     1      19.381  43.870  46.317  1.00  0.00    -0.072 N 
HETATM   18  C   UNL     1      20.841  43.570  46.163  1.00  0.00     0.269 C 
HETATM   19  H   UNL     1      18.949  43.080  46.811  1.00  0.00     0.279 HD
HETATM   20  C   UNL     1      18.687  43.975  44.967  1.00  0.00     0.264 C 
HETATM   21  C   UNL     1      17.190  44.282  45.177  1.00  0.00     0.300 C 
ENDBRANCH  13  14
ENDBRANCH  12  13
ENDBRANCH   9  12
ENDBRANCH   6   8
ENDBRANCH   1   2
BRANCH   1  22
HETATM   22  N   UNL     1      24.021  48.757  48.753  1.00  0.00    -0.337 N 
HETATM   23  C   UNL     1      23.807  47.515  49.401  1.00  0.00     0.280 C 
HETATM   24  O   UNL     1      22.820  46.838  49.089  1.00  0.00    -0.265 OA
BRANCH  22  25
HETATM   25  C   UNL     1      25.174  49.599  48.973  1.00  0.00     0.088 A 
HETATM   26  C   UNL     1      26.592  49.179  48.664  1.00  0.00     0.027 A 
HETATM   27  C   UNL     1      25.922  50.207  47.811  1.00  0.00     0.027 A 
ENDBRANCH  22  25
BRANCH  23  28
HETATM   28  C   UNL     1      24.745  47.062  50.440  1.00  0.00     0.166 A 
HETATM   29  N   UNL     1      24.901  47.592  51.638  1.00  0.00    -0.235 NA
HETATM   30  C   UNL     1      25.826  46.863  52.367  1.00  0.00     0.075 A 
HETATM   31  C   UNL     1      26.204  47.104  53.702  1.00  0.00     0.034 A 
HETATM   32  C   UNL     1      26.410  45.791  51.693  1.00  0.00     0.036 A 
HETATM   33  C   UNL     1      27.138  46.264  54.325  1.00  0.00     0.014 A 
HETATM   34  C   UNL     1      27.714  45.189  53.640  1.00  0.00    -0.022 A 
HETATM   35  C   UNL     1      27.355  44.949  52.304  1.00  0.00     0.033 A 
HETATM   36  S   UNL     1      25.771  45.720  50.100  1.00  0.00    -0.063 SA
BRANCH  34  37
HETATM   37  C   UNL     1      28.657  44.316  54.319  1.00  0.00     0.010 A 
HETATM   38  C   UNL     1      28.926  42.936  54.154  1.00  0.00     0.152 A 
HETATM   39  N   UNL     1      29.876  42.492  54.979  1.00  0.00    -0.187 NA
HETATM   40  N   UNL     1      30.224  43.583  55.677  1.00  0.00    -0.289 N 
HETATM   41  H   UNL     1      30.948  43.493  56.383  1.00  0.00     0.188 HD
HETATM   42  C   UNL     1      29.524  44.700  55.322  1.00  0.00     0.123 A 
ENDBRANCH  34  37
ENDBRANCH  23  28
ENDBRANCH   1  22
TORSDOF 9
ENDMDL
MODEL 6
REMARK VINA RESULT:      -8.6      5.150      7.345
REMARK  9 active torsions:
REMARK  status: ('A' for Active; 'I' for Inactive)
REMARK    1  A    between atoms: N_6  and  C_7 
REMARK    2  A    between atoms: C_7  and  C_8 
REMARK    3  A    between atoms: C_8  and  N_9 
REMARK       I    between atoms: N_9  and  C_10 
REMARK    4  A    between atoms: C_10  and  C_12 
REMARK    5  A    between atoms: C_16  and  C_17 
REMARK    6  A    between atoms: C_17  and  N_18 
REMARK    7  A    between atoms: N_18  and  C_19 
REMARK       I    between atoms: N_18  and  C_22 
REMARK    8  A    between atoms: C_22  and  C_24 
REMARK    9  A    between atoms: C_29  and  C_33 
ROOT
HETATM    1  C   UNL     1      25.240  45.692  50.860  1.00  0.00     0.165 C 
ENDROOT
BRANCH   1   2
HETATM    2  C   UNL     1      25.563  46.970  50.120  1.00  0.00    -0.039 A 
HETATM    3  C   UNL     1      26.892  47.334  49.867  1.00  0.00     0.009 A 
HETATM    4  C   UNL     1      27.189  48.502  49.164  1.00  0.00     0.002 A 
HETATM    5  C   UNL     1      26.161  49.316  48.687  1.00  0.00     0.017 A 
HETATM    6  C   UNL     1      24.825  48.959  48.908  1.00  0.00     0.032 A 
HETATM    7  C   UNL     1      24.534  47.796  49.638  1.00  0.00     0.026 A 
BRANCH   6   8
HETATM    8  C   UNL     1      23.683  49.773  48.401  1.00  0.00     0.251 C 
HETATM    9  N   UNL     1      22.670  50.066  49.299  1.00  0.00    -0.355 N 
HETATM   10  H   UNL     1      22.845  49.928  50.287  1.00  0.00     0.162 HD
HETATM   11  O   UNL     1      23.670  50.182  47.241  1.00  0.00    -0.268 OA
BRANCH   9  12
HETATM   12  C   UNL     1      21.613  50.996  48.938  1.00  0.00     0.153 C 
BRANCH  12  13
HETATM   13  C   UNL     1      20.283  50.277  48.614  1.00  0.00     0.292 C 
BRANCH  13  14
HETATM   14  N   UNL     1      19.441  49.910  49.777  1.00  0.00     0.093 N 
HETATM   15  C   UNL     1      19.286  48.437  49.853  1.00  0.00     0.300 C 
HETATM   16  C   UNL     1      18.362  47.814  48.779  1.00  0.00     0.264 C 
HETATM   17  N   UNL     1      17.010  48.510  48.769  1.00  0.00    -0.072 N 
HETATM   18  C   UNL     1      16.099  47.958  47.716  1.00  0.00     0.269 C 
HETATM   19  H   UNL     1      16.577  48.331  49.684  1.00  0.00     0.279 HD
HETATM   20  C   UNL     1      17.159  50.020  48.644  1.00  0.00     0.264 C 
HETATM   21  C   UNL     1      18.102  50.539  49.749  1.00  0.00     0.300 C 
ENDBRANCH  13  14
ENDBRANCH  12  13
ENDBRANCH   9  12
ENDBRANCH   6   8
ENDBRANCH   1   2
BRANCH   1  22
HETATM   22  N   UNL     1      25.380  44.491  50.035  1.00  0.00    -0.337 N 
HETATM   23  C   UNL     1      26.494  43.651  50.283  1.00  0.00     0.280 C 
HETATM   24  O   UNL     1      27.317  43.984  51.146  1.00  0.00    -0.265 OA
BRANCH  22  25
HETATM   25  C   UNL     1      24.315  44.174  49.113  1.00  0.00     0.088 A 
HETATM   26  C   UNL     1      23.204  43.196  49.415  1.00  0.00     0.027 A 
HETATM   27  C   UNL     1      22.907  44.659  49.360  1.00  0.00     0.027 A 
ENDBRANCH  22  25
BRANCH  23  28
HETATM   28  C   UNL     1      26.664  42.414  49.504  1.00  0.00     0.166 A 
HETATM   29  N   UNL     1      27.255  42.305  48.329  1.00  0.00    -0.235 NA
HETATM   30  C   UNL     1      27.287  40.979  47.931  1.00  0.00     0.075 A 
HETATM   31  C   UNL     1      27.884  40.480  46.758  1.00  0.00     0.034 A 
HETATM   32  C   UNL     1      26.671  40.078  48.799  1.00  0.00     0.036 A 
HETATM   33  C   UNL     1      27.863  39.103  46.495  1.00  0.00     0.014 A 
HETATM   34  C   UNL     1      27.246  38.208  47.376  1.00  0.00    -0.022 A 
HETATM   35  C   UNL     1      26.633  38.697  48.540  1.00  0.00     0.033 A 
HETATM   36  S   UNL     1      26.036  40.942  50.141  1.00  0.00    -0.063 SA
BRANCH  34  37
HETATM   37  C   UNL     1      27.263  36.783  47.093  1.00  0.00     0.010 A 
HETATM   38  C   UNL     1      27.911  36.050  46.070  1.00  0.00     0.152 A 
HETATM   39  N   UNL     1      27.679  34.738  46.146  1.00  0.00    -0.187 NA
HETATM   40  N   UNL     1      26.882  34.620  47.218  1.00  0.00    -0.289 N 
HETATM   41  H   UNL     1      26.564  33.693  47.483  1.00  0.00     0.188 HD
HETATM   42  C   UNL     1      26.602  35.814  47.820  1.00  0.00     0.123 A 
ENDBRANCH  34  37
ENDBRANCH  23  28
ENDBRANCH   1  22
TORSDOF 9
ENDMDL
MODEL 7
REMARK VINA RESULT:      -8.5      2.283      3.466
REMARK  9 active torsions:
REMARK  status: ('A' for Active; 'I' for Inactive)
REMARK    1  A    between atoms: N_6  and  C_7 
REMARK    2  A    between atoms: C_7  and  C_8 
REMARK    3  A    between atoms: C_8  and  N_9 
REMARK       I    between atoms: N_9  and  C_10 
REMARK    4  A    between atoms: C_10  and  C_12 
REMARK    5  A    between atoms: C_16  and  C_17 
REMARK    6  A    between atoms: C_17  and  N_18 
REMARK    7  A    between atoms: N_18  and  C_19 
REMARK       I    between atoms: N_18  and  C_22 
REMARK    8  A    between atoms: C_22  and  C_24 
REMARK    9  A    between atoms: C_29  and  C_33 
ROOT
HETATM    1  C   UNL     1      23.124  49.204  47.755  1.00  0.00     0.165 C 
ENDROOT
BRANCH   1   2
HETATM    2  C   UNL     1      21.900  49.897  48.309  1.00  0.00    -0.039 A 
HETATM    3  C   UNL     1      21.943  50.537  49.554  1.00  0.00     0.009 A 
HETATM    4  C   UNL     1      20.820  51.197  50.054  1.00  0.00     0.002 A 
HETATM    5  C   UNL     1      19.640  51.240  49.309  1.00  0.00     0.017 A 
HETATM    6  C   UNL     1      19.583  50.627  48.052  1.00  0.00     0.032 A 
HETATM    7  C   UNL     1      20.709  49.944  47.566  1.00  0.00     0.026 A 
BRANCH   6   8
HETATM    8  C   UNL     1      18.361  50.661  47.198  1.00  0.00     0.251 C 
HETATM    9  N   UNL     1      17.751  51.892  47.020  1.00  0.00    -0.355 N 
HETATM   10  H   UNL     1      18.267  52.728  47.267  1.00  0.00     0.162 HD
HETATM   11  O   UNL     1      17.942  49.638  46.660  1.00  0.00    -0.268 OA
BRANCH   9  12
HETATM   12  C   UNL     1      16.664  52.044  46.067  1.00  0.00     0.153 C 
BRANCH  12  13
HETATM   13  C   UNL     1      17.169  52.401  44.651  1.00  0.00     0.292 C 
BRANCH  13  14
HETATM   14  N   UNL     1      16.775  53.733  44.135  1.00  0.00     0.093 N 
HETATM   15  C   UNL     1      15.311  53.924  44.278  1.00  0.00     0.300 C 
HETATM   16  C   UNL     1      14.438  53.104  43.298  1.00  0.00     0.264 C 
HETATM   17  N   UNL     1      14.886  53.337  41.864  1.00  0.00    -0.072 N 
HETATM   18  C   UNL     1      14.087  52.530  40.886  1.00  0.00     0.269 C 
HETATM   19  H   UNL     1      14.722  54.330  41.658  1.00  0.00     0.279 HD
HETATM   20  C   UNL     1      16.379  53.096  41.698  1.00  0.00     0.264 C 
HETATM   21  C   UNL     1      17.157  53.948  42.722  1.00  0.00     0.300 C 
ENDBRANCH  13  14
ENDBRANCH  12  13
ENDBRANCH   9  12
ENDBRANCH   6   8
ENDBRANCH   1   2
BRANCH   1  22
HETATM   22  N   UNL     1      24.070  48.780  48.788  1.00  0.00    -0.337 N 
HETATM   23  C   UNL     1      23.821  47.548  49.442  1.00  0.00     0.280 C 
HETATM   24  O   UNL     1      22.804  46.908  49.148  1.00  0.00    -0.265 OA
BRANCH  22  25
HETATM   25  C   UNL     1      25.258  49.578  48.986  1.00  0.00     0.088 A 
HETATM   26  C   UNL     1      26.650  49.119  48.621  1.00  0.00     0.027 A 
HETATM   27  C   UNL     1      25.988  50.186  47.813  1.00  0.00     0.027 A 
ENDBRANCH  22  25
BRANCH  23  28
HETATM   28  C   UNL     1      24.760  47.061  50.465  1.00  0.00     0.166 A 
HETATM   29  N   UNL     1      24.936  47.570  51.670  1.00  0.00    -0.235 NA
HETATM   30  C   UNL     1      25.853  46.812  52.380  1.00  0.00     0.075 A 
HETATM   31  C   UNL     1      26.247  47.025  53.714  1.00  0.00     0.034 A 
HETATM   32  C   UNL     1      26.410  45.740  51.684  1.00  0.00     0.036 A 
HETATM   33  C   UNL     1      27.170  46.158  54.316  1.00  0.00     0.014 A 
HETATM   34  C   UNL     1      27.719  45.083  53.609  1.00  0.00    -0.022 A 
HETATM   35  C   UNL     1      27.345  44.870  52.273  1.00  0.00     0.033 A 
HETATM   36  S   UNL     1      25.757  45.705  50.096  1.00  0.00    -0.063 SA
BRANCH  34  37
HETATM   37  C   UNL     1      28.652  44.182  54.266  1.00  0.00     0.010 A 
HETATM   38  C   UNL     1      28.855  42.789  54.116  1.00  0.00     0.152 A 
HETATM   39  N   UNL     1      29.819  42.318  54.910  1.00  0.00    -0.187 NA
HETATM   40  N   UNL     1      30.240  43.405  55.575  1.00  0.00    -0.289 N 
HETATM   41  H   UNL     1      30.987  43.296  56.253  1.00  0.00     0.188 HD
HETATM   42  C   UNL     1      29.573  44.545  55.227  1.00  0.00     0.123 A 
ENDBRANCH  34  37
ENDBRANCH  23  28
ENDBRANCH   1  22
TORSDOF 9
ENDMDL
MODEL 8
REMARK VINA RESULT:      -8.5      2.947      3.926
REMARK  9 active torsions:
REMARK  status: ('A' for Active; 'I' for Inactive)
REMARK    1  A    between atoms: N_6  and  C_7 
REMARK    2  A    between atoms: C_7  and  C_8 
REMARK    3  A    between atoms: C_8  and  N_9 
REMARK       I    between atoms: N_9  and  C_10 
REMARK    4  A    between atoms: C_10  and  C_12 
REMARK    5  A    between atoms: C_16  and  C_17 
REMARK    6  A    between atoms: C_17  and  N_18 
REMARK    7  A    between atoms: N_18  and  C_19 
REMARK       I    between atoms: N_18  and  C_22 
REMARK    8  A    between atoms: C_22  and  C_24 
REMARK    9  A    between atoms: C_29  and  C_33 
ROOT
HETATM    1  C   UNL     1      22.956  49.754  47.817  1.00  0.00     0.165 C 
ENDROOT
BRANCH   1   2
HETATM    2  C   UNL     1      21.689  50.365  48.373  1.00  0.00    -0.039 A 
HETATM    3  C   UNL     1      21.616  50.764  49.714  1.00  0.00     0.009 A 
HETATM    4  C   UNL     1      20.455  51.349  50.221  1.00  0.00     0.002 A 
HETATM    5  C   UNL     1      19.353  51.558  49.389  1.00  0.00     0.017 A 
HETATM    6  C   UNL     1      19.414  51.189  48.040  1.00  0.00     0.032 A 
HETATM    7  C   UNL     1      20.576  50.579  47.544  1.00  0.00     0.026 A 
BRANCH   6   8
HETATM    8  C   UNL     1      18.280  51.412  47.097  1.00  0.00     0.251 C 
HETATM    9  N   UNL     1      18.419  50.906  45.815  1.00  0.00    -0.355 N 
HETATM   10  H   UNL     1      19.148  50.226  45.640  1.00  0.00     0.162 HD
HETATM   11  O   UNL     1      17.264  51.997  47.465  1.00  0.00    -0.268 OA
BRANCH   9  12
HETATM   12  C   UNL     1      17.297  50.926  44.891  1.00  0.00     0.153 C 
BRANCH  12  13
HETATM   13  C   UNL     1      16.744  49.511  44.606  1.00  0.00     0.292 C 
BRANCH  13  14
HETATM   14  N   UNL     1      16.455  48.673  45.794  1.00  0.00     0.093 N 
HETATM   15  C   UNL     1      16.400  47.242  45.409  1.00  0.00     0.300 C 
HETATM   16  C   UNL     1      15.147  46.822  44.603  1.00  0.00     0.264 C 
HETATM   17  N   UNL     1      13.880  47.246  45.329  1.00  0.00    -0.072 N 
HETATM   18  C   UNL     1      12.644  46.889  44.561  1.00  0.00     0.269 C 
HETATM   19  H   UNL     1      13.858  46.729  46.216  1.00  0.00     0.279 HD
HETATM   20  C   UNL     1      13.908  48.726  45.685  1.00  0.00     0.264 C 
HETATM   21  C   UNL     1      15.195  49.043  46.475  1.00  0.00     0.300 C 
ENDBRANCH  13  14
ENDBRANCH  12  13
ENDBRANCH   9  12
ENDBRANCH   6   8
ENDBRANCH   1   2
BRANCH   1  22
HETATM   22  N   UNL     1      23.423  48.593  48.575  1.00  0.00    -0.337 N 
HETATM   23  C   UNL     1      24.676  48.697  49.229  1.00  0.00     0.280 C 
HETATM   24  O   UNL     1      25.336  49.735  49.100  1.00  0.00    -0.265 OA
BRANCH  22  25
HETATM   25  C   UNL     1      22.527  47.468  48.712  1.00  0.00     0.088 A 
HETATM   26  C   UNL     1      21.745  46.873  47.565  1.00  0.00     0.027 A 
HETATM   27  C   UNL     1      22.892  46.115  48.150  1.00  0.00     0.027 A 
ENDBRANCH  22  25
BRANCH  23  28
HETATM   28  C   UNL     1      25.176  47.569  50.032  1.00  0.00     0.166 A 
HETATM   29  N   UNL     1      24.758  47.219  51.234  1.00  0.00    -0.235 NA
HETATM   30  C   UNL     1      25.411  46.071  51.652  1.00  0.00     0.075 A 
HETATM   31  C   UNL     1      25.184  45.381  52.857  1.00  0.00     0.034 A 
HETATM   32  C   UNL     1      26.369  45.572  50.770  1.00  0.00     0.036 A 
HETATM   33  C   UNL     1      25.903  44.211  53.138  1.00  0.00     0.014 A 
HETATM   34  C   UNL     1      26.858  43.717  52.243  1.00  0.00    -0.022 A 
HETATM   35  C   UNL     1      27.105  44.406  51.046  1.00  0.00     0.033 A 
HETATM   36  S   UNL     1      26.439  46.591  49.388  1.00  0.00    -0.063 SA
BRANCH  34  37
HETATM   37  C   UNL     1      27.570  42.486  52.546  1.00  0.00     0.010 A 
HETATM   38  C   UNL     1      28.073  41.985  53.771  1.00  0.00     0.152 A 
HETATM   39  N   UNL     1      28.677  40.803  53.638  1.00  0.00    -0.187 NA
HETATM   40  N   UNL     1      28.565  40.537  52.328  1.00  0.00    -0.289 N 
HETATM   41  H   UNL     1      28.959  39.670  51.977  1.00  0.00     0.188 HD
HETATM   42  C   UNL     1      27.913  41.513  51.630  1.00  0.00     0.123 A 
ENDBRANCH  34  37
ENDBRANCH  23  28
ENDBRANCH   1  22
TORSDOF 9
ENDMDL
MODEL 9
REMARK VINA RESULT:      -8.4     13.090     19.363
REMARK  9 active torsions:
REMARK  status: ('A' for Active; 'I' for Inactive)
REMARK    1  A    between atoms: N_6  and  C_7 
REMARK    2  A    between atoms: C_7  and  C_8 
REMARK    3  A    between atoms: C_8  and  N_9 
REMARK       I    between atoms: N_9  and  C_10 
REMARK    4  A    between atoms: C_10  and  C_12 
REMARK    5  A    between atoms: C_16  and  C_17 
REMARK    6  A    between atoms: C_17  and  N_18 
REMARK    7  A    between atoms: N_18  and  C_19 
REMARK       I    between atoms: N_18  and  C_22 
REMARK    8  A    between atoms: C_22  and  C_24 
REMARK    9  A    between atoms: C_29  and  C_33 
ROOT
HETATM    1  C   UNL     1      36.475  51.080  42.819  1.00  0.00     0.165 C 
ENDROOT
BRANCH   1   2
HETATM    2  C   UNL     1      37.007  52.485  42.994  1.00  0.00    -0.039 A 
HETATM    3  C   UNL     1      37.131  53.344  41.895  1.00  0.00     0.009 A 
HETATM    4  C   UNL     1      37.600  54.648  42.061  1.00  0.00     0.002 A 
HETATM    5  C   UNL     1      37.937  55.118  43.331  1.00  0.00     0.017 A 
HETATM    6  C   UNL     1      37.797  54.283  44.446  1.00  0.00     0.032 A 
HETATM    7  C   UNL     1      37.349  52.965  44.269  1.00  0.00     0.026 A 
BRANCH   6   8
HETATM    8  C   UNL     1      38.115  54.735  45.832  1.00  0.00     0.251 C 
HETATM    9  N   UNL     1      38.462  53.758  46.750  1.00  0.00    -0.355 N 
HETATM   10  H   UNL     1      38.710  52.838  46.407  1.00  0.00     0.162 HD
HETATM   11  O   UNL     1      38.093  55.930  46.122  1.00  0.00    -0.268 OA
BRANCH   9  12
HETATM   12  C   UNL     1      38.953  54.128  48.067  1.00  0.00     0.153 C 
BRANCH  12  13
HETATM   13  C   UNL     1      40.487  53.982  48.184  1.00  0.00     0.292 C 
BRANCH  13  14
HETATM   14  N   UNL     1      41.288  54.651  47.132  1.00  0.00     0.093 N 
HETATM   15  C   UNL     1      41.983  53.642  46.298  1.00  0.00     0.300 C 
HETATM   16  C   UNL     1      43.174  52.927  46.980  1.00  0.00     0.264 C 
HETATM   17  N   UNL     1      44.154  53.944  47.543  1.00  0.00    -0.072 N 
HETATM   18  C   UNL     1      45.305  53.290  48.245  1.00  0.00     0.269 C 
HETATM   19  H   UNL     1      44.532  54.468  46.744  1.00  0.00     0.279 HD
HETATM   20  C   UNL     1      43.456  54.957  48.439  1.00  0.00     0.264 C 
HETATM   21  C   UNL     1      42.283  55.603  47.673  1.00  0.00     0.300 C 
ENDBRANCH  13  14
ENDBRANCH  12  13
ENDBRANCH   9  12
ENDBRANCH   6   8
ENDBRANCH   1   2
BRANCH   1  22
HETATM   22  N   UNL     1      35.175  51.030  42.148  1.00  0.00    -0.337 N 
HETATM   23  C   UNL     1      34.061  51.573  42.833  1.00  0.00     0.280 C 
HETATM   24  O   UNL     1      34.219  52.023  43.974  1.00  0.00    -0.265 OA
BRANCH  22  25
HETATM   25  C   UNL     1      35.135  50.547  40.787  1.00  0.00     0.088 A 
HETATM   26  C   UNL     1      35.243  51.441  39.574  1.00  0.00     0.027 A 
HETATM   27  C   UNL     1      36.379  50.537  39.931  1.00  0.00     0.027 A 
ENDBRANCH  22  25
BRANCH  23  28
HETATM   28  C   UNL     1      32.738  51.577  42.188  1.00  0.00     0.166 A 
HETATM   29  N   UNL     1      32.138  52.618  41.640  1.00  0.00    -0.235 NA
HETATM   30  C   UNL     1      30.935  52.233  41.073  1.00  0.00     0.075 A 
HETATM   31  C   UNL     1      30.053  53.064  40.358  1.00  0.00     0.034 A 
HETATM   32  C   UNL     1      30.600  50.889  41.234  1.00  0.00     0.036 A 
HETATM   33  C   UNL     1      28.876  52.529  39.814  1.00  0.00     0.014 A 
HETATM   34  C   UNL     1      28.553  51.178  39.978  1.00  0.00    -0.022 A 
HETATM   35  C   UNL     1      29.418  50.344  40.703  1.00  0.00     0.033 A 
HETATM   36  S   UNL     1      31.840  50.108  42.130  1.00  0.00    -0.063 SA
BRANCH  34  37
HETATM   37  C   UNL     1      27.341  50.643  39.379  1.00  0.00     0.010 A 
HETATM   38  C   UNL     1      26.356  49.772  39.903  1.00  0.00     0.152 A 
HETATM   39  N   UNL     1      25.381  49.508  39.030  1.00  0.00    -0.187 NA
HETATM   40  N   UNL     1      25.734  50.208  37.942  1.00  0.00    -0.289 N 
HETATM   41  H   UNL     1      25.133  50.164  37.125  1.00  0.00     0.188 HD
HETATM   42  C   UNL     1      26.900  50.903  38.098  1.00  0.00     0.123 A 
ENDBRANCH  34  37
ENDBRANCH  23  28
ENDBRANCH   1  22
TORSDOF 9
ENDMDL
MODEL 10
REMARK VINA RESULT:      -8.3      4.117      6.786
REMARK  9 active torsions:
REMARK  status: ('A' for Active; 'I' for Inactive)
REMARK    1  A    between atoms: N_6  and  C_7 
REMARK    2  A    between atoms: C_7  and  C_8 
REMARK    3  A    between atoms: C_8  and  N_9 
REMARK       I    between atoms: N_9  and  C_10 
REMARK    4  A    between atoms: C_10  and  C_12 
REMARK    5  A    between atoms: C_16  and  C_17 
REMARK    6  A    between atoms: C_17  and  N_18 
REMARK    7  A    between atoms: N_18  and  C_19 
REMARK       I    between atoms: N_18  and  C_22 
REMARK    8  A    between atoms: C_22  and  C_24 
REMARK    9  A    between atoms: C_29  and  C_33 
ROOT
HETATM    1  C   UNL     1      19.918  51.516  48.836  1.00  0.00     0.165 C 
ENDROOT
BRANCH   1   2
HETATM    2  C   UNL     1      19.009  51.334  47.642  1.00  0.00    -0.039 A 
HETATM    3  C   UNL     1      19.397  50.528  46.564  1.00  0.00     0.009 A 
HETATM    4  C   UNL     1      18.547  50.342  45.472  1.00  0.00     0.002 A 
HETATM    5  C   UNL     1      17.289  50.947  45.450  1.00  0.00     0.017 A 
HETATM    6  C   UNL     1      16.872  51.736  46.528  1.00  0.00     0.032 A 
HETATM    7  C   UNL     1      17.742  51.939  47.611  1.00  0.00     0.026 A 
BRANCH   6   8
HETATM    8  C   UNL     1      15.530  52.385  46.575  1.00  0.00     0.251 C 
HETATM    9  N   UNL     1      15.348  53.389  47.512  1.00  0.00    -0.355 N 
HETATM   10  H   UNL     1      16.165  53.795  47.951  1.00  0.00     0.162 HD
HETATM   11  O   UNL     1      14.644  52.052  45.791  1.00  0.00    -0.268 OA
BRANCH   9  12
HETATM   12  C   UNL     1      14.134  54.189  47.506  1.00  0.00     0.153 C 
BRANCH  12  13
HETATM   13  C   UNL     1      13.881  54.883  48.864  1.00  0.00     0.292 C 
BRANCH  13  14
HETATM   14  N   UNL     1      13.240  54.052  49.911  1.00  0.00     0.093 N 
HETATM   15  C   UNL     1      11.987  54.694  50.377  1.00  0.00     0.300 C 
HETATM   16  C   UNL     1      12.176  55.952  51.258  1.00  0.00     0.264 C 
HETATM   17  N   UNL     1      13.106  55.651  52.423  1.00  0.00    -0.072 N 
HETATM   18  C   UNL     1      13.343  56.856  53.281  1.00  0.00     0.269 C 
HETATM   19  H   UNL     1      12.639  54.942  53.002  1.00  0.00     0.279 HD
HETATM   20  C   UNL     1      14.415  55.036  51.949  1.00  0.00     0.264 C 
HETATM   21  C   UNL     1      14.118  53.800  51.074  1.00  0.00     0.300 C 
ENDBRANCH  13  14
ENDBRANCH  12  13
ENDBRANCH   9  12
ENDBRANCH   6   8
ENDBRANCH   1   2
BRANCH   1  22
HETATM   22  N   UNL     1      20.667  50.309  49.186  1.00  0.00    -0.337 N 
HETATM   23  C   UNL     1      21.997  50.200  48.709  1.00  0.00     0.280 C 
HETATM   24  O   UNL     1      22.453  51.098  47.990  1.00  0.00    -0.265 OA
BRANCH  22  25
HETATM   25  C   UNL     1      20.051  49.368  50.092  1.00  0.00     0.088 A 
HETATM   26  C   UNL     1      18.630  49.490  50.591  1.00  0.00     0.027 A 
HETATM   27  C   UNL     1      18.981  48.417  49.612  1.00  0.00     0.027 A 
ENDBRANCH  22  25
BRANCH  23  28
HETATM   28  C   UNL     1      22.805  49.021  49.060  1.00  0.00     0.166 A 
HETATM   29  N   UNL     1      23.793  48.982  49.934  1.00  0.00    -0.235 NA
HETATM   30  C   UNL     1      24.278  47.690  50.051  1.00  0.00     0.075 A 
HETATM   31  C   UNL     1      25.295  47.262  50.926  1.00  0.00     0.034 A 
HETATM   32  C   UNL     1      23.674  46.746  49.221  1.00  0.00     0.036 A 
HETATM   33  C   UNL     1      25.666  45.911  50.957  1.00  0.00     0.014 A 
HETATM   34  C   UNL     1      25.050  44.972  50.122  1.00  0.00    -0.022 A 
HETATM   35  C   UNL     1      24.046  45.390  49.235  1.00  0.00     0.033 A 
HETATM   36  S   UNL     1      22.474  47.526  48.271  1.00  0.00    -0.063 SA
BRANCH  34  37
HETATM   37  C   UNL     1      25.435  43.572  50.195  1.00  0.00     0.010 A 
HETATM   38  C   UNL     1      26.481  42.865  49.555  1.00  0.00     0.152 A 
HETATM   39  N   UNL     1      26.507  41.572  49.881  1.00  0.00    -0.187 NA
HETATM   40  N   UNL     1      25.479  41.440  50.732  1.00  0.00    -0.289 N 
HETATM   41  H   UNL     1      25.293  40.523  51.125  1.00  0.00     0.188 HD
HETATM   42  C   UNL     1      24.804  42.607  50.952  1.00  0.00     0.123 A 
ENDBRANCH  34  37
ENDBRANCH  23  28
ENDBRANCH   1  22
TORSDOF 9
ENDMDL
