MODEL 1
REMARK VINA RESULT:     -11.0      0.000      0.000
REMARK  5 active torsions:
REMARK  status: ('A' for Active; 'I' for Inactive)
REMARK       I    between atoms: C_2  and  N_3 
REMARK    1  A    between atoms: C_2  and  C_31 
REMARK    2  A    between atoms: N_3  and  C_4 
REMARK    3  A    between atoms: C_9  and  C_10 
REMARK    4  A    between atoms: C_12  and  N_13 
REMARK    5  A    between atoms: N_13  and  C_14 
ROOT
HETATM    1  C   UNL     1      27.221  43.893  52.644  1.00  0.00     0.164 A 
HETATM    2  N   UNL     1      26.596  45.074  52.514  1.00  0.00    -0.210 NA
HETATM    3  C   UNL     1      25.533  45.146  51.693  1.00  0.00     0.143 A 
HETATM    4  C   UNL     1      25.086  44.036  50.958  1.00  0.00     0.039 A 
HETATM    5  C   UNL     1      23.999  44.041  50.045  1.00  0.00     0.018 A 
HETATM    6  C   UNL     1      23.644  42.888  49.350  1.00  0.00     0.001 A 
HETATM    7  C   UNL     1      24.370  41.723  49.552  1.00  0.00     0.002 A 
HETATM    8  C   UNL     1      25.443  41.722  50.447  1.00  0.00     0.032 A 
HETATM    9  C   UNL     1      25.813  42.858  51.157  1.00  0.00     0.073 A 
HETATM   10  N   UNL     1      26.852  42.778  51.994  1.00  0.00    -0.228 NA
ENDROOT
BRANCH   1  11
HETATM   11  C   UNL     1      28.397  43.837  53.547  1.00  0.00     0.039 A 
HETATM   12  C   UNL     1      29.469  42.912  53.410  1.00  0.00     0.049 A 
HETATM   13  C   UNL     1      30.542  42.961  54.316  1.00  0.00     0.030 A 
HETATM   14  C   UNL     1      30.579  43.893  55.355  1.00  0.00     0.002 A 
HETATM   15  C   UNL     1      29.540  44.794  55.510  1.00  0.00     0.001 A 
HETATM   16  C   UNL     1      28.468  44.763  54.620  1.00  0.00     0.018 A 
BRANCH  12  17
HETATM   17  N   UNL     1      29.429  41.933  52.385  1.00  0.00    -0.321 N 
HETATM   18  C   UNL     1      29.002  40.620  52.450  1.00  0.00     0.274 C 
HETATM   19  O   UNL     1      28.624  40.011  53.445  1.00  0.00    -0.266 OA
HETATM   20  H   UNL     1      29.778  42.225  51.467  1.00  0.00     0.169 HD
BRANCH  18  21
HETATM   21  C   UNL     1      29.027  39.911  51.126  1.00  0.00     0.124 A 
HETATM   22  C   UNL     1      29.541  38.621  51.046  1.00  0.00     0.037 A 
HETATM   23  C   UNL     1      29.524  37.978  49.811  1.00  0.00     0.004 A 
HETATM   24  C   UNL     1      28.992  38.637  48.708  1.00  0.00     0.019 A 
HETATM   25  C   UNL     1      28.499  39.921  48.881  1.00  0.00     0.117 A 
HETATM   26  N   UNL     1      28.509  40.582  50.060  1.00  0.00    -0.256 NA
ENDBRANCH  18  21
ENDBRANCH  12  17
ENDBRANCH   1  11
BRANCH   3  27
HETATM   27  N   UNL     1      24.831  46.378  51.582  1.00  0.00    -0.340 N 
HETATM   28  H   UNL     1      24.702  46.761  52.512  1.00  0.00     0.167 HD
BRANCH  27  29
HETATM   29  C   UNL     1      25.032  47.393  50.616  1.00  0.00     0.034 A 
HETATM   30  C   UNL     1      26.316  47.807  50.233  1.00  0.00     0.032 A 
HETATM   31  C   UNL     1      26.530  48.771  49.239  1.00  0.00     0.034 A 
HETATM   32  C   UNL     1      25.396  49.299  48.619  1.00  0.00     0.062 A 
HETATM   33  N   UNL     1      25.248  50.237  47.632  1.00  0.00    -0.278 N 
HETATM   34  C   UNL     1      24.106  48.898  48.941  1.00  0.00     0.013 A 
HETATM   35  H   UNL     1      25.979  50.749  47.152  1.00  0.00     0.189 HD
HETATM   36  N   UNL     1      23.969  50.474  47.286  1.00  0.00    -0.186 NA
HETATM   37  C   UNL     1      23.277  49.657  48.086  1.00  0.00     0.152 A 
HETATM   38  C   UNL     1      23.916  47.923  49.939  1.00  0.00     0.044 A 
ENDBRANCH  27  29
ENDBRANCH   3  27
TORSDOF 5
ENDMDL
MODEL 2
REMARK VINA RESULT:     -10.8      2.254      3.425
REMARK  5 active torsions:
REMARK  status: ('A' for Active; 'I' for Inactive)
REMARK       I    between atoms: C_2  and  N_3 
REMARK    1  A    between atoms: C_2  and  C_31 
REMARK    2  A    between atoms: N_3  and  C_4 
REMARK    3  A    between atoms: C_9  and  C_10 
REMARK    4  A    between atoms: C_12  and  N_13 
REMARK    5  A    between atoms: N_13  and  C_14 
ROOT
HETATM    1  C   UNL     1      25.394  46.294  52.152  1.00  0.00     0.164 A 
HETATM    2  N   UNL     1      25.301  47.251  51.215  1.00  0.00    -0.210 NA
HETATM    3  C   UNL     1      24.635  46.972  50.081  1.00  0.00     0.143 A 
HETATM    4  C   UNL     1      24.065  45.710  49.846  1.00  0.00     0.039 A 
HETATM    5  C   UNL     1      23.382  45.327  48.663  1.00  0.00     0.018 A 
HETATM    6  C   UNL     1      22.866  44.041  48.520  1.00  0.00     0.001 A 
HETATM    7  C   UNL     1      23.031  43.125  49.549  1.00  0.00     0.002 A 
HETATM    8  C   UNL     1      23.710  43.503  50.710  1.00  0.00     0.032 A 
HETATM    9  C   UNL     1      24.228  44.781  50.879  1.00  0.00     0.073 A 
HETATM   10  N   UNL     1      24.866  45.066  52.019  1.00  0.00    -0.228 NA
ENDROOT
BRANCH   1  11
HETATM   11  C   UNL     1      26.142  46.619  53.391  1.00  0.00     0.039 A 
HETATM   12  C   UNL     1      27.173  45.807  53.941  1.00  0.00     0.049 A 
HETATM   13  C   UNL     1      27.825  46.223  55.115  1.00  0.00     0.030 A 
HETATM   14  C   UNL     1      27.481  47.412  55.760  1.00  0.00     0.002 A 
HETATM   15  C   UNL     1      26.474  48.209  55.246  1.00  0.00     0.001 A 
HETATM   16  C   UNL     1      25.816  47.816  54.081  1.00  0.00     0.018 A 
BRANCH  12  17
HETATM   17  N   UNL     1      27.508  44.577  53.321  1.00  0.00    -0.321 N 
HETATM   18  C   UNL     1      27.226  43.288  53.733  1.00  0.00     0.274 C 
HETATM   19  O   UNL     1      26.673  42.945  54.771  1.00  0.00    -0.266 OA
HETATM   20  H   UNL     1      28.049  44.641  52.454  1.00  0.00     0.169 HD
BRANCH  18  21
HETATM   21  C   UNL     1      27.672  42.233  52.762  1.00  0.00     0.124 A 
HETATM   22  C   UNL     1      28.675  41.341  53.125  1.00  0.00     0.037 A 
HETATM   23  C   UNL     1      29.047  40.355  52.215  1.00  0.00     0.004 A 
HETATM   24  C   UNL     1      28.403  40.289  50.984  1.00  0.00     0.019 A 
HETATM   25  C   UNL     1      27.413  41.218  50.707  1.00  0.00     0.117 A 
HETATM   26  N   UNL     1      27.033  42.195  51.559  1.00  0.00    -0.256 NA
ENDBRANCH  18  21
ENDBRANCH  12  17
ENDBRANCH   1  11
BRANCH   3  27
HETATM   27  N   UNL     1      24.487  47.991  49.100  1.00  0.00    -0.340 N 
HETATM   28  H   UNL     1      24.666  47.588  48.187  1.00  0.00     0.167 HD
BRANCH  27  29
HETATM   29  C   UNL     1      23.487  48.992  49.050  1.00  0.00     0.034 A 
HETATM   30  C   UNL     1      23.792  50.327  48.747  1.00  0.00     0.032 A 
HETATM   31  C   UNL     1      22.805  51.317  48.640  1.00  0.00     0.034 A 
HETATM   32  C   UNL     1      21.483  50.913  48.831  1.00  0.00     0.062 A 
HETATM   33  N   UNL     1      20.302  51.606  48.799  1.00  0.00    -0.278 N 
HETATM   34  C   UNL     1      21.130  49.597  49.102  1.00  0.00     0.013 A 
HETATM   35  H   UNL     1      20.172  52.596  48.627  1.00  0.00     0.189 HD
HETATM   36  N   UNL     1      19.214  50.848  49.024  1.00  0.00    -0.186 NA
HETATM   37  C   UNL     1      19.722  49.625  49.209  1.00  0.00     0.152 A 
HETATM   38  C   UNL     1      22.138  48.619  49.199  1.00  0.00     0.044 A 
ENDBRANCH  27  29
ENDBRANCH   3  27
TORSDOF 5
ENDMDL
MODEL 3
REMARK VINA RESULT:     -10.4      4.224      8.965
REMARK  5 active torsions:
REMARK  status: ('A' for Active; 'I' for Inactive)
REMARK       I    between atoms: C_2  and  N_3 
REMARK    1  A    between atoms: C_2  and  C_31 
REMARK    2  A    between atoms: N_3  and  C_4 
REMARK    3  A    between atoms: C_9  and  C_10 
REMARK    4  A    between atoms: C_12  and  N_13 
REMARK    5  A    between atoms: N_13  and  C_14 
ROOT
HETATM    1  C   UNL     1      22.870  48.870  48.522  1.00  0.00     0.164 A 
HETATM    2  N   UNL     1      22.953  47.754  49.264  1.00  0.00    -0.210 NA
HETATM    3  C   UNL     1      24.159  47.390  49.736  1.00  0.00     0.143 A 
HETATM    4  C   UNL     1      25.320  48.126  49.451  1.00  0.00     0.039 A 
HETATM    5  C   UNL     1      26.630  47.787  49.879  1.00  0.00     0.018 A 
HETATM    6  C   UNL     1      27.724  48.576  49.528  1.00  0.00     0.001 A 
HETATM    7  C   UNL     1      27.524  49.702  48.744  1.00  0.00     0.002 A 
HETATM    8  C   UNL     1      26.233  50.030  48.319  1.00  0.00     0.032 A 
HETATM    9  C   UNL     1      25.126  49.264  48.661  1.00  0.00     0.073 A 
HETATM   10  N   UNL     1      23.925  49.642  48.214  1.00  0.00    -0.228 NA
ENDROOT
BRANCH   1  11
HETATM   11  C   UNL     1      21.533  49.249  48.003  1.00  0.00     0.039 A 
HETATM   12  C   UNL     1      20.674  48.371  47.284  1.00  0.00     0.049 A 
HETATM   13  C   UNL     1      19.419  48.835  46.852  1.00  0.00     0.030 A 
HETATM   14  C   UNL     1      18.996  50.140  47.106  1.00  0.00     0.002 A 
HETATM   15  C   UNL     1      19.822  51.012  47.795  1.00  0.00     0.001 A 
HETATM   16  C   UNL     1      21.069  50.570  48.234  1.00  0.00     0.018 A 
BRANCH  12  17
HETATM   17  N   UNL     1      21.104  47.054  46.982  1.00  0.00    -0.321 N 
HETATM   18  C   UNL     1      20.678  45.853  47.519  1.00  0.00     0.274 C 
HETATM   19  O   UNL     1      19.871  45.692  48.427  1.00  0.00    -0.266 OA
HETATM   20  H   UNL     1      21.845  46.970  46.281  1.00  0.00     0.169 HD
BRANCH  18  21
HETATM   21  C   UNL     1      21.309  44.649  46.881  1.00  0.00     0.124 A 
HETATM   22  C   UNL     1      22.612  44.726  46.402  1.00  0.00     0.037 A 
HETATM   23  C   UNL     1      23.181  43.586  45.842  1.00  0.00     0.004 A 
HETATM   24  C   UNL     1      22.436  42.412  45.788  1.00  0.00     0.019 A 
HETATM   25  C   UNL     1      21.144  42.426  46.291  1.00  0.00     0.117 A 
HETATM   26  N   UNL     1      20.555  43.515  46.830  1.00  0.00    -0.256 NA
ENDBRANCH  18  21
ENDBRANCH  12  17
ENDBRANCH   1  11
BRANCH   3  27
HETATM   27  N   UNL     1      24.255  46.238  50.564  1.00  0.00    -0.340 N 
HETATM   28  H   UNL     1      23.722  46.404  51.411  1.00  0.00     0.167 HD
BRANCH  27  29
HETATM   29  C   UNL     1      24.191  44.884  50.156  1.00  0.00     0.034 A 
HETATM   30  C   UNL     1      22.983  44.173  50.134  1.00  0.00     0.032 A 
HETATM   31  C   UNL     1      22.897  42.850  49.681  1.00  0.00     0.034 A 
HETATM   32  C   UNL     1      24.077  42.262  49.224  1.00  0.00     0.062 A 
HETATM   33  N   UNL     1      24.344  41.015  48.725  1.00  0.00    -0.278 N 
HETATM   34  C   UNL     1      25.292  42.936  49.196  1.00  0.00     0.013 A 
HETATM   35  H   UNL     1      23.692  40.249  48.597  1.00  0.00     0.189 HD
HETATM   36  N   UNL     1      25.629  40.826  48.374  1.00  0.00    -0.186 NA
HETATM   37  C   UNL     1      26.203  41.997  48.662  1.00  0.00     0.152 A 
HETATM   38  C   UNL     1      25.352  44.267  49.652  1.00  0.00     0.044 A 
ENDBRANCH  27  29
ENDBRANCH   3  27
TORSDOF 5
ENDMDL
MODEL 4
REMARK VINA RESULT:     -10.3      2.307      8.261
REMARK  5 active torsions:
REMARK  status: ('A' for Active; 'I' for Inactive)
REMARK       I    between atoms: C_2  and  N_3 
REMARK    1  A    between atoms: C_2  and  C_31 
REMARK    2  A    between atoms: N_3  and  C_4 
REMARK    3  A    between atoms: C_9  and  C_10 
REMARK    4  A    between atoms: C_12  and  N_13 
REMARK    5  A    between atoms: N_13  and  C_14 
ROOT
HETATM    1  C   UNL     1      25.828  44.228  50.960  1.00  0.00     0.164 A 
HETATM    2  N   UNL     1      26.673  43.325  50.439  1.00  0.00    -0.210 NA
HETATM    3  C   UNL     1      26.258  42.595  49.388  1.00  0.00     0.143 A 
HETATM    4  C   UNL     1      24.969  42.735  48.850  1.00  0.00     0.039 A 
HETATM    5  C   UNL     1      24.445  41.977  47.770  1.00  0.00     0.018 A 
HETATM    6  C   UNL     1      23.143  42.181  47.319  1.00  0.00     0.001 A 
HETATM    7  C   UNL     1      22.350  43.134  47.942  1.00  0.00     0.002 A 
HETATM    8  C   UNL     1      22.867  43.874  49.009  1.00  0.00     0.032 A 
HETATM    9  C   UNL     1      24.164  43.694  49.473  1.00  0.00     0.073 A 
HETATM   10  N   UNL     1      24.585  44.440  50.499  1.00  0.00    -0.228 NA
ENDROOT
BRANCH   1  11
HETATM   11  C   UNL     1      26.301  45.016  52.125  1.00  0.00     0.039 A 
HETATM   12  C   UNL     1      26.013  46.394  52.330  1.00  0.00     0.049 A 
HETATM   13  C   UNL     1      26.503  47.037  53.481  1.00  0.00     0.030 A 
HETATM   14  C   UNL     1      27.271  46.356  54.427  1.00  0.00     0.002 A 
HETATM   15  C   UNL     1      27.570  45.017  54.239  1.00  0.00     0.001 A 
HETATM   16  C   UNL     1      27.092  44.362  53.106  1.00  0.00     0.018 A 
BRANCH  12  17
HETATM   17  N   UNL     1      25.268  47.111  51.361  1.00  0.00    -0.321 N 
HETATM   18  C   UNL     1      25.715  47.784  50.239  1.00  0.00     0.274 C 
HETATM   19  O   UNL     1      26.878  47.950  49.889  1.00  0.00    -0.266 OA
HETATM   20  H   UNL     1      24.256  47.156  51.511  1.00  0.00     0.169 HD
BRANCH  18  21
HETATM   21  C   UNL     1      24.610  48.354  49.397  1.00  0.00     0.124 A 
HETATM   22  C   UNL     1      23.451  47.615  49.188  1.00  0.00     0.037 A 
HETATM   23  C   UNL     1      22.433  48.182  48.427  1.00  0.00     0.004 A 
HETATM   24  C   UNL     1      22.602  49.461  47.909  1.00  0.00     0.019 A 
HETATM   25  C   UNL     1      23.791  50.126  48.168  1.00  0.00     0.117 A 
HETATM   26  N   UNL     1      24.806  49.605  48.892  1.00  0.00    -0.256 NA
ENDBRANCH  18  21
ENDBRANCH  12  17
ENDBRANCH   1  11
BRANCH   3  27
HETATM   27  N   UNL     1      27.159  41.668  48.795  1.00  0.00    -0.340 N 
HETATM   28  H   UNL     1      28.001  42.165  48.525  1.00  0.00     0.167 HD
BRANCH  27  29
HETATM   29  C   UNL     1      27.439  40.350  49.227  1.00  0.00     0.034 A 
HETATM   30  C   UNL     1      26.591  39.276  48.922  1.00  0.00     0.032 A 
HETATM   31  C   UNL     1      26.884  37.957  49.296  1.00  0.00     0.034 A 
HETATM   32  C   UNL     1      28.083  37.747  49.978  1.00  0.00     0.062 A 
HETATM   33  N   UNL     1      28.663  36.612  50.479  1.00  0.00    -0.278 N 
HETATM   34  C   UNL     1      28.970  38.774  50.274  1.00  0.00     0.013 A 
HETATM   35  H   UNL     1      28.300  35.667  50.445  1.00  0.00     0.189 HD
HETATM   36  N   UNL     1      29.854  36.818  51.072  1.00  0.00    -0.186 NA
HETATM   37  C   UNL     1      30.037  38.136  50.946  1.00  0.00     0.152 A 
HETATM   38  C   UNL     1      28.657  40.090  49.884  1.00  0.00     0.044 A 
ENDBRANCH  27  29
ENDBRANCH   3  27
TORSDOF 5
ENDMDL
MODEL 5
REMARK VINA RESULT:     -10.2      2.243      5.697
REMARK  5 active torsions:
REMARK  status: ('A' for Active; 'I' for Inactive)
REMARK       I    between atoms: C_2  and  N_3 
REMARK    1  A    between atoms: C_2  and  C_31 
REMARK    2  A    between atoms: N_3  and  C_4 
REMARK    3  A    between atoms: C_9  and  C_10 
REMARK    4  A    between atoms: C_12  and  N_13 
REMARK    5  A    between atoms: N_13  and  C_14 
ROOT
HETATM    1  C   UNL     1      26.559  43.092  51.373  1.00  0.00     0.164 A 
HETATM    2  N   UNL     1      25.667  44.046  51.060  1.00  0.00    -0.210 NA
HETATM    3  C   UNL     1      25.643  45.165  51.806  1.00  0.00     0.143 A 
HETATM    4  C   UNL     1      26.498  45.344  52.904  1.00  0.00     0.039 A 
HETATM    5  C   UNL     1      26.508  46.476  53.761  1.00  0.00     0.018 A 
HETATM    6  C   UNL     1      27.388  46.550  54.838  1.00  0.00     0.001 A 
HETATM    7  C   UNL     1      28.259  45.498  55.076  1.00  0.00     0.002 A 
HETATM    8  C   UNL     1      28.244  44.382  54.236  1.00  0.00     0.032 A 
HETATM    9  C   UNL     1      27.381  44.287  53.151  1.00  0.00     0.073 A 
HETATM   10  N   UNL     1      27.425  43.186  52.394  1.00  0.00    -0.228 NA
ENDROOT
BRANCH   1  11
HETATM   11  C   UNL     1      26.563  41.861  50.544  1.00  0.00     0.039 A 
HETATM   12  C   UNL     1      25.711  41.646  49.425  1.00  0.00     0.049 A 
HETATM   13  C   UNL     1      25.813  40.444  48.702  1.00  0.00     0.030 A 
HETATM   14  C   UNL     1      26.727  39.452  49.060  1.00  0.00     0.002 A 
HETATM   15  C   UNL     1      27.557  39.640  50.151  1.00  0.00     0.001 A 
HETATM   16  C   UNL     1      27.473  40.825  50.880  1.00  0.00     0.018 A 
BRANCH  12  17
HETATM   17  N   UNL     1      24.749  42.626  49.072  1.00  0.00    -0.321 N 
HETATM   18  C   UNL     1      23.396  42.473  48.833  1.00  0.00     0.274 C 
HETATM   19  O   UNL     1      22.759  41.426  48.819  1.00  0.00    -0.266 OA
HETATM   20  H   UNL     1      25.098  43.582  48.960  1.00  0.00     0.169 HD
BRANCH  18  21
HETATM   21  C   UNL     1      22.680  43.767  48.568  1.00  0.00     0.124 A 
HETATM   22  C   UNL     1      23.106  44.589  47.531  1.00  0.00     0.037 A 
HETATM   23  C   UNL     1      22.405  45.768  47.290  1.00  0.00     0.004 A 
HETATM   24  C   UNL     1      21.305  46.078  48.082  1.00  0.00     0.019 A 
HETATM   25  C   UNL     1      20.951  45.199  49.093  1.00  0.00     0.117 A 
HETATM   26  N   UNL     1      21.613  44.053  49.365  1.00  0.00    -0.256 NA
ENDBRANCH  18  21
ENDBRANCH  12  17
ENDBRANCH   1  11
BRANCH   3  27
HETATM   27  N   UNL     1      24.737  46.205  51.458  1.00  0.00    -0.340 N 
HETATM   28  H   UNL     1      24.274  46.526  52.302  1.00  0.00     0.167 HD
BRANCH  27  29
HETATM   29  C   UNL     1      24.957  47.261  50.542  1.00  0.00     0.034 A 
HETATM   30  C   UNL     1      26.249  47.686  50.200  1.00  0.00     0.032 A 
HETATM   31  C   UNL     1      26.482  48.693  49.254  1.00  0.00     0.034 A 
HETATM   32  C   UNL     1      25.361  49.252  48.638  1.00  0.00     0.062 A 
HETATM   33  N   UNL     1      25.233  50.233  47.691  1.00  0.00    -0.278 N 
HETATM   34  C   UNL     1      24.065  48.841  48.919  1.00  0.00     0.013 A 
HETATM   35  H   UNL     1      25.974  50.763  47.247  1.00  0.00     0.189 HD
HETATM   36  N   UNL     1      23.961  50.489  47.333  1.00  0.00    -0.186 NA
HETATM   37  C   UNL     1      23.253  49.640  48.084  1.00  0.00     0.152 A 
HETATM   38  C   UNL     1      23.855  47.824  49.870  1.00  0.00     0.044 A 
ENDBRANCH  27  29
ENDBRANCH   3  27
TORSDOF 5
ENDMDL
MODEL 6
REMARK VINA RESULT:     -10.1      4.059      8.921
REMARK  5 active torsions:
REMARK  status: ('A' for Active; 'I' for Inactive)
REMARK       I    between atoms: C_2  and  N_3 
REMARK    1  A    between atoms: C_2  and  C_31 
REMARK    2  A    between atoms: N_3  and  C_4 
REMARK    3  A    between atoms: C_9  and  C_10 
REMARK    4  A    between atoms: C_12  and  N_13 
REMARK    5  A    between atoms: N_13  and  C_14 
ROOT
HETATM    1  C   UNL     1      20.740  47.545  48.204  1.00  0.00     0.164 A 
HETATM    2  N   UNL     1      21.252  46.604  49.014  1.00  0.00    -0.210 NA
HETATM    3  C   UNL     1      21.593  45.418  48.477  1.00  0.00     0.143 A 
HETATM    4  C   UNL     1      21.403  45.138  47.115  1.00  0.00     0.039 A 
HETATM    5  C   UNL     1      21.701  43.903  46.483  1.00  0.00     0.018 A 
HETATM    6  C   UNL     1      21.460  43.718  45.123  1.00  0.00     0.001 A 
HETATM    7  C   UNL     1      20.914  44.757  44.384  1.00  0.00     0.002 A 
HETATM    8  C   UNL     1      20.616  45.971  45.010  1.00  0.00     0.032 A 
HETATM    9  C   UNL     1      20.854  46.182  46.362  1.00  0.00     0.073 A 
HETATM   10  N   UNL     1      20.540  47.370  46.888  1.00  0.00    -0.228 NA
ENDROOT
BRANCH   1  11
HETATM   11  C   UNL     1      20.361  48.842  48.817  1.00  0.00     0.039 A 
HETATM   12  C   UNL     1      21.290  49.776  49.355  1.00  0.00     0.049 A 
HETATM   13  C   UNL     1      20.817  50.984  49.898  1.00  0.00     0.030 A 
HETATM   14  C   UNL     1      19.455  51.287  49.929  1.00  0.00     0.002 A 
HETATM   15  C   UNL     1      18.536  50.386  49.420  1.00  0.00     0.001 A 
HETATM   16  C   UNL     1      18.985  49.185  48.875  1.00  0.00     0.018 A 
BRANCH  12  17
HETATM   17  N   UNL     1      22.674  49.467  49.368  1.00  0.00    -0.321 N 
HETATM   18  C   UNL     1      23.618  49.654  48.376  1.00  0.00     0.274 C 
HETATM   19  O   UNL     1      23.428  50.076  47.241  1.00  0.00    -0.266 OA
HETATM   20  H   UNL     1      23.031  49.030  50.222  1.00  0.00     0.169 HD
BRANCH  18  21
HETATM   21  C   UNL     1      25.012  49.281  48.792  1.00  0.00     0.124 A 
HETATM   22  C   UNL     1      25.214  48.181  49.618  1.00  0.00     0.037 A 
HETATM   23  C   UNL     1      26.519  47.842  49.962  1.00  0.00     0.004 A 
HETATM   24  C   UNL     1      27.573  48.604  49.468  1.00  0.00     0.019 A 
HETATM   25  C   UNL     1      27.279  49.683  48.649  1.00  0.00     0.117 A 
HETATM   26  N   UNL     1      26.026  50.050  48.303  1.00  0.00    -0.256 NA
ENDBRANCH  18  21
ENDBRANCH  12  17
ENDBRANCH   1  11
BRANCH   3  27
HETATM   27  N   UNL     1      22.180  44.428  49.312  1.00  0.00    -0.340 N 
HETATM   28  H   UNL     1      21.830  43.519  49.030  1.00  0.00     0.167 HD
BRANCH  27  29
HETATM   29  C   UNL     1      23.526  44.365  49.748  1.00  0.00     0.034 A 
HETATM   30  C   UNL     1      24.589  44.217  48.847  1.00  0.00     0.032 A 
HETATM   31  C   UNL     1      25.929  44.208  49.259  1.00  0.00     0.034 A 
HETATM   32  C   UNL     1      26.169  44.376  50.624  1.00  0.00     0.062 A 
HETATM   33  N   UNL     1      27.330  44.416  51.349  1.00  0.00    -0.278 N 
HETATM   34  C   UNL     1      25.150  44.558  51.551  1.00  0.00     0.013 A 
HETATM   35  H   UNL     1      28.277  44.318  51.003  1.00  0.00     0.189 HD
HETATM   36  N   UNL     1      27.148  44.611  52.668  1.00  0.00    -0.186 NA
HETATM   37  C   UNL     1      25.820  44.697  52.787  1.00  0.00     0.152 A 
HETATM   38  C   UNL     1      23.813  44.569  51.112  1.00  0.00     0.044 A 
ENDBRANCH  27  29
ENDBRANCH   3  27
TORSDOF 5
ENDMDL
MODEL 7
REMARK VINA RESULT:     -10.0      3.866      7.423
REMARK  5 active torsions:
REMARK  status: ('A' for Active; 'I' for Inactive)
REMARK       I    between atoms: C_2  and  N_3 
REMARK    1  A    between atoms: C_2  and  C_31 
REMARK    2  A    between atoms: N_3  and  C_4 
REMARK    3  A    between atoms: C_9  and  C_10 
REMARK    4  A    between atoms: C_12  and  N_13 
REMARK    5  A    between atoms: N_13  and  C_14 
ROOT
HETATM    1  C   UNL     1      21.165  45.251  47.214  1.00  0.00     0.164 A 
HETATM    2  N   UNL     1      21.926  46.130  47.885  1.00  0.00    -0.210 NA
HETATM    3  C   UNL     1      21.313  47.054  48.646  1.00  0.00     0.143 A 
HETATM    4  C   UNL     1      19.914  47.135  48.733  1.00  0.00     0.039 A 
HETATM    5  C   UNL     1      19.193  48.101  49.482  1.00  0.00     0.018 A 
HETATM    6  C   UNL     1      17.800  48.107  49.489  1.00  0.00     0.001 A 
HETATM    7  C   UNL     1      17.114  47.158  48.746  1.00  0.00     0.002 A 
HETATM    8  C   UNL     1      17.826  46.211  48.005  1.00  0.00     0.032 A 
HETATM    9  C   UNL     1      19.215  46.180  47.987  1.00  0.00     0.073 A 
HETATM   10  N   UNL     1      19.823  45.244  47.251  1.00  0.00    -0.228 NA
ENDROOT
BRANCH   1  11
HETATM   11  C   UNL     1      21.860  44.247  46.372  1.00  0.00     0.039 A 
HETATM   12  C   UNL     1      23.104  43.641  46.708  1.00  0.00     0.049 A 
HETATM   13  C   UNL     1      23.663  42.688  45.839  1.00  0.00     0.030 A 
HETATM   14  C   UNL     1      23.032  42.324  44.649  1.00  0.00     0.002 A 
HETATM   15  C   UNL     1      21.827  42.910  44.300  1.00  0.00     0.001 A 
HETATM   16  C   UNL     1      21.254  43.856  45.149  1.00  0.00     0.018 A 
BRANCH  12  17
HETATM   17  N   UNL     1      23.778  44.028  47.893  1.00  0.00    -0.321 N 
HETATM   18  C   UNL     1      23.883  43.355  49.096  1.00  0.00     0.274 C 
HETATM   19  O   UNL     1      23.347  42.296  49.402  1.00  0.00    -0.266 OA
HETATM   20  H   UNL     1      24.244  44.939  47.871  1.00  0.00     0.169 HD
BRANCH  18  21
HETATM   21  C   UNL     1      24.760  44.045  50.100  1.00  0.00     0.124 A 
HETATM   22  C   UNL     1      26.108  44.241  49.818  1.00  0.00     0.037 A 
HETATM   23  C   UNL     1      26.890  44.910  50.756  1.00  0.00     0.004 A 
HETATM   24  C   UNL     1      26.302  45.364  51.932  1.00  0.00     0.019 A 
HETATM   25  C   UNL     1      24.950  45.126  52.128  1.00  0.00     0.117 A 
HETATM   26  N   UNL     1      24.163  44.471  51.248  1.00  0.00    -0.256 NA
ENDBRANCH  18  21
ENDBRANCH  12  17
ENDBRANCH   1  11
BRANCH   3  27
HETATM   27  N   UNL     1      22.107  47.961  49.401  1.00  0.00    -0.340 N 
HETATM   28  H   UNL     1      22.112  47.658  50.368  1.00  0.00     0.167 HD
BRANCH  27  29
HETATM   29  C   UNL     1      23.343  48.537  49.021  1.00  0.00     0.034 A 
HETATM   30  C   UNL     1      23.408  49.670  48.197  1.00  0.00     0.032 A 
HETATM   31  C   UNL     1      24.623  50.283  47.858  1.00  0.00     0.034 A 
HETATM   32  C   UNL     1      25.783  49.725  48.398  1.00  0.00     0.062 A 
HETATM   33  N   UNL     1      27.103  50.066  48.274  1.00  0.00    -0.278 N 
HETATM   34  C   UNL     1      25.765  48.624  49.244  1.00  0.00     0.013 A 
HETATM   35  H   UNL     1      27.497  50.826  47.731  1.00  0.00     0.189 HD
HETATM   36  N   UNL     1      27.942  49.279  48.972  1.00  0.00    -0.186 NA
HETATM   37  C   UNL     1      27.124  48.401  49.561  1.00  0.00     0.152 A 
HETATM   38  C   UNL     1      24.533  48.028  49.574  1.00  0.00     0.044 A 
ENDBRANCH  27  29
ENDBRANCH   3  27
TORSDOF 5
ENDMDL
MODEL 8
REMARK VINA RESULT:      -9.9      2.968      7.512
REMARK  5 active torsions:
REMARK  status: ('A' for Active; 'I' for Inactive)
REMARK       I    between atoms: C_2  and  N_3 
REMARK    1  A    between atoms: C_2  and  C_31 
REMARK    2  A    between atoms: N_3  and  C_4 
REMARK    3  A    between atoms: C_9  and  C_10 
REMARK    4  A    between atoms: C_12  and  N_13 
REMARK    5  A    between atoms: N_13  and  C_14 
ROOT
HETATM    1  C   UNL     1      26.982  42.572  49.806  1.00  0.00     0.164 A 
HETATM    2  N   UNL     1      27.104  42.368  51.128  1.00  0.00    -0.210 NA
HETATM    3  C   UNL     1      26.863  43.399  51.957  1.00  0.00     0.143 A 
HETATM    4  C   UNL     1      26.519  44.672  51.477  1.00  0.00     0.039 A 
HETATM    5  C   UNL     1      26.287  45.817  52.284  1.00  0.00     0.018 A 
HETATM    6  C   UNL     1      25.967  47.045  51.708  1.00  0.00     0.001 A 
HETATM    7  C   UNL     1      25.881  47.145  50.327  1.00  0.00     0.002 A 
HETATM    8  C   UNL     1      26.115  46.017  49.535  1.00  0.00     0.032 A 
HETATM    9  C   UNL     1      26.430  44.781  50.086  1.00  0.00     0.073 A 
HETATM   10  N   UNL     1      26.642  43.750  49.261  1.00  0.00    -0.228 NA
ENDROOT
BRANCH   1  11
HETATM   11  C   UNL     1      27.262  41.424  48.908  1.00  0.00     0.039 A 
HETATM   12  C   UNL     1      26.525  41.134  47.726  1.00  0.00     0.049 A 
HETATM   13  C   UNL     1      26.890  40.026  46.941  1.00  0.00     0.030 A 
HETATM   14  C   UNL     1      27.956  39.198  47.297  1.00  0.00     0.002 A 
HETATM   15  C   UNL     1      28.678  39.459  48.449  1.00  0.00     0.001 A 
HETATM   16  C   UNL     1      28.333  40.554  49.239  1.00  0.00     0.018 A 
BRANCH  12  17
HETATM   17  N   UNL     1      25.415  41.941  47.371  1.00  0.00    -0.321 N 
HETATM   18  C   UNL     1      24.070  41.727  47.608  1.00  0.00     0.274 C 
HETATM   19  O   UNL     1      23.556  40.744  48.129  1.00  0.00    -0.266 OA
HETATM   20  H   UNL     1      25.627  42.797  46.851  1.00  0.00     0.169 HD
BRANCH  18  21
HETATM   21  C   UNL     1      23.190  42.857  47.155  1.00  0.00     0.124 A 
HETATM   22  C   UNL     1      23.350  44.121  47.712  1.00  0.00     0.037 A 
HETATM   23  C   UNL     1      22.540  45.155  47.251  1.00  0.00     0.004 A 
HETATM   24  C   UNL     1      21.608  44.894  46.251  1.00  0.00     0.019 A 
HETATM   25  C   UNL     1      21.518  43.604  45.753  1.00  0.00     0.117 A 
HETATM   26  N   UNL     1      22.279  42.573  46.183  1.00  0.00    -0.256 NA
ENDBRANCH  18  21
ENDBRANCH  12  17
ENDBRANCH   1  11
BRANCH   3  27
HETATM   27  N   UNL     1      26.941  43.186  53.361  1.00  0.00    -0.340 N 
HETATM   28  H   UNL     1      26.568  42.265  53.569  1.00  0.00     0.167 HD
BRANCH  27  29
HETATM   29  C   UNL     1      28.012  43.529  54.221  1.00  0.00     0.034 A 
HETATM   30  C   UNL     1      29.240  42.854  54.178  1.00  0.00     0.032 A 
HETATM   31  C   UNL     1      30.327  43.219  54.985  1.00  0.00     0.034 A 
HETATM   32  C   UNL     1      30.143  44.313  55.832  1.00  0.00     0.062 A 
HETATM   33  N   UNL     1      30.977  44.921  56.733  1.00  0.00    -0.278 N 
HETATM   34  C   UNL     1      28.956  45.032  55.886  1.00  0.00     0.013 A 
HETATM   35  H   UNL     1      31.931  44.666  56.961  1.00  0.00     0.189 HD
HETATM   36  N   UNL     1      30.430  45.977  57.363  1.00  0.00    -0.186 NA
HETATM   37  C   UNL     1      29.199  46.041  56.845  1.00  0.00     0.152 A 
HETATM   38  C   UNL     1      27.880  44.650  55.063  1.00  0.00     0.044 A 
ENDBRANCH  27  29
ENDBRANCH   3  27
TORSDOF 5
ENDMDL
MODEL 9
REMARK VINA RESULT:      -9.7      3.845      8.604
REMARK  5 active torsions:
REMARK  status: ('A' for Active; 'I' for Inactive)
REMARK       I    between atoms: C_2  and  N_3 
REMARK    1  A    between atoms: C_2  and  C_31 
REMARK    2  A    between atoms: N_3  and  C_4 
REMARK    3  A    between atoms: C_9  and  C_10 
REMARK    4  A    between atoms: C_12  and  N_13 
REMARK    5  A    between atoms: N_13  and  C_14 
ROOT
HETATM    1  C   UNL     1      22.853  48.420  48.939  1.00  0.00     0.164 A 
HETATM    2  N   UNL     1      23.236  47.335  49.630  1.00  0.00    -0.210 NA
HETATM    3  C   UNL     1      24.543  47.185  49.910  1.00  0.00     0.143 A 
HETATM    4  C   UNL     1      25.505  48.112  49.477  1.00  0.00     0.039 A 
HETATM    5  C   UNL     1      26.903  48.005  49.698  1.00  0.00     0.018 A 
HETATM    6  C   UNL     1      27.780  48.972  49.211  1.00  0.00     0.001 A 
HETATM    7  C   UNL     1      27.275  50.048  48.496  1.00  0.00     0.002 A 
HETATM    8  C   UNL     1      25.898  50.147  48.275  1.00  0.00     0.032 A 
HETATM    9  C   UNL     1      25.003  49.200  48.755  1.00  0.00     0.073 A 
HETATM   10  N   UNL     1      23.701  49.364  48.501  1.00  0.00    -0.228 NA
ENDROOT
BRANCH   1  11
HETATM   11  C   UNL     1      21.408  48.562  48.633  1.00  0.00     0.039 A 
HETATM   12  C   UNL     1      20.611  47.544  48.038  1.00  0.00     0.049 A 
HETATM   13  C   UNL     1      19.246  47.784  47.807  1.00  0.00     0.030 A 
HETATM   14  C   UNL     1      18.651  49.001  48.142  1.00  0.00     0.002 A 
HETATM   15  C   UNL     1      19.412  50.007  48.712  1.00  0.00     0.001 A 
HETATM   16  C   UNL     1      20.768  49.788  48.952  1.00  0.00     0.018 A 
BRANCH  12  17
HETATM   17  N   UNL     1      21.207  46.315  47.655  1.00  0.00    -0.321 N 
HETATM   18  C   UNL     1      20.836  45.026  47.985  1.00  0.00     0.274 C 
HETATM   19  O   UNL     1      19.934  44.684  48.743  1.00  0.00    -0.266 OA
HETATM   20  H   UNL     1      22.040  46.383  47.063  1.00  0.00     0.169 HD
BRANCH  18  21
HETATM   21  C   UNL     1      21.663  43.968  47.313  1.00  0.00     0.124 A 
HETATM   22  C   UNL     1      21.954  44.078  45.958  1.00  0.00     0.037 A 
HETATM   23  C   UNL     1      22.748  43.098  45.369  1.00  0.00     0.004 A 
HETATM   24  C   UNL     1      23.227  42.052  46.150  1.00  0.00     0.019 A 
HETATM   25  C   UNL     1      22.889  42.023  47.494  1.00  0.00     0.117 A 
HETATM   26  N   UNL     1      22.112  42.948  48.098  1.00  0.00    -0.256 NA
ENDBRANCH  18  21
ENDBRANCH  12  17
ENDBRANCH   1  11
BRANCH   3  27
HETATM   27  N   UNL     1      24.958  46.066  50.682  1.00  0.00    -0.340 N 
HETATM   28  H   UNL     1      25.277  45.338  50.051  1.00  0.00     0.167 HD
BRANCH  27  29
HETATM   29  C   UNL     1      25.704  46.085  51.886  1.00  0.00     0.034 A 
HETATM   30  C   UNL     1      25.440  47.013  52.904  1.00  0.00     0.032 A 
HETATM   31  C   UNL     1      26.133  47.008  54.122  1.00  0.00     0.034 A 
HETATM   32  C   UNL     1      27.099  46.015  54.294  1.00  0.00     0.062 A 
HETATM   33  N   UNL     1      27.940  45.730  55.337  1.00  0.00    -0.278 N 
HETATM   34  C   UNL     1      27.372  45.056  53.328  1.00  0.00     0.013 A 
HETATM   35  H   UNL     1      28.019  46.222  56.219  1.00  0.00     0.189 HD
HETATM   36  N   UNL     1      28.733  44.663  55.127  1.00  0.00    -0.186 NA
HETATM   37  C   UNL     1      28.385  44.256  53.903  1.00  0.00     0.152 A 
HETATM   38  C   UNL     1      26.659  45.077  52.114  1.00  0.00     0.044 A 
ENDBRANCH  27  29
ENDBRANCH   3  27
TORSDOF 5
ENDMDL
MODEL 10
REMARK VINA RESULT:      -9.6      6.699     11.954
REMARK  5 active torsions:
REMARK  status: ('A' for Active; 'I' for Inactive)
REMARK       I    between atoms: C_2  and  N_3 
REMARK    1  A    between atoms: C_2  and  C_31 
REMARK    2  A    between atoms: N_3  and  C_4 
REMARK    3  A    between atoms: C_9  and  C_10 
REMARK    4  A    between atoms: C_12  and  N_13 
REMARK    5  A    between atoms: N_13  and  C_14 
ROOT
HETATM    1  C   UNL     1      18.811  49.715  48.087  1.00  0.00     0.164 A 
HETATM    2  N   UNL     1      19.896  49.485  48.844  1.00  0.00    -0.210 NA
HETATM    3  C   UNL     1      20.761  48.535  48.446  1.00  0.00     0.143 A 
HETATM    4  C   UNL     1      20.545  47.771  47.288  1.00  0.00     0.039 A 
HETATM    5  C   UNL     1      21.388  46.728  46.824  1.00  0.00     0.018 A 
HETATM    6  C   UNL     1      21.075  46.017  45.668  1.00  0.00     0.001 A 
HETATM    7  C   UNL     1      19.919  46.331  44.969  1.00  0.00     0.002 A 
HETATM    8  C   UNL     1      19.087  47.354  45.432  1.00  0.00     0.032 A 
HETATM    9  C   UNL     1      19.380  48.083  46.578  1.00  0.00     0.073 A 
HETATM   10  N   UNL     1      18.534  49.045  46.957  1.00  0.00    -0.228 NA
ENDROOT
BRANCH   1  11
HETATM   11  C   UNL     1      17.864  50.760  48.548  1.00  0.00     0.039 A 
HETATM   12  C   UNL     1      16.509  50.856  48.126  1.00  0.00     0.049 A 
HETATM   13  C   UNL     1      15.697  51.881  48.642  1.00  0.00     0.030 A 
HETATM   14  C   UNL     1      16.190  52.813  49.556  1.00  0.00     0.002 A 
HETATM   15  C   UNL     1      17.509  52.742  49.971  1.00  0.00     0.001 A 
HETATM   16  C   UNL     1      18.329  51.731  49.473  1.00  0.00     0.018 A 
BRANCH  12  17
HETATM   17  N   UNL     1      16.002  49.942  47.167  1.00  0.00    -0.321 N 
HETATM   18  C   UNL     1      15.401  48.714  47.367  1.00  0.00     0.274 C 
HETATM   19  O   UNL     1      15.240  48.132  48.433  1.00  0.00    -0.266 OA
HETATM   20  H   UNL     1      16.106  50.214  46.185  1.00  0.00     0.169 HD
BRANCH  18  21
HETATM   21  C   UNL     1      14.912  48.069  46.102  1.00  0.00     0.124 A 
HETATM   22  C   UNL     1      13.642  48.370  45.622  1.00  0.00     0.037 A 
HETATM   23  C   UNL     1      13.227  47.778  44.431  1.00  0.00     0.004 A 
HETATM   24  C   UNL     1      14.091  46.918  43.763  1.00  0.00     0.019 A 
HETATM   25  C   UNL     1      15.340  46.677  44.314  1.00  0.00     0.117 A 
HETATM   26  N   UNL     1      15.773  47.222  45.472  1.00  0.00    -0.256 NA
ENDBRANCH  18  21
ENDBRANCH  12  17
ENDBRANCH   1  11
BRANCH   3  27
HETATM   27  N   UNL     1      21.939  48.312  49.212  1.00  0.00    -0.340 N 
HETATM   28  H   UNL     1      21.931  47.354  49.544  1.00  0.00     0.167 HD
BRANCH  27  29
HETATM   29  C   UNL     1      23.249  48.758  48.915  1.00  0.00     0.034 A 
HETATM   30  C   UNL     1      23.483  49.886  48.115  1.00  0.00     0.032 A 
HETATM   31  C   UNL     1      24.773  50.370  47.859  1.00  0.00     0.034 A 
HETATM   32  C   UNL     1      25.833  49.689  48.458  1.00  0.00     0.062 A 
HETATM   33  N   UNL     1      27.188  49.889  48.419  1.00  0.00    -0.278 N 
HETATM   34  C   UNL     1      25.649  48.587  49.284  1.00  0.00     0.013 A 
HETATM   35  H   UNL     1      27.691  50.609  47.913  1.00  0.00     0.189 HD
HETATM   36  N   UNL     1      27.895  49.011  49.154  1.00  0.00    -0.186 NA
HETATM   37  C   UNL     1      26.955  48.220  49.678  1.00  0.00     0.152 A 
HETATM   38  C   UNL     1      24.344  48.122  49.531  1.00  0.00     0.044 A 
ENDBRANCH  27  29
ENDBRANCH   3  27
TORSDOF 5
ENDMDL
