MODEL 1
REMARK VINA RESULT:     -10.5      0.000      0.000
REMARK  9 active torsions:
REMARK  status: ('A' for Active; 'I' for Inactive)
REMARK    1  A    between atoms: C_2  and  O_3 
REMARK    2  A    between atoms: O_3  and  C_4 
REMARK    3  A    between atoms: C_4  and  C_5 
REMARK    4  A    between atoms: C_8  and  N_9 
REMARK       I    between atoms: N_9  and  C_10 
REMARK    5  A    between atoms: C_10  and  C_11 
REMARK    6  A    between atoms: C_13  and  N_14 
REMARK    7  A    between atoms: N_17  and  C_19 
REMARK    8  A    between atoms: C_19  and  C_20 
REMARK    9  A    between atoms: C_19  and  C_26 
ROOT
HETATM    1  C   UNL     1      23.466  50.091  49.177  1.00  0.00     0.164 C 
HETATM    2  N   UNL     1      23.682  48.917  50.042  1.00  0.00    -0.249 NA
HETATM    3  C   UNL     1      24.701  48.055  49.801  1.00  0.00     0.181 C 
HETATM    4  N   UNL     1      25.701  48.302  49.021  1.00  0.00    -0.185 NA
HETATM    5  C   UNL     1      25.676  49.518  48.382  1.00  0.00     0.247 C 
HETATM    6  O   UNL     1      26.690  50.155  48.124  1.00  0.00    -0.271 OA
HETATM    7  C   UNL     1      24.323  49.999  47.936  1.00  0.00     0.134 C 
HETATM    8  H   UNL     1      22.785  48.438  50.178  1.00  0.00     0.131 HD
ENDROOT
BRANCH   3   9
HETATM    9  N   UNL     1      24.555  46.850  50.453  1.00  0.00    -0.353 N 
HETATM   10  C   UNL     1      25.185  46.596  51.765  1.00  0.00     0.153 C 
HETATM   11  C   UNL     1      26.507  45.824  51.580  1.00  0.00     0.256 C 
HETATM   12  N   UNL     1      26.217  44.514  50.846  1.00  0.00    -0.056 N 
HETATM   13  H   UNL     1      25.455  44.041  51.336  1.00  0.00     0.281 HD
HETATM   14  C   UNL     1      25.643  44.843  49.460  1.00  0.00     0.256 C 
HETATM   15  C   UNL     1      24.329  45.630  49.647  1.00  0.00     0.153 C 
BRANCH  12  16
HETATM   16  C   UNL     1      27.353  43.497  50.836  1.00  0.00     0.254 C 
BRANCH  16  17
HETATM   17  C   UNL     1      28.038  43.368  52.193  1.00  0.00    -0.023 A 
HETATM   18  C   UNL     1      27.336  43.532  53.400  1.00  0.00     0.009 A 
HETATM   19  C   UNL     1      27.989  43.412  54.627  1.00  0.00     0.001 A 
HETATM   20  C   UNL     1      29.351  43.124  54.669  1.00  0.00     0.000 A 
HETATM   21  C   UNL     1      30.063  42.954  53.484  1.00  0.00     0.001 A 
HETATM   22  C   UNL     1      29.414  43.073  52.255  1.00  0.00     0.009 A 
ENDBRANCH  16  17
BRANCH  16  23
HETATM   23  C   UNL     1      27.011  42.157  50.157  1.00  0.00    -0.023 A 
HETATM   24  C   UNL     1      26.495  41.041  50.846  1.00  0.00     0.009 A 
HETATM   25  C   UNL     1      26.173  39.857  50.172  1.00  0.00     0.001 A 
HETATM   26  C   UNL     1      26.340  39.767  48.795  1.00  0.00     0.000 A 
HETATM   27  C   UNL     1      26.818  40.862  48.086  1.00  0.00     0.001 A 
HETATM   28  C   UNL     1      27.138  42.046  48.757  1.00  0.00     0.009 A 
ENDBRANCH  16  23
ENDBRANCH  12  16
ENDBRANCH   3   9
BRANCH   1  29
HETATM   29  C   UNL     1      21.960  50.118  48.833  1.00  0.00     0.240 C 
HETATM   30  N   UNL     1      21.275  51.239  49.261  1.00  0.00    -0.326 N 
HETATM   31  H   UNL     1      21.799  51.975  49.719  1.00  0.00     0.169 HD
HETATM   32  O   UNL     1      21.474  49.149  48.243  1.00  0.00    -0.271 OA
BRANCH  30  33
HETATM   33  C   UNL     1      19.883  51.468  49.147  1.00  0.00     0.034 A 
HETATM   34  C   UNL     1      18.941  51.030  50.082  1.00  0.00     0.030 A 
HETATM   35  C   UNL     1      17.581  51.316  49.915  1.00  0.00     0.020 A 
HETATM   36  C   UNL     1      17.136  52.044  48.808  1.00  0.00     0.039 A 
HETATM   37  C   UNL     1      18.072  52.479  47.864  1.00  0.00     0.020 A 
HETATM   38  C   UNL     1      19.434  52.193  48.035  1.00  0.00     0.030 A 
BRANCH  36  39
HETATM   39  C   UNL     1      15.679  52.327  48.702  1.00  0.00     0.293 C 
HETATM   40  O   UNL     1      15.153  52.747  47.684  1.00  0.00    -0.259 OA
BRANCH  39  41
HETATM   41  O   UNL     1      15.052  52.053  49.872  1.00  0.00    -0.318 OA
BRANCH  41  42
HETATM   42  C   UNL     1      14.147  53.067  50.339  1.00  0.00     0.174 C 
HETATM   43  C   UNL     1      14.887  54.083  51.187  1.00  0.00     0.034 C 
ENDBRANCH  41  42
ENDBRANCH  39  41
ENDBRANCH  36  39
ENDBRANCH  30  33
ENDBRANCH   1  29
TORSDOF 9
ENDMDL
MODEL 2
REMARK VINA RESULT:     -10.0      3.968     11.019
REMARK  9 active torsions:
REMARK  status: ('A' for Active; 'I' for Inactive)
REMARK    1  A    between atoms: C_2  and  O_3 
REMARK    2  A    between atoms: O_3  and  C_4 
REMARK    3  A    between atoms: C_4  and  C_5 
REMARK    4  A    between atoms: C_8  and  N_9 
REMARK       I    between atoms: N_9  and  C_10 
REMARK    5  A    between atoms: C_10  and  C_11 
REMARK    6  A    between atoms: C_13  and  N_14 
REMARK    7  A    between atoms: N_17  and  C_19 
REMARK    8  A    between atoms: C_19  and  C_20 
REMARK    9  A    between atoms: C_19  and  C_26 
ROOT
HETATM    1  C   UNL     1      23.124  42.683  49.677  1.00  0.00     0.164 C 
HETATM    2  N   UNL     1      22.098  43.611  49.170  1.00  0.00    -0.249 NA
HETATM    3  C   UNL     1      21.632  43.505  47.900  1.00  0.00     0.181 C 
HETATM    4  N   UNL     1      21.808  42.477  47.139  1.00  0.00    -0.185 NA
HETATM    5  C   UNL     1      22.553  41.455  47.675  1.00  0.00     0.247 C 
HETATM    6  O   UNL     1      22.346  40.274  47.419  1.00  0.00    -0.271 OA
HETATM    7  C   UNL     1      23.707  41.869  48.546  1.00  0.00     0.134 C 
HETATM    8  H   UNL     1      22.372  44.570  49.410  1.00  0.00     0.131 HD
ENDROOT
BRANCH   3   9
HETATM    9  N   UNL     1      20.967  44.633  47.473  1.00  0.00    -0.353 N 
HETATM   10  C   UNL     1      21.594  45.601  46.549  1.00  0.00     0.153 C 
HETATM   11  C   UNL     1      22.176  46.790  47.337  1.00  0.00     0.256 C 
HETATM   12  N   UNL     1      21.055  47.446  48.144  1.00  0.00    -0.056 N 
HETATM   13  H   UNL     1      20.278  47.634  47.507  1.00  0.00     0.281 HD
HETATM   14  C   UNL     1      20.500  46.420  49.142  1.00  0.00     0.256 C 
HETATM   15  C   UNL     1      19.932  45.223  48.350  1.00  0.00     0.153 C 
BRANCH  12  16
HETATM   16  C   UNL     1      21.386  48.805  48.751  1.00  0.00     0.254 C 
BRANCH  16  17
HETATM   17  C   UNL     1      22.865  49.159  48.631  1.00  0.00    -0.023 A 
HETATM   18  C   UNL     1      23.318  50.188  47.786  1.00  0.00     0.009 A 
HETATM   19  C   UNL     1      24.678  50.488  47.692  1.00  0.00     0.001 A 
HETATM   20  C   UNL     1      25.605  49.767  48.441  1.00  0.00     0.000 A 
HETATM   21  C   UNL     1      25.176  48.748  49.286  1.00  0.00     0.001 A 
HETATM   22  C   UNL     1      23.817  48.445  49.383  1.00  0.00     0.009 A 
ENDBRANCH  16  17
BRANCH  16  23
HETATM   23  C   UNL     1      20.419  49.939  48.357  1.00  0.00    -0.023 A 
HETATM   24  C   UNL     1      20.256  51.123  49.104  1.00  0.00     0.009 A 
HETATM   25  C   UNL     1      19.385  52.133  48.682  1.00  0.00     0.001 A 
HETATM   26  C   UNL     1      18.672  51.995  47.496  1.00  0.00     0.000 A 
HETATM   27  C   UNL     1      18.837  50.852  46.723  1.00  0.00     0.001 A 
HETATM   28  C   UNL     1      19.708  49.842  47.142  1.00  0.00     0.009 A 
ENDBRANCH  16  23
ENDBRANCH  12  16
ENDBRANCH   3   9
BRANCH   1  29
HETATM   29  C   UNL     1      24.199  43.548  50.374  1.00  0.00     0.240 C 
HETATM   30  N   UNL     1      24.839  42.950  51.442  1.00  0.00    -0.326 N 
HETATM   31  H   UNL     1      24.603  41.990  51.665  1.00  0.00     0.169 HD
HETATM   32  O   UNL     1      24.388  44.696  49.962  1.00  0.00    -0.271 OA
BRANCH  30  33
HETATM   33  C   UNL     1      25.795  43.552  52.294  1.00  0.00     0.034 A 
HETATM   34  C   UNL     1      25.475  44.201  53.490  1.00  0.00     0.030 A 
HETATM   35  C   UNL     1      26.478  44.752  54.295  1.00  0.00     0.020 A 
HETATM   36  C   UNL     1      27.821  44.669  53.918  1.00  0.00     0.039 A 
HETATM   37  C   UNL     1      28.149  44.029  52.718  1.00  0.00     0.020 A 
HETATM   38  C   UNL     1      27.142  43.474  51.915  1.00  0.00     0.030 A 
BRANCH  36  39
HETATM   39  C   UNL     1      28.838  45.262  54.829  1.00  0.00     0.293 C 
HETATM   40  O   UNL     1      28.798  46.420  55.209  1.00  0.00    -0.259 OA
BRANCH  39  41
HETATM   41  O   UNL     1      29.780  44.344  55.158  1.00  0.00    -0.318 OA
BRANCH  41  42
HETATM   42  C   UNL     1      30.572  44.660  56.314  1.00  0.00     0.174 C 
HETATM   43  C   UNL     1      31.399  43.460  56.731  1.00  0.00     0.034 C 
ENDBRANCH  41  42
ENDBRANCH  39  41
ENDBRANCH  36  39
ENDBRANCH  30  33
ENDBRANCH   1  29
TORSDOF 9
ENDMDL
MODEL 3
REMARK VINA RESULT:     -10.0      3.274      5.674
REMARK  9 active torsions:
REMARK  status: ('A' for Active; 'I' for Inactive)
REMARK    1  A    between atoms: C_2  and  O_3 
REMARK    2  A    between atoms: O_3  and  C_4 
REMARK    3  A    between atoms: C_4  and  C_5 
REMARK    4  A    between atoms: C_8  and  N_9 
REMARK       I    between atoms: N_9  and  C_10 
REMARK    5  A    between atoms: C_10  and  C_11 
REMARK    6  A    between atoms: C_13  and  N_14 
REMARK    7  A    between atoms: N_17  and  C_19 
REMARK    8  A    between atoms: C_19  and  C_20 
REMARK    9  A    between atoms: C_19  and  C_26 
ROOT
HETATM    1  C   UNL     1      22.983  43.856  46.096  1.00  0.00     0.164 C 
HETATM    2  N   UNL     1      23.879  43.768  47.262  1.00  0.00    -0.249 NA
HETATM    3  C   UNL     1      24.125  42.576  47.860  1.00  0.00     0.181 C 
HETATM    4  N   UNL     1      23.854  41.425  47.340  1.00  0.00    -0.185 NA
HETATM    5  C   UNL     1      23.242  41.453  46.110  1.00  0.00     0.247 C 
HETATM    6  O   UNL     1      23.439  40.604  45.249  1.00  0.00    -0.271 OA
HETATM    7  C   UNL     1      22.242  42.555  45.898  1.00  0.00     0.134 C 
HETATM    8  H   UNL     1      23.620  44.500  47.933  1.00  0.00     0.131 HD
ENDROOT
BRANCH   3   9
HETATM    9  N   UNL     1      24.673  42.705  49.118  1.00  0.00    -0.353 N 
HETATM   10  C   UNL     1      23.834  42.948  50.309  1.00  0.00     0.153 C 
HETATM   11  C   UNL     1      23.820  44.451  50.652  1.00  0.00     0.256 C 
HETATM   12  N   UNL     1      25.257  44.920  50.885  1.00  0.00    -0.056 N 
HETATM   13  H   UNL     1      25.689  44.283  51.558  1.00  0.00     0.281 HD
HETATM   14  C   UNL     1      26.057  44.719  49.591  1.00  0.00     0.256 C 
HETATM   15  C   UNL     1      26.056  43.216  49.240  1.00  0.00     0.153 C 
BRANCH  12  16
HETATM   16  C   UNL     1      25.407  46.300  51.516  1.00  0.00     0.254 C 
BRANCH  16  17
HETATM   17  C   UNL     1      26.255  46.277  52.785  1.00  0.00    -0.023 A 
HETATM   18  C   UNL     1      27.055  45.173  53.126  1.00  0.00     0.009 A 
HETATM   19  C   UNL     1      27.817  45.178  54.294  1.00  0.00     0.001 A 
HETATM   20  C   UNL     1      27.794  46.285  55.139  1.00  0.00     0.000 A 
HETATM   21  C   UNL     1      27.011  47.390  54.816  1.00  0.00     0.001 A 
HETATM   22  C   UNL     1      26.247  47.389  53.649  1.00  0.00     0.009 A 
ENDBRANCH  16  17
BRANCH  16  23
HETATM   23  C   UNL     1      25.762  47.425  50.525  1.00  0.00    -0.023 A 
HETATM   24  C   UNL     1      27.082  47.800  50.207  1.00  0.00     0.009 A 
HETATM   25  C   UNL     1      27.345  48.811  49.276  1.00  0.00     0.001 A 
HETATM   26  C   UNL     1      26.299  49.456  48.626  1.00  0.00     0.000 A 
HETATM   27  C   UNL     1      24.988  49.085  48.896  1.00  0.00     0.001 A 
HETATM   28  C   UNL     1      24.722  48.074  49.826  1.00  0.00     0.009 A 
ENDBRANCH  16  23
ENDBRANCH  12  16
ENDBRANCH   3   9
BRANCH   1  29
HETATM   29  C   UNL     1      22.015  45.031  46.367  1.00  0.00     0.240 C 
HETATM   30  N   UNL     1      21.961  45.464  47.678  1.00  0.00    -0.326 N 
HETATM   31  H   UNL     1      22.578  45.027  48.352  1.00  0.00     0.169 HD
HETATM   32  O   UNL     1      21.349  45.472  45.427  1.00  0.00    -0.271 OA
BRANCH  30  33
HETATM   33  C   UNL     1      21.101  46.460  48.200  1.00  0.00     0.034 A 
HETATM   34  C   UNL     1      19.784  46.220  48.601  1.00  0.00     0.030 A 
HETATM   35  C   UNL     1      19.000  47.249  49.133  1.00  0.00     0.020 A 
HETATM   36  C   UNL     1      19.516  48.541  49.270  1.00  0.00     0.039 A 
HETATM   37  C   UNL     1      20.831  48.790  48.863  1.00  0.00     0.020 A 
HETATM   38  C   UNL     1      21.616  47.755  48.334  1.00  0.00     0.030 A 
BRANCH  36  39
HETATM   39  C   UNL     1      18.633  49.585  49.858  1.00  0.00     0.293 C 
HETATM   40  O   UNL     1      18.476  49.726  51.060  1.00  0.00    -0.259 OA
BRANCH  39  41
HETATM   41  O   UNL     1      18.054  50.326  48.882  1.00  0.00    -0.318 OA
BRANCH  41  42
HETATM   42  C   UNL     1      18.124  51.749  49.066  1.00  0.00     0.174 C 
HETATM   43  C   UNL     1      19.419  52.291  48.494  1.00  0.00     0.034 C 
ENDBRANCH  41  42
ENDBRANCH  39  41
ENDBRANCH  36  39
ENDBRANCH  30  33
ENDBRANCH   1  29
TORSDOF 9
ENDMDL
MODEL 4
REMARK VINA RESULT:      -9.9      1.408      3.454
REMARK  9 active torsions:
REMARK  status: ('A' for Active; 'I' for Inactive)
REMARK    1  A    between atoms: C_2  and  O_3 
REMARK    2  A    between atoms: O_3  and  C_4 
REMARK    3  A    between atoms: C_4  and  C_5 
REMARK    4  A    between atoms: C_8  and  N_9 
REMARK       I    between atoms: N_9  and  C_10 
REMARK    5  A    between atoms: C_10  and  C_11 
REMARK    6  A    between atoms: C_13  and  N_14 
REMARK    7  A    between atoms: N_17  and  C_19 
REMARK    8  A    between atoms: C_19  and  C_20 
REMARK    9  A    between atoms: C_19  and  C_26 
ROOT
HETATM    1  C   UNL     1      24.081  48.623  49.908  1.00  0.00     0.164 C 
HETATM    2  N   UNL     1      23.975  47.195  50.256  1.00  0.00    -0.249 NA
HETATM    3  C   UNL     1      24.942  46.317  49.888  1.00  0.00     0.181 C 
HETATM    4  N   UNL     1      26.118  46.654  49.475  1.00  0.00    -0.185 NA
HETATM    5  C   UNL     1      26.357  48.004  49.382  1.00  0.00     0.247 C 
HETATM    6  O   UNL     1      27.456  48.501  49.597  1.00  0.00    -0.271 OA
HETATM    7  C   UNL     1      25.201  48.846  48.920  1.00  0.00     0.134 C 
HETATM    8  H   UNL     1      23.033  46.866  50.017  1.00  0.00     0.131 HD
ENDROOT
BRANCH   3   9
HETATM    9  N   UNL     1      24.535  45.003  49.964  1.00  0.00    -0.353 N 
HETATM   10  C   UNL     1      24.162  44.379  51.249  1.00  0.00     0.153 C 
HETATM   11  C   UNL     1      25.349  43.575  51.816  1.00  0.00     0.256 C 
HETATM   12  N   UNL     1      25.766  42.519  50.792  1.00  0.00    -0.056 N 
HETATM   13  H   UNL     1      24.929  42.000  50.517  1.00  0.00     0.281 HD
HETATM   14  C   UNL     1      26.221  43.228  49.509  1.00  0.00     0.256 C 
HETATM   15  C   UNL     1      25.036  44.046  48.953  1.00  0.00     0.153 C 
BRANCH  12  16
HETATM   16  C   UNL     1      26.727  41.449  51.300  1.00  0.00     0.254 C 
BRANCH  16  17
HETATM   17  C   UNL     1      27.173  40.490  50.201  1.00  0.00    -0.023 A 
HETATM   18  C   UNL     1      28.489  39.998  50.131  1.00  0.00     0.009 A 
HETATM   19  C   UNL     1      28.870  39.124  49.112  1.00  0.00     0.001 A 
HETATM   20  C   UNL     1      27.946  38.726  48.150  1.00  0.00     0.000 A 
HETATM   21  C   UNL     1      26.637  39.199  48.204  1.00  0.00     0.001 A 
HETATM   22  C   UNL     1      26.252  40.073  49.221  1.00  0.00     0.009 A 
ENDBRANCH  16  17
BRANCH  16  23
HETATM   23  C   UNL     1      27.866  41.979  52.193  1.00  0.00    -0.023 A 
HETATM   24  C   UNL     1      28.830  42.911  51.760  1.00  0.00     0.009 A 
HETATM   25  C   UNL     1      29.825  43.381  52.625  1.00  0.00     0.001 A 
HETATM   26  C   UNL     1      29.868  42.947  53.945  1.00  0.00     0.000 A 
HETATM   27  C   UNL     1      28.911  42.052  54.408  1.00  0.00     0.001 A 
HETATM   28  C   UNL     1      27.916  41.583  53.546  1.00  0.00     0.009 A 
ENDBRANCH  16  23
ENDBRANCH  12  16
ENDBRANCH   3   9
BRANCH   1  29
HETATM   29  C   UNL     1      22.711  49.041  49.326  1.00  0.00     0.240 C 
HETATM   30  N   UNL     1      22.045  50.027  50.028  1.00  0.00    -0.326 N 
HETATM   31  H   UNL     1      22.506  50.437  50.832  1.00  0.00     0.169 HD
HETATM   32  O   UNL     1      22.299  48.461  48.318  1.00  0.00    -0.271 OA
BRANCH  30  33
HETATM   33  C   UNL     1      20.749  50.525  49.755  1.00  0.00     0.034 A 
HETATM   34  C   UNL     1      19.579  49.997  50.308  1.00  0.00     0.030 A 
HETATM   35  C   UNL     1      18.332  50.558  50.012  1.00  0.00     0.020 A 
HETATM   36  C   UNL     1      18.229  51.655  49.152  1.00  0.00     0.039 A 
HETATM   37  C   UNL     1      19.396  52.183  48.588  1.00  0.00     0.020 A 
HETATM   38  C   UNL     1      20.644  51.621  48.890  1.00  0.00     0.030 A 
BRANCH  36  39
HETATM   39  C   UNL     1      16.874  52.212  48.892  1.00  0.00     0.293 C 
HETATM   40  O   UNL     1      16.413  52.352  47.771  1.00  0.00    -0.259 OA
BRANCH  39  41
HETATM   41  O   UNL     1      16.255  52.528  50.057  1.00  0.00    -0.318 OA
BRANCH  41  42
HETATM   42  C   UNL     1      14.836  52.727  49.966  1.00  0.00     0.174 C 
HETATM   43  C   UNL     1      14.369  53.695  51.036  1.00  0.00     0.034 C 
ENDBRANCH  41  42
ENDBRANCH  39  41
ENDBRANCH  36  39
ENDBRANCH  30  33
ENDBRANCH   1  29
TORSDOF 9
ENDMDL
MODEL 5
REMARK VINA RESULT:      -9.9      1.721      3.507
REMARK  9 active torsions:
REMARK  status: ('A' for Active; 'I' for Inactive)
REMARK    1  A    between atoms: C_2  and  O_3 
REMARK    2  A    between atoms: O_3  and  C_4 
REMARK    3  A    between atoms: C_4  and  C_5 
REMARK    4  A    between atoms: C_8  and  N_9 
REMARK       I    between atoms: N_9  and  C_10 
REMARK    5  A    between atoms: C_10  and  C_11 
REMARK    6  A    between atoms: C_13  and  N_14 
REMARK    7  A    between atoms: N_17  and  C_19 
REMARK    8  A    between atoms: C_19  and  C_20 
REMARK    9  A    between atoms: C_19  and  C_26 
ROOT
HETATM    1  C   UNL     1      24.804  49.777  49.146  1.00  0.00     0.164 C 
HETATM    2  N   UNL     1      24.796  48.422  49.725  1.00  0.00    -0.249 NA
HETATM    3  C   UNL     1      25.827  47.568  49.506  1.00  0.00     0.181 C 
HETATM    4  N   UNL     1      26.982  47.916  49.043  1.00  0.00    -0.185 NA
HETATM    5  C   UNL     1      27.125  49.246  48.728  1.00  0.00     0.247 C 
HETATM    6  O   UNL     1      28.183  49.851  48.857  1.00  0.00    -0.271 OA
HETATM    7  C   UNL     1      25.916  49.915  48.134  1.00  0.00     0.134 C 
HETATM    8  H   UNL     1      23.883  47.991  49.544  1.00  0.00     0.131 HD
ENDROOT
BRANCH   3   9
HETATM    9  N   UNL     1      25.516  46.258  49.798  1.00  0.00    -0.353 N 
HETATM   10  C   UNL     1      24.564  45.908  50.872  1.00  0.00     0.153 C 
HETATM   11  C   UNL     1      25.326  45.542  52.161  1.00  0.00     0.256 C 
HETATM   12  N   UNL     1      26.273  44.379  51.863  1.00  0.00    -0.056 N 
HETATM   13  H   UNL     1      25.732  43.642  51.407  1.00  0.00     0.281 HD
HETATM   14  C   UNL     1      27.288  44.828  50.803  1.00  0.00     0.256 C 
HETATM   15  C   UNL     1      26.522  45.210  49.519  1.00  0.00     0.153 C 
BRANCH  12  16
HETATM   16  C   UNL     1      26.888  43.700  53.082  1.00  0.00     0.254 C 
BRANCH  16  17
HETATM   17  C   UNL     1      27.574  42.381  52.737  1.00  0.00    -0.023 A 
HETATM   18  C   UNL     1      28.082  41.525  53.730  1.00  0.00     0.009 A 
HETATM   19  C   UNL     1      28.709  40.326  53.385  1.00  0.00     0.001 A 
HETATM   20  C   UNL     1      28.835  39.964  52.047  1.00  0.00     0.000 A 
HETATM   21  C   UNL     1      28.334  40.796  51.049  1.00  0.00     0.001 A 
HETATM   22  C   UNL     1      27.708  41.995  51.389  1.00  0.00     0.009 A 
ENDBRANCH  16  17
BRANCH  16  23
HETATM   23  C   UNL     1      27.709  44.633  53.993  1.00  0.00    -0.023 A 
HETATM   24  C   UNL     1      27.289  45.923  54.373  1.00  0.00     0.009 A 
HETATM   25  C   UNL     1      28.062  46.716  55.228  1.00  0.00     0.001 A 
HETATM   26  C   UNL     1      29.261  46.232  55.740  1.00  0.00     0.000 A 
HETATM   27  C   UNL     1      29.685  44.951  55.407  1.00  0.00     0.001 A 
HETATM   28  C   UNL     1      28.913  44.157  54.554  1.00  0.00     0.009 A 
ENDBRANCH  16  23
ENDBRANCH  12  16
ENDBRANCH   3   9
BRANCH   1  29
HETATM   29  C   UNL     1      23.415  49.994  48.503  1.00  0.00     0.240 C 
HETATM   30  N   UNL     1      22.382  50.228  49.390  1.00  0.00    -0.326 N 
HETATM   31  H   UNL     1      22.603  50.290  50.377  1.00  0.00     0.169 HD
HETATM   32  O   UNL     1      23.316  49.913  47.276  1.00  0.00    -0.271 OA
BRANCH  30  33
HETATM   33  C   UNL     1      21.012  50.374  49.066  1.00  0.00     0.034 A 
HETATM   34  C   UNL     1      20.059  49.366  49.237  1.00  0.00     0.030 A 
HETATM   35  C   UNL     1      18.715  49.591  48.917  1.00  0.00     0.020 A 
HETATM   36  C   UNL     1      18.298  50.828  48.417  1.00  0.00     0.039 A 
HETATM   37  C   UNL     1      19.248  51.839  48.236  1.00  0.00     0.020 A 
HETATM   38  C   UNL     1      20.593  51.612  48.560  1.00  0.00     0.030 A 
BRANCH  36  39
HETATM   39  C   UNL     1      16.852  51.004  48.114  1.00  0.00     0.293 C 
HETATM   40  O   UNL     1      16.177  50.151  47.562  1.00  0.00    -0.259 OA
BRANCH  39  41
HETATM   41  O   UNL     1      16.420  52.219  48.534  1.00  0.00    -0.318 OA
BRANCH  41  42
HETATM   42  C   UNL     1      15.715  52.223  49.785  1.00  0.00     0.174 C 
HETATM   43  C   UNL     1      14.541  53.181  49.726  1.00  0.00     0.034 C 
ENDBRANCH  41  42
ENDBRANCH  39  41
ENDBRANCH  36  39
ENDBRANCH  30  33
ENDBRANCH   1  29
TORSDOF 9
ENDMDL
MODEL 6
REMARK VINA RESULT:      -9.8      3.256      7.376
REMARK  9 active torsions:
REMARK  status: ('A' for Active; 'I' for Inactive)
REMARK    1  A    between atoms: C_2  and  O_3 
REMARK    2  A    between atoms: O_3  and  C_4 
REMARK    3  A    between atoms: C_4  and  C_5 
REMARK    4  A    between atoms: C_8  and  N_9 
REMARK       I    between atoms: N_9  and  C_10 
REMARK    5  A    between atoms: C_10  and  C_11 
REMARK    6  A    between atoms: C_13  and  N_14 
REMARK    7  A    between atoms: N_17  and  C_19 
REMARK    8  A    between atoms: C_19  and  C_20 
REMARK    9  A    between atoms: C_19  and  C_26 
ROOT
HETATM    1  C   UNL     1      26.055  42.414  49.615  1.00  0.00     0.164 C 
HETATM    2  N   UNL     1      27.077  42.332  50.672  1.00  0.00    -0.249 NA
HETATM    3  C   UNL     1      27.375  41.145  51.259  1.00  0.00     0.181 C 
HETATM    4  N   UNL     1      27.032  39.991  50.793  1.00  0.00    -0.185 NA
HETATM    5  C   UNL     1      26.284  40.008  49.640  1.00  0.00     0.247 C 
HETATM    6  O   UNL     1      26.371  39.142  48.778  1.00  0.00    -0.271 OA
HETATM    7  C   UNL     1      25.280  41.121  49.525  1.00  0.00     0.134 C 
HETATM    8  H   UNL     1      26.905  43.077  51.356  1.00  0.00     0.131 HD
ENDROOT
BRANCH   3   9
HETATM    9  N   UNL     1      28.064  41.286  52.443  1.00  0.00    -0.353 N 
HETATM   10  C   UNL     1      27.377  41.623  53.707  1.00  0.00     0.153 C 
HETATM   11  C   UNL     1      27.485  43.136  53.985  1.00  0.00     0.256 C 
HETATM   12  N   UNL     1      28.962  43.525  54.042  1.00  0.00    -0.056 N 
HETATM   13  H   UNL     1      29.430  42.888  54.691  1.00  0.00     0.281 HD
HETATM   14  C   UNL     1      29.603  43.229  52.679  1.00  0.00     0.256 C 
HETATM   15  C   UNL     1      29.479  41.718  52.395  1.00  0.00     0.153 C 
BRANCH  12  16
HETATM   16  C   UNL     1      29.259  44.915  54.594  1.00  0.00     0.254 C 
BRANCH  16  17
HETATM   17  C   UNL     1      28.071  45.864  54.466  1.00  0.00    -0.023 A 
HETATM   18  C   UNL     1      27.939  47.004  55.278  1.00  0.00     0.009 A 
HETATM   19  C   UNL     1      26.840  47.853  55.142  1.00  0.00     0.001 A 
HETATM   20  C   UNL     1      25.858  47.579  54.194  1.00  0.00     0.000 A 
HETATM   21  C   UNL     1      25.973  46.457  53.377  1.00  0.00     0.001 A 
HETATM   22  C   UNL     1      27.070  45.606  53.510  1.00  0.00     0.009 A 
ENDBRANCH  16  17
BRANCH  16  23
HETATM   23  C   UNL     1      29.947  44.927  55.973  1.00  0.00    -0.023 A 
HETATM   24  C   UNL     1      29.617  45.830  57.003  1.00  0.00     0.009 A 
HETATM   25  C   UNL     1      30.255  45.775  58.247  1.00  0.00     0.001 A 
HETATM   26  C   UNL     1      31.222  44.807  58.498  1.00  0.00     0.000 A 
HETATM   27  C   UNL     1      31.544  43.885  57.511  1.00  0.00     0.001 A 
HETATM   28  C   UNL     1      30.907  43.937  56.267  1.00  0.00     0.009 A 
ENDBRANCH  16  23
ENDBRANCH  12  16
ENDBRANCH   3   9
BRANCH   1  29
HETATM   29  C   UNL     1      25.139  43.607  49.974  1.00  0.00     0.240 C 
HETATM   30  N   UNL     1      25.064  44.604  49.021  1.00  0.00    -0.326 N 
HETATM   31  H   UNL     1      25.563  44.471  48.148  1.00  0.00     0.169 HD
HETATM   32  O   UNL     1      24.576  43.606  51.072  1.00  0.00    -0.271 OA
BRANCH  30  33
HETATM   33  C   UNL     1      24.368  45.831  49.139  1.00  0.00     0.034 A 
HETATM   34  C   UNL     1      24.868  46.949  49.812  1.00  0.00     0.030 A 
HETATM   35  C   UNL     1      24.133  48.138  49.867  1.00  0.00     0.020 A 
HETATM   36  C   UNL     1      22.880  48.231  49.253  1.00  0.00     0.039 A 
HETATM   37  C   UNL     1      22.370  47.113  48.585  1.00  0.00     0.020 A 
HETATM   38  C   UNL     1      23.111  45.924  48.529  1.00  0.00     0.030 A 
BRANCH  36  39
HETATM   39  C   UNL     1      22.160  49.531  49.337  1.00  0.00     0.293 C 
HETATM   40  O   UNL     1      22.643  50.531  49.841  1.00  0.00    -0.259 OA
BRANCH  39  41
HETATM   41  O   UNL     1      20.926  49.430  48.783  1.00  0.00    -0.318 OA
BRANCH  41  42
HETATM   42  C   UNL     1      19.833  49.774  49.649  1.00  0.00     0.174 C 
HETATM   43  C   UNL     1      19.118  48.523  50.119  1.00  0.00     0.034 C 
ENDBRANCH  41  42
ENDBRANCH  39  41
ENDBRANCH  36  39
ENDBRANCH  30  33
ENDBRANCH   1  29
TORSDOF 9
ENDMDL
MODEL 7
REMARK VINA RESULT:      -9.7      4.161     11.850
REMARK  9 active torsions:
REMARK  status: ('A' for Active; 'I' for Inactive)
REMARK    1  A    between atoms: C_2  and  O_3 
REMARK    2  A    between atoms: O_3  and  C_4 
REMARK    3  A    between atoms: C_4  and  C_5 
REMARK    4  A    between atoms: C_8  and  N_9 
REMARK       I    between atoms: N_9  and  C_10 
REMARK    5  A    between atoms: C_10  and  C_11 
REMARK    6  A    between atoms: C_13  and  N_14 
REMARK    7  A    between atoms: N_17  and  C_19 
REMARK    8  A    between atoms: C_19  and  C_20 
REMARK    9  A    between atoms: C_19  and  C_26 
ROOT
HETATM    1  C   UNL     1      23.647  43.788  50.485  1.00  0.00     0.164 C 
HETATM    2  N   UNL     1      23.004  44.876  49.727  1.00  0.00    -0.249 NA
HETATM    3  C   UNL     1      22.643  44.699  48.431  1.00  0.00     0.181 C 
HETATM    4  N   UNL     1      22.561  43.552  47.843  1.00  0.00    -0.185 NA
HETATM    5  C   UNL     1      22.906  42.462  48.605  1.00  0.00     0.247 C 
HETATM    6  O   UNL     1      22.370  41.367  48.481  1.00  0.00    -0.271 OA
HETATM    7  C   UNL     1      24.049  42.663  49.561  1.00  0.00     0.134 C 
HETATM    8  H   UNL     1      23.538  45.739  49.873  1.00  0.00     0.131 HD
ENDROOT
BRANCH   3   9
HETATM    9  N   UNL     1      22.398  45.884  47.773  1.00  0.00    -0.353 N 
HETATM   10  C   UNL     1      22.337  47.174  48.491  1.00  0.00     0.153 C 
HETATM   11  C   UNL     1      20.872  47.553  48.783  1.00  0.00     0.256 C 
HETATM   12  N   UNL     1      20.106  47.623  47.461  1.00  0.00    -0.056 N 
HETATM   13  H   UNL     1      20.633  48.222  46.824  1.00  0.00     0.281 HD
HETATM   14  C   UNL     1      20.132  46.236  46.802  1.00  0.00     0.256 C 
HETATM   15  C   UNL     1      21.601  45.852  46.526  1.00  0.00     0.153 C 
BRANCH  12  16
HETATM   16  C   UNL     1      18.724  48.264  47.532  1.00  0.00     0.254 C 
BRANCH  16  17
HETATM   17  C   UNL     1      18.745  49.632  48.207  1.00  0.00    -0.023 A 
HETATM   18  C   UNL     1      19.640  50.643  47.813  1.00  0.00     0.009 A 
HETATM   19  C   UNL     1      19.640  51.884  48.451  1.00  0.00     0.001 A 
HETATM   20  C   UNL     1      18.746  52.136  49.489  1.00  0.00     0.000 A 
HETATM   21  C   UNL     1      17.849  51.150  49.890  1.00  0.00     0.001 A 
HETATM   22  C   UNL     1      17.846  49.907  49.255  1.00  0.00     0.009 A 
ENDBRANCH  16  17
BRANCH  16  23
HETATM   23  C   UNL     1      17.920  48.207  46.218  1.00  0.00    -0.023 A 
HETATM   24  C   UNL     1      16.604  47.712  46.128  1.00  0.00     0.009 A 
HETATM   25  C   UNL     1      15.910  47.713  44.913  1.00  0.00     0.001 A 
HETATM   26  C   UNL     1      16.506  48.223  43.765  1.00  0.00     0.000 A 
HETATM   27  C   UNL     1      17.792  48.746  43.831  1.00  0.00     0.001 A 
HETATM   28  C   UNL     1      18.486  48.748  45.045  1.00  0.00     0.009 A 
ENDBRANCH  16  23
ENDBRANCH  12  16
ENDBRANCH   3   9
BRANCH   1  29
HETATM   29  C   UNL     1      24.870  44.407  51.200  1.00  0.00     0.240 C 
HETATM   30  N   UNL     1      25.192  43.842  52.419  1.00  0.00    -0.326 N 
HETATM   31  H   UNL     1      24.651  43.046  52.736  1.00  0.00     0.169 HD
HETATM   32  O   UNL     1      25.442  45.360  50.666  1.00  0.00    -0.271 OA
BRANCH  30  33
HETATM   33  C   UNL     1      26.207  44.275  53.305  1.00  0.00     0.034 A 
HETATM   34  C   UNL     1      26.167  45.485  54.003  1.00  0.00     0.030 A 
HETATM   35  C   UNL     1      27.196  45.837  54.884  1.00  0.00     0.020 A 
HETATM   36  C   UNL     1      28.288  44.987  55.080  1.00  0.00     0.039 A 
HETATM   37  C   UNL     1      28.339  43.779  54.378  1.00  0.00     0.020 A 
HETATM   38  C   UNL     1      27.304  43.427  53.499  1.00  0.00     0.030 A 
BRANCH  36  39
HETATM   39  C   UNL     1      29.339  45.416  56.042  1.00  0.00     0.293 C 
HETATM   40  O   UNL     1      29.206  46.364  56.797  1.00  0.00    -0.259 OA
BRANCH  39  41
HETATM   41  O   UNL     1      30.428  44.613  55.950  1.00  0.00    -0.318 OA
BRANCH  41  42
HETATM   42  C   UNL     1      31.118  44.366  57.186  1.00  0.00     0.174 C 
HETATM   43  C   UNL     1      31.788  43.006  57.154  1.00  0.00     0.034 C 
ENDBRANCH  41  42
ENDBRANCH  39  41
ENDBRANCH  36  39
ENDBRANCH  30  33
ENDBRANCH   1  29
TORSDOF 9
ENDMDL
MODEL 8
REMARK VINA RESULT:      -9.5      4.976     11.691
REMARK  9 active torsions:
REMARK  status: ('A' for Active; 'I' for Inactive)
REMARK    1  A    between atoms: C_2  and  O_3 
REMARK    2  A    between atoms: O_3  and  C_4 
REMARK    3  A    between atoms: C_4  and  C_5 
REMARK    4  A    between atoms: C_8  and  N_9 
REMARK       I    between atoms: N_9  and  C_10 
REMARK    5  A    between atoms: C_10  and  C_11 
REMARK    6  A    between atoms: C_13  and  N_14 
REMARK    7  A    between atoms: N_17  and  C_19 
REMARK    8  A    between atoms: C_19  and  C_20 
REMARK    9  A    between atoms: C_19  and  C_26 
ROOT
HETATM    1  C   UNL     1      17.618  44.913  46.319  1.00  0.00     0.164 C 
HETATM    2  N   UNL     1      16.821  46.150  46.251  1.00  0.00    -0.249 NA
HETATM    3  C   UNL     1      16.503  46.707  45.055  1.00  0.00     0.181 C 
HETATM    4  N   UNL     1      16.607  46.106  43.917  1.00  0.00    -0.185 NA
HETATM    5  C   UNL     1      17.111  44.828  43.957  1.00  0.00     0.247 C 
HETATM    6  O   UNL     1      16.754  43.947  43.184  1.00  0.00    -0.271 OA
HETATM    7  C   UNL     1      18.200  44.583  44.965  1.00  0.00     0.134 C 
HETATM    8  H   UNL     1      17.211  46.831  46.911  1.00  0.00     0.131 HD
ENDROOT
BRANCH   3   9
HETATM    9  N   UNL     1      16.081  48.013  45.163  1.00  0.00    -0.353 N 
HETATM   10  C   UNL     1      17.031  49.144  45.099  1.00  0.00     0.153 C 
HETATM   11  C   UNL     1      17.392  49.616  46.522  1.00  0.00     0.256 C 
HETATM   12  N   UNL     1      16.109  50.015  47.252  1.00  0.00    -0.056 N 
HETATM   13  H   UNL     1      15.595  50.664  46.653  1.00  0.00     0.281 HD
HETATM   14  C   UNL     1      15.200  48.782  47.361  1.00  0.00     0.256 C 
HETATM   15  C   UNL     1      14.853  48.302  45.936  1.00  0.00     0.153 C 
BRANCH  12  16
HETATM   16  C   UNL     1      16.303  50.776  48.559  1.00  0.00     0.254 C 
BRANCH  16  17
HETATM   17  C   UNL     1      17.773  50.933  48.937  1.00  0.00    -0.023 A 
HETATM   18  C   UNL     1      18.604  51.880  48.312  1.00  0.00     0.009 A 
HETATM   19  C   UNL     1      19.947  51.999  48.675  1.00  0.00     0.001 A 
HETATM   20  C   UNL     1      20.479  51.178  49.665  1.00  0.00     0.000 A 
HETATM   21  C   UNL     1      19.670  50.237  50.298  1.00  0.00     0.001 A 
HETATM   22  C   UNL     1      18.328  50.115  49.939  1.00  0.00     0.009 A 
ENDBRANCH  16  17
BRANCH  16  23
HETATM   23  C   UNL     1      15.465  52.063  48.685  1.00  0.00    -0.023 A 
HETATM   24  C   UNL     1      15.079  52.855  47.585  1.00  0.00     0.009 A 
HETATM   25  C   UNL     1      14.291  53.999  47.755  1.00  0.00     0.001 A 
HETATM   26  C   UNL     1      13.855  54.368  49.023  1.00  0.00     0.000 A 
HETATM   27  C   UNL     1      14.194  53.588  50.122  1.00  0.00     0.001 A 
HETATM   28  C   UNL     1      14.980  52.444  49.953  1.00  0.00     0.009 A 
ENDBRANCH  16  23
ENDBRANCH  12  16
ENDBRANCH   3   9
BRANCH   1  29
HETATM   29  C   UNL     1      18.723  45.154  47.373  1.00  0.00     0.240 C 
HETATM   30  N   UNL     1      19.729  46.019  46.990  1.00  0.00    -0.326 N 
HETATM   31  H   UNL     1      19.656  46.467  46.084  1.00  0.00     0.169 HD
HETATM   32  O   UNL     1      18.652  44.549  48.447  1.00  0.00    -0.271 OA
BRANCH  30  33
HETATM   33  C   UNL     1      20.891  46.340  47.733  1.00  0.00     0.034 A 
HETATM   34  C   UNL     1      21.829  45.396  48.159  1.00  0.00     0.030 A 
HETATM   35  C   UNL     1      22.968  45.791  48.869  1.00  0.00     0.020 A 
HETATM   36  C   UNL     1      23.190  47.138  49.170  1.00  0.00     0.039 A 
HETATM   37  C   UNL     1      22.251  48.087  48.753  1.00  0.00     0.020 A 
HETATM   38  C   UNL     1      21.112  47.689  48.039  1.00  0.00     0.030 A 
BRANCH  36  39
HETATM   39  C   UNL     1      24.430  47.489  49.913  1.00  0.00     0.293 C 
HETATM   40  O   UNL     1      25.014  46.707  50.645  1.00  0.00    -0.259 OA
BRANCH  39  41
HETATM   41  O   UNL     1      24.795  48.770  49.657  1.00  0.00    -0.318 OA
BRANCH  41  42
HETATM   42  C   UNL     1      26.031  48.927  48.941  1.00  0.00     0.174 C 
HETATM   43  C   UNL     1      25.901  50.019  47.898  1.00  0.00     0.034 C 
ENDBRANCH  41  42
ENDBRANCH  39  41
ENDBRANCH  36  39
ENDBRANCH  30  33
ENDBRANCH   1  29
TORSDOF 9
ENDMDL
MODEL 9
REMARK VINA RESULT:      -9.5      5.053     11.693
REMARK  9 active torsions:
REMARK  status: ('A' for Active; 'I' for Inactive)
REMARK    1  A    between atoms: C_2  and  O_3 
REMARK    2  A    between atoms: O_3  and  C_4 
REMARK    3  A    between atoms: C_4  and  C_5 
REMARK    4  A    between atoms: C_8  and  N_9 
REMARK       I    between atoms: N_9  and  C_10 
REMARK    5  A    between atoms: C_10  and  C_11 
REMARK    6  A    between atoms: C_13  and  N_14 
REMARK    7  A    between atoms: N_17  and  C_19 
REMARK    8  A    between atoms: C_19  and  C_20 
REMARK    9  A    between atoms: C_19  and  C_26 
ROOT
HETATM    1  C   UNL     1      26.103  41.086  50.284  1.00  0.00     0.164 C 
HETATM    2  N   UNL     1      24.994  42.004  50.598  1.00  0.00    -0.249 NA
HETATM    3  C   UNL     1      24.438  42.776  49.631  1.00  0.00     0.181 C 
HETATM    4  N   UNL     1      24.608  42.598  48.363  1.00  0.00    -0.185 NA
HETATM    5  C   UNL     1      25.444  41.567  48.009  1.00  0.00     0.247 C 
HETATM    6  O   UNL     1      25.279  40.892  46.999  1.00  0.00    -0.271 OA
HETATM    7  C   UNL     1      26.638  41.355  48.898  1.00  0.00     0.134 C 
HETATM    8  H   UNL     1      25.237  42.539  51.438  1.00  0.00     0.131 HD
ENDROOT
BRANCH   3   9
HETATM    9  N   UNL     1      23.685  43.813  50.134  1.00  0.00    -0.353 N 
HETATM   10  C   UNL     1      22.213  43.839  50.003  1.00  0.00     0.153 C 
HETATM   11  C   UNL     1      21.801  44.717  48.805  1.00  0.00     0.256 C 
HETATM   12  N   UNL     1      22.360  46.126  49.007  1.00  0.00    -0.056 N 
HETATM   13  H   UNL     1      22.090  46.440  49.941  1.00  0.00     0.281 HD
HETATM   14  C   UNL     1      23.893  46.046  49.052  1.00  0.00     0.256 C 
HETATM   15  C   UNL     1      24.303  45.153  50.242  1.00  0.00     0.153 C 
BRANCH  12  16
HETATM   16  C   UNL     1      21.809  47.195  48.071  1.00  0.00     0.254 C 
BRANCH  16  17
HETATM   17  C   UNL     1      20.332  46.991  47.748  1.00  0.00    -0.023 A 
HETATM   18  C   UNL     1      19.353  46.922  48.755  1.00  0.00     0.009 A 
HETATM   19  C   UNL     1      18.009  46.730  48.431  1.00  0.00     0.001 A 
HETATM   20  C   UNL     1      17.622  46.606  47.099  1.00  0.00     0.000 A 
HETATM   21  C   UNL     1      18.576  46.676  46.088  1.00  0.00     0.001 A 
HETATM   22  C   UNL     1      19.921  46.868  46.407  1.00  0.00     0.009 A 
ENDBRANCH  16  17
BRANCH  16  23
HETATM   23  C   UNL     1      22.191  48.640  48.448  1.00  0.00    -0.023 A 
HETATM   24  C   UNL     1      21.550  49.378  49.463  1.00  0.00     0.009 A 
HETATM   25  C   UNL     1      21.960  50.677  49.784  1.00  0.00     0.001 A 
HETATM   26  C   UNL     1      23.029  51.261  49.115  1.00  0.00     0.000 A 
HETATM   27  C   UNL     1      23.699  50.545  48.131  1.00  0.00     0.001 A 
HETATM   28  C   UNL     1      23.293  49.246  47.809  1.00  0.00     0.009 A 
ENDBRANCH  16  23
ENDBRANCH  12  16
ENDBRANCH   3   9
BRANCH   1  29
HETATM   29  C   UNL     1      27.183  41.308  51.368  1.00  0.00     0.240 C 
HETATM   30  N   UNL     1      27.071  42.483  52.085  1.00  0.00    -0.326 N 
HETATM   31  H   UNL     1      26.280  43.087  51.893  1.00  0.00     0.169 HD
HETATM   32  O   UNL     1      28.070  40.459  51.496  1.00  0.00    -0.271 OA
BRANCH  30  33
HETATM   33  C   UNL     1      27.972  42.959  53.067  1.00  0.00     0.034 A 
HETATM   34  C   UNL     1      27.595  43.761  54.148  1.00  0.00     0.030 A 
HETATM   35  C   UNL     1      28.538  44.174  55.095  1.00  0.00     0.020 A 
HETATM   36  C   UNL     1      29.879  43.796  54.978  1.00  0.00     0.039 A 
HETATM   37  C   UNL     1      30.265  43.000  53.894  1.00  0.00     0.020 A 
HETATM   38  C   UNL     1      29.317  42.585  52.948  1.00  0.00     0.030 A 
BRANCH  36  39
HETATM   39  C   UNL     1      30.826  44.256  56.029  1.00  0.00     0.293 C 
HETATM   40  O   UNL     1      31.634  43.519  56.569  1.00  0.00    -0.259 OA
BRANCH  39  41
HETATM   41  O   UNL     1      30.655  45.577  56.282  1.00  0.00    -0.318 OA
BRANCH  41  42
HETATM   42  C   UNL     1      30.425  45.916  57.659  1.00  0.00     0.174 C 
HETATM   43  C   UNL     1      28.947  46.143  57.906  1.00  0.00     0.034 C 
ENDBRANCH  41  42
ENDBRANCH  39  41
ENDBRANCH  36  39
ENDBRANCH  30  33
ENDBRANCH   1  29
TORSDOF 9
ENDMDL
MODEL 10
REMARK VINA RESULT:      -9.5      3.063     12.229
REMARK  9 active torsions:
REMARK  status: ('A' for Active; 'I' for Inactive)
REMARK    1  A    between atoms: C_2  and  O_3 
REMARK    2  A    between atoms: O_3  and  C_4 
REMARK    3  A    between atoms: C_4  and  C_5 
REMARK    4  A    between atoms: C_8  and  N_9 
REMARK       I    between atoms: N_9  and  C_10 
REMARK    5  A    between atoms: C_10  and  C_11 
REMARK    6  A    between atoms: C_13  and  N_14 
REMARK    7  A    between atoms: N_17  and  C_19 
REMARK    8  A    between atoms: C_19  and  C_20 
REMARK    9  A    between atoms: C_19  and  C_26 
ROOT
HETATM    1  C   UNL     1      23.547  47.891  48.782  1.00  0.00     0.164 C 
HETATM    2  N   UNL     1      22.125  48.161  49.055  1.00  0.00    -0.249 NA
HETATM    3  C   UNL     1      21.666  49.434  49.153  1.00  0.00     0.181 C 
HETATM    4  N   UNL     1      22.315  50.479  48.759  1.00  0.00    -0.185 NA
HETATM    5  C   UNL     1      23.568  50.247  48.244  1.00  0.00     0.247 C 
HETATM    6  O   UNL     1      24.052  50.920  47.341  1.00  0.00    -0.271 OA
HETATM    7  C   UNL     1      24.361  49.157  48.910  1.00  0.00     0.134 C 
HETATM    8  H   UNL     1      21.822  47.572  49.839  1.00  0.00     0.131 HD
ENDROOT
BRANCH   3   9
HETATM    9  N   UNL     1      20.430  49.518  49.754  1.00  0.00    -0.353 N 
HETATM   10  C   UNL     1      19.430  48.438  49.628  1.00  0.00     0.153 C 
HETATM   11  C   UNL     1      18.414  48.780  48.519  1.00  0.00     0.256 C 
HETATM   12  N   UNL     1      17.745  50.113  48.853  1.00  0.00    -0.056 N 
HETATM   13  H   UNL     1      17.399  50.059  49.814  1.00  0.00     0.281 HD
HETATM   14  C   UNL     1      18.820  51.209  48.889  1.00  0.00     0.256 C 
HETATM   15  C   UNL     1      19.844  50.856  49.989  1.00  0.00     0.153 C 
BRANCH  12  16
HETATM   16  C   UNL     1      16.514  50.461  48.024  1.00  0.00     0.254 C 
BRANCH  16  17
HETATM   17  C   UNL     1      15.829  51.740  48.495  1.00  0.00    -0.023 A 
HETATM   18  C   UNL     1      15.216  52.631  47.596  1.00  0.00     0.009 A 
HETATM   19  C   UNL     1      14.601  53.796  48.054  1.00  0.00     0.001 A 
HETATM   20  C   UNL     1      14.586  54.090  49.415  1.00  0.00     0.000 A 
HETATM   21  C   UNL     1      15.184  53.218  50.322  1.00  0.00     0.001 A 
HETATM   22  C   UNL     1      15.800  52.052  49.868  1.00  0.00     0.009 A 
ENDBRANCH  16  17
BRANCH  16  23
HETATM   23  C   UNL     1      16.715  50.362  46.499  1.00  0.00    -0.023 A 
HETATM   24  C   UNL     1      15.945  49.533  45.661  1.00  0.00     0.009 A 
HETATM   25  C   UNL     1      16.153  49.507  44.277  1.00  0.00     0.001 A 
HETATM   26  C   UNL     1      17.119  50.321  43.697  1.00  0.00     0.000 A 
HETATM   27  C   UNL     1      17.872  51.173  44.496  1.00  0.00     0.001 A 
HETATM   28  C   UNL     1      17.665  51.201  45.879  1.00  0.00     0.009 A 
ENDBRANCH  16  23
ENDBRANCH  12  16
ENDBRANCH   3   9
BRANCH   1  29
HETATM   29  C   UNL     1      23.998  46.816  49.797  1.00  0.00     0.240 C 
HETATM   30  N   UNL     1      25.077  47.162  50.587  1.00  0.00    -0.326 N 
HETATM   31  H   UNL     1      25.465  48.093  50.487  1.00  0.00     0.169 HD
HETATM   32  O   UNL     1      23.402  45.736  49.812  1.00  0.00    -0.271 OA
BRANCH  30  33
HETATM   33  C   UNL     1      25.732  46.332  51.528  1.00  0.00     0.034 A 
HETATM   34  C   UNL     1      25.705  46.546  52.909  1.00  0.00     0.030 A 
HETATM   35  C   UNL     1      26.356  45.668  53.782  1.00  0.00     0.020 A 
HETATM   36  C   UNL     1      27.050  44.559  53.291  1.00  0.00     0.039 A 
HETATM   37  C   UNL     1      27.089  44.342  51.909  1.00  0.00     0.020 A 
HETATM   38  C   UNL     1      26.433  45.222  51.037  1.00  0.00     0.030 A 
BRANCH  36  39
HETATM   39  C   UNL     1      27.706  43.656  54.276  1.00  0.00     0.293 C 
HETATM   40  O   UNL     1      27.207  42.610  54.658  1.00  0.00    -0.259 OA
BRANCH  39  41
HETATM   41  O   UNL     1      28.902  44.162  54.666  1.00  0.00    -0.318 OA
BRANCH  41  42
HETATM   42  C   UNL     1      30.001  43.238  54.635  1.00  0.00     0.174 C 
HETATM   43  C   UNL     1      30.303  42.824  53.208  1.00  0.00     0.034 C 
ENDBRANCH  41  42
ENDBRANCH  39  41
ENDBRANCH  36  39
ENDBRANCH  30  33
ENDBRANCH   1  29
TORSDOF 9
ENDMDL
