MODEL 1
REMARK VINA RESULT:      -8.7      0.000      0.000
REMARK  5 active torsions:
REMARK  status: ('A' for Active; 'I' for Inactive)
REMARK    1  A    between atoms: C_2  and  N_3 
REMARK    2  A    between atoms: C_2  and  C_19 
REMARK       I    between atoms: N_3  and  C_4 
REMARK    3  A    between atoms: C_4  and  C_5 
REMARK    4  A    between atoms: C_7  and  O_8 
REMARK    5  A    between atoms: O_8  and  C_9 
ROOT
HETATM    1  C   UNL     1      26.594  45.356  53.111  1.00  0.00     0.146 A 
HETATM    2  O   UNL     1      26.636  45.358  51.739  1.00  0.00    -0.282 OA
HETATM    3  C   UNL     1      25.920  46.443  51.325  1.00  0.00     0.191 A 
HETATM    4  C   UNL     1      25.463  47.160  52.405  1.00  0.00     0.067 A 
HETATM    5  C   UNL     1      25.865  46.443  53.555  1.00  0.00     0.048 A 
ENDROOT
BRANCH   1   6
HETATM    6  C   UNL     1      27.260  44.301  53.847  1.00  0.00     0.276 C 
HETATM    7  N   UNL     1      28.629  44.295  53.708  1.00  0.00    -0.347 N 
HETATM    8  H   UNL     1      29.040  44.998  53.105  1.00  0.00     0.163 HD
HETATM    9  O   UNL     1      26.662  43.488  54.546  1.00  0.00    -0.265 OA
BRANCH   7  10
HETATM   10  C   UNL     1      29.472  43.294  54.329  1.00  0.00     0.114 C 
HETATM   11  C   UNL     1      30.502  42.763  53.331  1.00  0.00     0.037 C 
BRANCH  10  12
HETATM   12  C   UNL     1      30.109  43.855  55.585  1.00  0.00    -0.033 A 
HETATM   13  C   UNL     1      29.782  45.149  56.011  1.00  0.00     0.028 A 
HETATM   14  C   UNL     1      30.381  45.650  57.156  1.00  0.00     0.116 A 
HETATM   15  N   UNL     1      31.276  44.963  57.896  1.00  0.00    -0.273 NA
HETATM   16  C   UNL     1      31.591  43.724  57.466  1.00  0.00     0.116 A 
HETATM   17  C   UNL     1      31.045  43.135  56.335  1.00  0.00     0.028 A 
ENDBRANCH  10  12
ENDBRANCH   7  10
ENDBRANCH   1   6
BRANCH   3  18
HETATM   18  O   UNL     1      25.845  46.655  50.014  1.00  0.00    -0.286 OA
BRANCH  18  19
HETATM   19  C   UNL     1      25.148  47.721  49.490  1.00  0.00     0.100 A 
HETATM   20  C   UNL     1      25.873  48.826  49.029  1.00  0.00     0.068 A 
HETATM   21 CL   UNL     1      27.600  48.830  49.024  1.00  0.00    -0.081 Cl
HETATM   22  C   UNL     1      25.206  49.961  48.562  1.00  0.00     0.026 A 
HETATM   23  C   UNL     1      23.811  50.002  48.564  1.00  0.00     0.002 A 
HETATM   24  C   UNL     1      23.083  48.909  49.033  1.00  0.00     0.003 A 
HETATM   25  C   UNL     1      23.748  47.774  49.502  1.00  0.00     0.039 A 
ENDBRANCH  18  19
ENDBRANCH   3  18
TORSDOF 5
ENDMDL
MODEL 2
REMARK VINA RESULT:      -8.4      3.052      8.152
REMARK  5 active torsions:
REMARK  status: ('A' for Active; 'I' for Inactive)
REMARK    1  A    between atoms: C_2  and  N_3 
REMARK    2  A    between atoms: C_2  and  C_19 
REMARK       I    between atoms: N_3  and  C_4 
REMARK    3  A    between atoms: C_4  and  C_5 
REMARK    4  A    between atoms: C_7  and  O_8 
REMARK    5  A    between atoms: O_8  and  C_9 
ROOT
HETATM    1  C   UNL     1      27.954  42.729  52.324  1.00  0.00     0.146 A 
HETATM    2  O   UNL     1      28.898  43.664  52.668  1.00  0.00    -0.282 OA
HETATM    3  C   UNL     1      29.486  43.226  53.817  1.00  0.00     0.191 A 
HETATM    4  C   UNL     1      28.971  42.007  54.189  1.00  0.00     0.067 A 
HETATM    5  C   UNL     1      27.960  41.702  53.249  1.00  0.00     0.048 A 
ENDROOT
BRANCH   1   6
HETATM    6  C   UNL     1      27.144  42.929  51.140  1.00  0.00     0.276 C 
HETATM    7  N   UNL     1      26.294  44.008  51.214  1.00  0.00    -0.347 N 
HETATM    8  H   UNL     1      26.294  44.544  52.074  1.00  0.00     0.163 HD
HETATM    9  O   UNL     1      27.214  42.209  50.148  1.00  0.00    -0.265 OA
BRANCH   7  10
HETATM   10  C   UNL     1      25.371  44.350  50.151  1.00  0.00     0.114 C 
HETATM   11  C   UNL     1      23.986  43.765  50.432  1.00  0.00     0.037 C 
BRANCH  10  12
HETATM   12  C   UNL     1      25.344  45.851  49.948  1.00  0.00    -0.033 A 
HETATM   13  C   UNL     1      24.117  46.510  49.795  1.00  0.00     0.028 A 
HETATM   14  C   UNL     1      24.112  47.883  49.600  1.00  0.00     0.116 A 
HETATM   15  N   UNL     1      25.229  48.636  49.544  1.00  0.00    -0.273 NA
HETATM   16  C   UNL     1      26.403  47.987  49.680  1.00  0.00     0.116 A 
HETATM   17  C   UNL     1      26.512  46.619  49.880  1.00  0.00     0.028 A 
ENDBRANCH  10  12
ENDBRANCH   7  10
ENDBRANCH   1   6
BRANCH   3  18
HETATM   18  O   UNL     1      30.458  43.979  54.325  1.00  0.00    -0.286 OA
BRANCH  18  19
HETATM   19  C   UNL     1      30.480  44.334  55.656  1.00  0.00     0.100 A 
HETATM   20  C   UNL     1      29.709  45.429  56.063  1.00  0.00     0.068 A 
HETATM   21 CL   UNL     1      28.681  46.266  54.956  1.00  0.00    -0.081 Cl
HETATM   22  C   UNL     1      29.761  45.875  57.386  1.00  0.00     0.026 A 
HETATM   23  C   UNL     1      30.591  45.234  58.307  1.00  0.00     0.002 A 
HETATM   24  C   UNL     1      31.371  44.150  57.905  1.00  0.00     0.003 A 
HETATM   25  C   UNL     1      31.322  43.704  56.582  1.00  0.00     0.039 A 
ENDBRANCH  18  19
ENDBRANCH   3  18
TORSDOF 5
ENDMDL
MODEL 3
REMARK VINA RESULT:      -8.3      4.210      9.710
REMARK  5 active torsions:
REMARK  status: ('A' for Active; 'I' for Inactive)
REMARK    1  A    between atoms: C_2  and  N_3 
REMARK    2  A    between atoms: C_2  and  C_19 
REMARK       I    between atoms: N_3  and  C_4 
REMARK    3  A    between atoms: C_4  and  C_5 
REMARK    4  A    between atoms: C_7  and  O_8 
REMARK    5  A    between atoms: O_8  and  C_9 
ROOT
HETATM    1  C   UNL     1      24.660  48.405  49.342  1.00  0.00     0.146 A 
HETATM    2  O   UNL     1      24.242  47.689  50.435  1.00  0.00    -0.282 OA
HETATM    3  C   UNL     1      25.364  47.278  51.091  1.00  0.00     0.191 A 
HETATM    4  C   UNL     1      26.491  47.758  50.466  1.00  0.00     0.067 A 
HETATM    5  C   UNL     1      26.041  48.453  49.320  1.00  0.00     0.048 A 
ENDROOT
BRANCH   1   6
HETATM    6  C   UNL     1      23.681  48.964  48.432  1.00  0.00     0.276 C 
HETATM    7  N   UNL     1      22.403  48.492  48.621  1.00  0.00    -0.347 N 
HETATM    8  H   UNL     1      22.264  47.798  49.347  1.00  0.00     0.163 HD
HETATM    9  O   UNL     1      23.959  49.798  47.575  1.00  0.00    -0.265 OA
BRANCH   7  10
HETATM   10  C   UNL     1      21.290  48.894  47.785  1.00  0.00     0.114 C 
HETATM   11  C   UNL     1      20.520  47.671  47.287  1.00  0.00     0.037 C 
BRANCH  10  12
HETATM   12  C   UNL     1      20.410  49.879  48.529  1.00  0.00    -0.033 A 
HETATM   13  C   UNL     1      19.628  49.438  49.604  1.00  0.00     0.028 A 
HETATM   14  C   UNL     1      18.822  50.350  50.267  1.00  0.00     0.116 A 
HETATM   15  N   UNL     1      18.736  51.655  49.935  1.00  0.00    -0.273 NA
HETATM   16  C   UNL     1      19.485  52.062  48.890  1.00  0.00     0.116 A 
HETATM   17  C   UNL     1      20.323  51.228  48.166  1.00  0.00     0.028 A 
ENDBRANCH  10  12
ENDBRANCH   7  10
ENDBRANCH   1   6
BRANCH   3  18
HETATM   18  O   UNL     1      25.192  46.576  52.207  1.00  0.00    -0.286 OA
BRANCH  18  19
HETATM   19  C   UNL     1      26.075  46.659  53.261  1.00  0.00     0.100 A 
HETATM   20  C   UNL     1      26.987  45.613  53.445  1.00  0.00     0.068 A 
HETATM   21 CL   UNL     1      27.077  44.291  52.338  1.00  0.00    -0.081 Cl
HETATM   22  C   UNL     1      27.849  45.616  54.545  1.00  0.00     0.026 A 
HETATM   23  C   UNL     1      27.797  46.659  55.471  1.00  0.00     0.002 A 
HETATM   24  C   UNL     1      26.883  47.698  55.298  1.00  0.00     0.003 A 
HETATM   25  C   UNL     1      26.019  47.696  54.201  1.00  0.00     0.039 A 
ENDBRANCH  18  19
ENDBRANCH   3  18
TORSDOF 5
ENDMDL
MODEL 4
REMARK VINA RESULT:      -8.2      4.157      9.654
REMARK  5 active torsions:
REMARK  status: ('A' for Active; 'I' for Inactive)
REMARK    1  A    between atoms: C_2  and  N_3 
REMARK    2  A    between atoms: C_2  and  C_19 
REMARK       I    between atoms: N_3  and  C_4 
REMARK    3  A    between atoms: C_4  and  C_5 
REMARK    4  A    between atoms: C_7  and  O_8 
REMARK    5  A    between atoms: O_8  and  C_9 
ROOT
HETATM    1  C   UNL     1      24.743  48.404  49.405  1.00  0.00     0.146 A 
HETATM    2  O   UNL     1      24.294  47.699  50.494  1.00  0.00    -0.282 OA
HETATM    3  C   UNL     1      25.398  47.263  51.165  1.00  0.00     0.191 A 
HETATM    4  C   UNL     1      26.543  47.715  50.554  1.00  0.00     0.067 A 
HETATM    5  C   UNL     1      26.125  48.420  49.401  1.00  0.00     0.048 A 
ENDROOT
BRANCH   1   6
HETATM    6  C   UNL     1      23.789  48.985  48.483  1.00  0.00     0.276 C 
HETATM    7  N   UNL     1      22.485  48.611  48.712  1.00  0.00    -0.347 N 
HETATM    8  H   UNL     1      22.311  47.965  49.473  1.00  0.00     0.163 HD
HETATM    9  O   UNL     1      24.109  49.754  47.581  1.00  0.00    -0.265 OA
BRANCH   7  10
HETATM   10  C   UNL     1      21.388  49.048  47.872  1.00  0.00     0.114 C 
HETATM   11  C   UNL     1      20.796  47.868  47.101  1.00  0.00     0.037 C 
BRANCH  10  12
HETATM   12  C   UNL     1      20.356  49.782  48.704  1.00  0.00    -0.033 A 
HETATM   13  C   UNL     1      20.251  51.176  48.612  1.00  0.00     0.028 A 
HETATM   14  C   UNL     1      19.308  51.832  49.387  1.00  0.00     0.116 A 
HETATM   15  N   UNL     1      18.475  51.206  50.243  1.00  0.00    -0.273 NA
HETATM   16  C   UNL     1      18.596  49.865  50.332  1.00  0.00     0.116 A 
HETATM   17  C   UNL     1      19.506  49.120  49.597  1.00  0.00     0.028 A 
ENDBRANCH  10  12
ENDBRANCH   7  10
ENDBRANCH   1   6
BRANCH   3  18
HETATM   18  O   UNL     1      25.194  46.567  52.279  1.00  0.00    -0.286 OA
BRANCH  18  19
HETATM   19  C   UNL     1      26.226  45.938  52.940  1.00  0.00     0.100 A 
HETATM   20  C   UNL     1      26.765  46.559  54.073  1.00  0.00     0.068 A 
HETATM   21 CL   UNL     1      26.105  48.029  54.693  1.00  0.00    -0.081 Cl
HETATM   22  C   UNL     1      27.863  45.997  54.729  1.00  0.00     0.026 A 
HETATM   23  C   UNL     1      28.434  44.817  54.250  1.00  0.00     0.002 A 
HETATM   24  C   UNL     1      27.909  44.200  53.116  1.00  0.00     0.003 A 
HETATM   25  C   UNL     1      26.813  44.761  52.457  1.00  0.00     0.039 A 
ENDBRANCH  18  19
ENDBRANCH   3  18
TORSDOF 5
ENDMDL
MODEL 5
REMARK VINA RESULT:      -8.1      2.144      3.113
REMARK  5 active torsions:
REMARK  status: ('A' for Active; 'I' for Inactive)
REMARK    1  A    between atoms: C_2  and  N_3 
REMARK    2  A    between atoms: C_2  and  C_19 
REMARK       I    between atoms: N_3  and  C_4 
REMARK    3  A    between atoms: C_4  and  C_5 
REMARK    4  A    between atoms: C_7  and  O_8 
REMARK    5  A    between atoms: O_8  and  C_9 
ROOT
HETATM    1  C   UNL     1      25.458  46.111  51.321  1.00  0.00     0.146 A 
HETATM    2  O   UNL     1      24.327  46.171  50.546  1.00  0.00    -0.282 OA
HETATM    3  C   UNL     1      24.458  47.262  49.739  1.00  0.00     0.191 A 
HETATM    4  C   UNL     1      25.672  47.873  49.949  1.00  0.00     0.067 A 
HETATM    5  C   UNL     1      26.302  47.155  50.991  1.00  0.00     0.048 A 
ENDROOT
BRANCH   1   6
HETATM    6  C   UNL     1      25.603  45.053  52.300  1.00  0.00     0.276 C 
HETATM    7  N   UNL     1      26.907  44.756  52.620  1.00  0.00    -0.347 N 
HETATM    8  H   UNL     1      27.635  45.275  52.143  1.00  0.00     0.163 HD
HETATM    9  O   UNL     1      24.647  44.477  52.813  1.00  0.00    -0.265 OA
BRANCH   7  10
HETATM   10  C   UNL     1      27.263  43.699  53.545  1.00  0.00     0.114 C 
HETATM   11  C   UNL     1      27.573  42.405  52.792  1.00  0.00     0.037 C 
BRANCH  10  12
HETATM   12  C   UNL     1      28.405  44.148  54.434  1.00  0.00    -0.033 A 
HETATM   13  C   UNL     1      29.534  43.332  54.582  1.00  0.00     0.028 A 
HETATM   14  C   UNL     1      30.565  43.754  55.406  1.00  0.00     0.116 A 
HETATM   15  N   UNL     1      30.550  44.917  56.090  1.00  0.00    -0.273 NA
HETATM   16  C   UNL     1      29.451  45.686  55.949  1.00  0.00     0.116 A 
HETATM   17  C   UNL     1      28.370  45.352  55.147  1.00  0.00     0.028 A 
ENDBRANCH  10  12
ENDBRANCH   7  10
ENDBRANCH   1   6
BRANCH   3  18
HETATM   18  O   UNL     1      23.472  47.503  48.880  1.00  0.00    -0.286 OA
BRANCH  18  19
HETATM   19  C   UNL     1      22.839  48.725  48.827  1.00  0.00     0.100 A 
HETATM   20  C   UNL     1      21.442  48.745  48.748  1.00  0.00     0.068 A 
HETATM   21 CL   UNL     1      20.516  47.288  48.806  1.00  0.00    -0.081 Cl
HETATM   22  C   UNL     1      20.761  49.957  48.613  1.00  0.00     0.026 A 
HETATM   23  C   UNL     1      21.474  51.155  48.547  1.00  0.00     0.002 A 
HETATM   24  C   UNL     1      22.867  51.141  48.613  1.00  0.00     0.003 A 
HETATM   25  C   UNL     1      23.549  49.930  48.746  1.00  0.00     0.039 A 
ENDBRANCH  18  19
ENDBRANCH   3  18
TORSDOF 5
ENDMDL
MODEL 6
REMARK VINA RESULT:      -8.0      3.227      8.962
REMARK  5 active torsions:
REMARK  status: ('A' for Active; 'I' for Inactive)
REMARK    1  A    between atoms: C_2  and  N_3 
REMARK    2  A    between atoms: C_2  and  C_19 
REMARK       I    between atoms: N_3  and  C_4 
REMARK    3  A    between atoms: C_4  and  C_5 
REMARK    4  A    between atoms: C_7  and  O_8 
REMARK    5  A    between atoms: O_8  and  C_9 
ROOT
HETATM    1  C   UNL     1      25.889  46.405  51.856  1.00  0.00     0.146 A 
HETATM    2  O   UNL     1      26.479  45.230  52.249  1.00  0.00    -0.282 OA
HETATM    3  C   UNL     1      26.716  45.336  53.588  1.00  0.00     0.191 A 
HETATM    4  C   UNL     1      26.246  46.536  54.067  1.00  0.00     0.067 A 
HETATM    5  C   UNL     1      25.746  47.240  52.948  1.00  0.00     0.048 A 
ENDROOT
BRANCH   1   6
HETATM    6  C   UNL     1      25.529  46.597  50.466  1.00  0.00     0.276 C 
HETATM    7  N   UNL     1      24.215  46.953  50.268  1.00  0.00    -0.347 N 
HETATM    8  H   UNL     1      23.624  47.030  51.088  1.00  0.00     0.163 HD
HETATM    9  O   UNL     1      26.327  46.468  49.541  1.00  0.00    -0.265 OA
BRANCH   7  10
HETATM   10  C   UNL     1      23.649  47.148  48.949  1.00  0.00     0.114 C 
HETATM   11  C   UNL     1      22.698  46.004  48.596  1.00  0.00     0.037 C 
BRANCH  10  12
HETATM   12  C   UNL     1      22.987  48.509  48.863  1.00  0.00    -0.033 A 
HETATM   13  C   UNL     1      23.746  49.631  48.505  1.00  0.00     0.028 A 
HETATM   14  C   UNL     1      23.126  50.868  48.440  1.00  0.00     0.116 A 
HETATM   15  N   UNL     1      21.819  51.067  48.708  1.00  0.00    -0.273 NA
HETATM   16  C   UNL     1      21.104  49.981  49.064  1.00  0.00     0.116 A 
HETATM   17  C   UNL     1      21.632  48.702  49.156  1.00  0.00     0.028 A 
ENDBRANCH  10  12
ENDBRANCH   7  10
ENDBRANCH   1   6
BRANCH   3  18
HETATM   18  O   UNL     1      27.271  44.289  54.190  1.00  0.00    -0.286 OA
BRANCH  18  19
HETATM   19  C   UNL     1      28.525  44.358  54.757  1.00  0.00     0.100 A 
HETATM   20  C   UNL     1      29.401  43.284  54.561  1.00  0.00     0.068 A 
HETATM   21 CL   UNL     1      28.971  41.941  53.564  1.00  0.00    -0.081 Cl
HETATM   22  C   UNL     1      30.653  43.275  55.181  1.00  0.00     0.026 A 
HETATM   23  C   UNL     1      31.032  44.335  56.006  1.00  0.00     0.002 A 
HETATM   24  C   UNL     1      30.159  45.402  56.214  1.00  0.00     0.003 A 
HETATM   25  C   UNL     1      28.906  45.412  55.597  1.00  0.00     0.039 A 
ENDBRANCH  18  19
ENDBRANCH   3  18
TORSDOF 5
ENDMDL
MODEL 7
REMARK VINA RESULT:      -7.9      3.460      7.664
REMARK  5 active torsions:
REMARK  status: ('A' for Active; 'I' for Inactive)
REMARK    1  A    between atoms: C_2  and  N_3 
REMARK    2  A    between atoms: C_2  and  C_19 
REMARK       I    between atoms: N_3  and  C_4 
REMARK    3  A    between atoms: C_4  and  C_5 
REMARK    4  A    between atoms: C_7  and  O_8 
REMARK    5  A    between atoms: O_8  and  C_9 
ROOT
HETATM    1  C   UNL     1      27.553  42.135  51.123  1.00  0.00     0.146 A 
HETATM    2  O   UNL     1      27.473  42.815  52.313  1.00  0.00    -0.282 OA
HETATM    3  C   UNL     1      28.181  42.094  53.228  1.00  0.00     0.191 A 
HETATM    4  C   UNL     1      28.751  40.991  52.636  1.00  0.00     0.067 A 
HETATM    5  C   UNL     1      28.318  40.996  51.290  1.00  0.00     0.048 A 
ENDROOT
BRANCH   1   6
HETATM    6  C   UNL     1      26.877  42.656  49.952  1.00  0.00     0.276 C 
HETATM    7  N   UNL     1      25.854  43.530  50.235  1.00  0.00    -0.347 N 
HETATM    8  H   UNL     1      25.654  43.715  51.211  1.00  0.00     0.163 HD
HETATM    9  O   UNL     1      27.194  42.356  48.805  1.00  0.00    -0.265 OA
BRANCH   7  10
HETATM   10  C   UNL     1      25.028  44.126  49.204  1.00  0.00     0.114 C 
HETATM   11  C   UNL     1      23.665  43.434  49.138  1.00  0.00     0.037 C 
BRANCH  10  12
HETATM   12  C   UNL     1      24.916  45.621  49.425  1.00  0.00    -0.033 A 
HETATM   13  C   UNL     1      26.040  46.349  49.835  1.00  0.00     0.028 A 
HETATM   14  C   UNL     1      25.918  47.714  50.042  1.00  0.00     0.116 A 
HETATM   15  N   UNL     1      24.767  48.397  49.876  1.00  0.00    -0.273 NA
HETATM   16  C   UNL     1      23.689  47.681  49.493  1.00  0.00     0.116 A 
HETATM   17  C   UNL     1      23.712  46.314  49.260  1.00  0.00     0.028 A 
ENDBRANCH  10  12
ENDBRANCH   7  10
ENDBRANCH   1   6
BRANCH   3  18
HETATM   18  O   UNL     1      28.256  42.586  54.461  1.00  0.00    -0.286 OA
BRANCH  18  19
HETATM   19  C   UNL     1      28.309  43.942  54.699  1.00  0.00     0.100 A 
HETATM   20  C   UNL     1      29.485  44.474  55.240  1.00  0.00     0.068 A 
HETATM   21 CL   UNL     1      30.873  43.487  55.523  1.00  0.00    -0.081 Cl
HETATM   22  C   UNL     1      29.556  45.830  55.571  1.00  0.00     0.026 A 
HETATM   23  C   UNL     1      28.450  46.657  55.372  1.00  0.00     0.002 A 
HETATM   24  C   UNL     1      27.273  46.130  54.843  1.00  0.00     0.003 A 
HETATM   25  C   UNL     1      27.198  44.775  54.514  1.00  0.00     0.039 A 
ENDBRANCH  18  19
ENDBRANCH   3  18
TORSDOF 5
ENDMDL
MODEL 8
REMARK VINA RESULT:      -7.9      2.168      3.268
REMARK  5 active torsions:
REMARK  status: ('A' for Active; 'I' for Inactive)
REMARK    1  A    between atoms: C_2  and  N_3 
REMARK    2  A    between atoms: C_2  and  C_19 
REMARK       I    between atoms: N_3  and  C_4 
REMARK    3  A    between atoms: C_4  and  C_5 
REMARK    4  A    between atoms: C_7  and  O_8 
REMARK    5  A    between atoms: O_8  and  C_9 
ROOT
HETATM    1  C   UNL     1      24.997  46.416  50.786  1.00  0.00     0.146 A 
HETATM    2  O   UNL     1      23.910  46.508  49.953  1.00  0.00    -0.282 OA
HETATM    3  C   UNL     1      24.057  47.661  49.239  1.00  0.00     0.191 A 
HETATM    4  C   UNL     1      25.239  48.282  49.565  1.00  0.00     0.067 A 
HETATM    5  C   UNL     1      25.828  47.502  50.585  1.00  0.00     0.048 A 
ENDROOT
BRANCH   1   6
HETATM    6  C   UNL     1      25.114  45.290  51.690  1.00  0.00     0.276 C 
HETATM    7  N   UNL     1      26.393  45.061  52.142  1.00  0.00    -0.347 N 
HETATM    8  H   UNL     1      27.126  45.672  51.798  1.00  0.00     0.163 HD
HETATM    9  O   UNL     1      24.157  44.604  52.037  1.00  0.00    -0.265 OA
BRANCH   7  10
HETATM   10  C   UNL     1      26.726  43.957  53.018  1.00  0.00     0.114 C 
HETATM   11  C   UNL     1      27.089  42.714  52.204  1.00  0.00     0.037 C 
BRANCH  10  12
HETATM   12  C   UNL     1      27.823  44.368  53.980  1.00  0.00    -0.033 A 
HETATM   13  C   UNL     1      27.795  45.641  54.563  1.00  0.00     0.028 A 
HETATM   14  C   UNL     1      28.811  46.004  55.433  1.00  0.00     0.116 A 
HETATM   15  N   UNL     1      29.844  45.199  55.757  1.00  0.00    -0.273 NA
HETATM   16  C   UNL     1      29.865  43.981  55.178  1.00  0.00     0.116 A 
HETATM   17  C   UNL     1      28.895  43.526  54.297  1.00  0.00     0.028 A 
ENDBRANCH  10  12
ENDBRANCH   7  10
ENDBRANCH   1   6
BRANCH   3  18
HETATM   18  O   UNL     1      23.115  47.943  48.343  1.00  0.00    -0.286 OA
BRANCH  18  19
HETATM   19  C   UNL     1      22.096  48.829  48.617  1.00  0.00     0.100 A 
HETATM   20  C   UNL     1      22.315  50.189  48.368  1.00  0.00     0.068 A 
HETATM   21 CL   UNL     1      23.783  50.748  47.652  1.00  0.00    -0.081 Cl
HETATM   22  C   UNL     1      21.340  51.132  48.703  1.00  0.00     0.026 A 
HETATM   23  C   UNL     1      20.146  50.721  49.298  1.00  0.00     0.002 A 
HETATM   24  C   UNL     1      19.927  49.369  49.559  1.00  0.00     0.003 A 
HETATM   25  C   UNL     1      20.901  48.425  49.227  1.00  0.00     0.039 A 
ENDBRANCH  18  19
ENDBRANCH   3  18
TORSDOF 5
ENDMDL
MODEL 9
REMARK VINA RESULT:      -7.8      3.105      4.956
REMARK  5 active torsions:
REMARK  status: ('A' for Active; 'I' for Inactive)
REMARK    1  A    between atoms: C_2  and  N_3 
REMARK    2  A    between atoms: C_2  and  C_19 
REMARK       I    between atoms: N_3  and  C_4 
REMARK    3  A    between atoms: C_4  and  C_5 
REMARK    4  A    between atoms: C_7  and  O_8 
REMARK    5  A    between atoms: O_8  and  C_9 
ROOT
HETATM    1  C   UNL     1      24.728  47.865  49.541  1.00  0.00     0.146 A 
HETATM    2  O   UNL     1      23.572  48.136  48.854  1.00  0.00    -0.282 OA
HETATM    3  C   UNL     1      23.787  49.290  48.159  1.00  0.00     0.191 A 
HETATM    4  C   UNL     1      25.073  49.736  48.351  1.00  0.00     0.067 A 
HETATM    5  C   UNL     1      25.669  48.839  49.268  1.00  0.00     0.048 A 
ENDROOT
BRANCH   1   6
HETATM    6  C   UNL     1      24.800  46.694  50.391  1.00  0.00     0.276 C 
HETATM    7  N   UNL     1      25.808  46.738  51.326  1.00  0.00    -0.347 N 
HETATM    8  H   UNL     1      26.408  47.554  51.327  1.00  0.00     0.163 HD
HETATM    9  O   UNL     1      24.023  45.748  50.298  1.00  0.00    -0.265 OA
BRANCH   7  10
HETATM   10  C   UNL     1      26.073  45.646  52.241  1.00  0.00     0.114 C 
HETATM   11  C   UNL     1      26.997  44.613  51.594  1.00  0.00     0.037 C 
BRANCH  10  12
HETATM   12  C   UNL     1      26.618  46.183  53.549  1.00  0.00    -0.033 A 
HETATM   13  C   UNL     1      26.136  47.396  54.057  1.00  0.00     0.028 A 
HETATM   14  C   UNL     1      26.652  47.876  55.250  1.00  0.00     0.116 A 
HETATM   15  N   UNL     1      27.608  47.244  55.962  1.00  0.00    -0.273 NA
HETATM   16  C   UNL     1      28.072  46.084  55.454  1.00  0.00     0.116 A 
HETATM   17  C   UNL     1      27.618  45.521  54.271  1.00  0.00     0.028 A 
ENDBRANCH  10  12
ENDBRANCH   7  10
ENDBRANCH   1   6
BRANCH   3  18
HETATM   18  O   UNL     1      22.791  49.733  47.397  1.00  0.00    -0.286 OA
BRANCH  18  19
HETATM   19  C   UNL     1      21.562  50.059  47.927  1.00  0.00     0.100 A 
HETATM   20  C   UNL     1      20.505  49.158  47.755  1.00  0.00     0.068 A 
HETATM   21 CL   UNL     1      20.740  47.633  46.980  1.00  0.00    -0.081 Cl
HETATM   22  C   UNL     1      19.223  49.482  48.206  1.00  0.00     0.026 A 
HETATM   23  C   UNL     1      18.989  50.711  48.823  1.00  0.00     0.002 A 
HETATM   24  C   UNL     1      20.035  51.618  48.988  1.00  0.00     0.003 A 
HETATM   25  C   UNL     1      21.317  51.297  48.536  1.00  0.00     0.039 A 
ENDBRANCH  18  19
ENDBRANCH   3  18
TORSDOF 5
ENDMDL
MODEL 10
REMARK VINA RESULT:      -7.7      3.071      8.420
REMARK  5 active torsions:
REMARK  status: ('A' for Active; 'I' for Inactive)
REMARK    1  A    between atoms: C_2  and  N_3 
REMARK    2  A    between atoms: C_2  and  C_19 
REMARK       I    between atoms: N_3  and  C_4 
REMARK    3  A    between atoms: C_4  and  C_5 
REMARK    4  A    between atoms: C_7  and  O_8 
REMARK    5  A    between atoms: O_8  and  C_9 
ROOT
HETATM    1  C   UNL     1      26.034  44.456  53.110  1.00  0.00     0.146 A 
HETATM    2  O   UNL     1      27.259  45.075  53.106  1.00  0.00    -0.282 OA
HETATM    3  C   UNL     1      27.741  45.006  54.380  1.00  0.00     0.191 A 
HETATM    4  C   UNL     1      26.870  44.314  55.188  1.00  0.00     0.067 A 
HETATM    5  C   UNL     1      25.754  43.991  54.381  1.00  0.00     0.048 A 
ENDROOT
BRANCH   1   6
HETATM    6  C   UNL     1      25.262  44.384  51.886  1.00  0.00     0.276 C 
HETATM    7  N   UNL     1      25.987  44.648  50.747  1.00  0.00    -0.347 N 
HETATM    8  H   UNL     1      26.966  44.882  50.861  1.00  0.00     0.163 HD
HETATM    9  O   UNL     1      24.068  44.099  51.861  1.00  0.00    -0.265 OA
BRANCH   7  10
HETATM   10  C   UNL     1      25.388  44.669  49.428  1.00  0.00     0.114 C 
HETATM   11  C   UNL     1      24.743  43.320  49.107  1.00  0.00     0.037 C 
BRANCH  10  12
HETATM   12  C   UNL     1      24.415  45.825  49.317  1.00  0.00    -0.033 A 
HETATM   13  C   UNL     1      23.166  45.628  48.714  1.00  0.00     0.028 A 
HETATM   14  C   UNL     1      22.292  46.699  48.612  1.00  0.00     0.116 A 
HETATM   15  N   UNL     1      22.572  47.941  49.060  1.00  0.00    -0.273 NA
HETATM   16  C   UNL     1      23.784  48.119  49.626  1.00  0.00     0.116 A 
HETATM   17  C   UNL     1      24.724  47.111  49.775  1.00  0.00     0.028 A 
ENDBRANCH  10  12
ENDBRANCH   7  10
ENDBRANCH   1   6
BRANCH   3  18
HETATM   18  O   UNL     1      28.941  45.532  54.603  1.00  0.00    -0.286 OA
BRANCH  18  19
HETATM   19  C   UNL     1      29.753  45.081  55.621  1.00  0.00     0.100 A 
HETATM   20  C   UNL     1      30.456  43.886  55.428  1.00  0.00     0.068 A 
HETATM   21 CL   UNL     1      30.390  43.035  53.926  1.00  0.00    -0.081 Cl
HETATM   22  C   UNL     1      31.230  43.349  56.460  1.00  0.00     0.026 A 
HETATM   23  C   UNL     1      31.297  43.999  57.693  1.00  0.00     0.002 A 
HETATM   24  C   UNL     1      30.589  45.184  57.895  1.00  0.00     0.003 A 
HETATM   25  C   UNL     1      29.814  45.721  56.865  1.00  0.00     0.039 A 
ENDBRANCH  18  19
ENDBRANCH   3  18
TORSDOF 5
ENDMDL
