MODEL 1
REMARK VINA RESULT:      -8.7      0.000      0.000
REMARK  5 active torsions:
REMARK  status: ('A' for Active; 'I' for Inactive)
REMARK    1  A    between atoms: C_3  and  N_4 
REMARK       I    between atoms: N_4  and  C_5 
REMARK    2  A    between atoms: C_5  and  C_6 
REMARK    3  A    between atoms: C_6  and  C_7 
REMARK    4  A    between atoms: C_16  and  O_17 
REMARK    5  A    between atoms: O_17  and  C_18 
ROOT
HETATM    1  C   UNL     1      28.391  44.357  54.912  1.00  0.00     0.190 A 
HETATM    2  N   UNL     1      28.830  45.384  55.684  1.00  0.00    -0.235 NA
HETATM    3  C   UNL     1      30.101  45.322  56.137  1.00  0.00     0.119 A 
HETATM    4  C   UNL     1      30.959  44.268  55.875  1.00  0.00     0.021 A 
HETATM    5  C   UNL     1      30.485  43.211  55.103  1.00  0.00     0.028 A 
HETATM    6  C   UNL     1      29.177  43.248  54.612  1.00  0.00     0.097 A 
HETATM    7  C   UNL     1      28.671  42.161  53.835  1.00  0.00     0.104 C 
HETATM    8  N   UNL     1      28.286  41.258  53.215  1.00  0.00    -0.191 NA
ENDROOT
BRANCH   1   9
HETATM    9  O   UNL     1      27.089  44.354  54.420  1.00  0.00    -0.291 OA
BRANCH   9  10
HETATM   10  C   UNL     1      26.742  45.164  53.367  1.00  0.00     0.078 A 
HETATM   11  C   UNL     1      26.131  46.368  53.700  1.00  0.00     0.039 A 
HETATM   12  C   UNL     1      25.662  47.216  52.694  1.00  0.00     0.033 A 
HETATM   13  C   UNL     1      25.773  46.871  51.337  1.00  0.00     0.040 A 
HETATM   14  C   UNL     1      26.439  45.680  50.992  1.00  0.00    -0.033 A 
HETATM   15  C   UNL     1      26.790  45.268  49.589  1.00  0.00     0.050 C 
HETATM   16  C   UNL     1      26.865  44.812  52.024  1.00  0.00     0.046 A 
BRANCH  13  17
HETATM   17  N   UNL     1      25.223  47.809  50.431  1.00  0.00    -0.326 N 
HETATM   18  C   UNL     1      24.130  47.630  49.601  1.00  0.00     0.227 C 
HETATM   19  O   UNL     1      23.379  46.657  49.594  1.00  0.00    -0.273 OA
HETATM   20  H   UNL     1      25.467  48.776  50.609  1.00  0.00     0.169 HD
BRANCH  18  21
HETATM   21  C   UNL     1      23.886  48.817  48.666  1.00  0.00     0.159 C 
BRANCH  21  22
HETATM   22  C   UNL     1      22.607  49.529  48.981  1.00  0.00     0.017 A 
HETATM   23  N   UNL     1      21.532  48.891  49.563  1.00  0.00    -0.369 N 
HETATM   24  H   UNL     1      21.531  47.916  49.853  1.00  0.00     0.165 HD
HETATM   25  C   UNL     1      20.496  49.772  49.710  1.00  0.00     0.088 A 
HETATM   26  C   UNL     1      20.897  50.988  49.205  1.00  0.00     0.019 A 
HETATM   27  C   UNL     1      22.226  50.837  48.745  1.00  0.00     0.027 A 
ENDBRANCH  21  22
ENDBRANCH  18  21
ENDBRANCH  13  17
ENDBRANCH   9  10
ENDBRANCH   1   9
TORSDOF 5
ENDMDL
MODEL 2
REMARK VINA RESULT:      -8.3      1.516      1.680
REMARK  5 active torsions:
REMARK  status: ('A' for Active; 'I' for Inactive)
REMARK    1  A    between atoms: C_3  and  N_4 
REMARK       I    between atoms: N_4  and  C_5 
REMARK    2  A    between atoms: C_5  and  C_6 
REMARK    3  A    between atoms: C_6  and  C_7 
REMARK    4  A    between atoms: C_16  and  O_17 
REMARK    5  A    between atoms: O_17  and  C_18 
ROOT
HETATM    1  C   UNL     1      27.823  43.542  53.616  1.00  0.00     0.190 A 
HETATM    2  N   UNL     1      27.713  44.679  54.349  1.00  0.00    -0.235 NA
HETATM    3  C   UNL     1      28.755  45.010  55.142  1.00  0.00     0.119 A 
HETATM    4  C   UNL     1      29.904  44.246  55.259  1.00  0.00     0.021 A 
HETATM    5  C   UNL     1      29.990  43.070  54.520  1.00  0.00     0.028 A 
HETATM    6  C   UNL     1      28.931  42.704  53.682  1.00  0.00     0.097 A 
HETATM    7  C   UNL     1      28.997  41.489  52.932  1.00  0.00     0.104 C 
HETATM    8  N   UNL     1      29.077  40.492  52.343  1.00  0.00    -0.191 NA
ENDROOT
BRANCH   1   9
HETATM    9  O   UNL     1      26.781  43.140  52.784  1.00  0.00    -0.291 OA
BRANCH   9  10
HETATM   10  C   UNL     1      26.181  44.038  51.936  1.00  0.00     0.078 A 
HETATM   11  C   UNL     1      24.795  43.969  51.857  1.00  0.00     0.039 A 
HETATM   12  C   UNL     1      24.104  44.781  50.955  1.00  0.00     0.033 A 
HETATM   13  C   UNL     1      24.783  45.663  50.098  1.00  0.00     0.040 A 
HETATM   14  C   UNL     1      26.181  45.777  50.211  1.00  0.00    -0.033 A 
HETATM   15  C   UNL     1      27.020  46.798  49.493  1.00  0.00     0.050 C 
HETATM   16  C   UNL     1      26.868  44.914  51.096  1.00  0.00     0.046 A 
BRANCH  13  17
HETATM   17  N   UNL     1      23.957  46.396  49.213  1.00  0.00    -0.326 N 
HETATM   18  C   UNL     1      23.592  47.727  49.318  1.00  0.00     0.227 C 
HETATM   19  O   UNL     1      24.019  48.532  50.143  1.00  0.00    -0.273 OA
HETATM   20  H   UNL     1      23.860  46.001  48.285  1.00  0.00     0.169 HD
BRANCH  18  21
HETATM   21  C   UNL     1      22.590  48.161  48.245  1.00  0.00     0.159 C 
BRANCH  21  22
HETATM   22  C   UNL     1      21.870  49.418  48.623  1.00  0.00     0.017 A 
HETATM   23  N   UNL     1      21.439  49.664  49.909  1.00  0.00    -0.369 N 
HETATM   24  H   UNL     1      21.603  49.043  50.697  1.00  0.00     0.165 HD
HETATM   25  C   UNL     1      20.792  50.869  49.958  1.00  0.00     0.088 A 
HETATM   26  C   UNL     1      20.790  51.402  48.689  1.00  0.00     0.019 A 
HETATM   27  C   UNL     1      21.467  50.490  47.846  1.00  0.00     0.027 A 
ENDBRANCH  21  22
ENDBRANCH  18  21
ENDBRANCH  13  17
ENDBRANCH   9  10
ENDBRANCH   1   9
TORSDOF 5
ENDMDL
MODEL 3
REMARK VINA RESULT:      -8.1      1.921      8.951
REMARK  5 active torsions:
REMARK  status: ('A' for Active; 'I' for Inactive)
REMARK    1  A    between atoms: C_3  and  N_4 
REMARK       I    between atoms: N_4  and  C_5 
REMARK    2  A    between atoms: C_5  and  C_6 
REMARK    3  A    between atoms: C_6  and  C_7 
REMARK    4  A    between atoms: C_16  and  O_17 
REMARK    5  A    between atoms: O_17  and  C_18 
ROOT
HETATM    1  C   UNL     1      22.207  48.665  48.585  1.00  0.00     0.190 A 
HETATM    2  N   UNL     1      20.985  48.464  49.141  1.00  0.00    -0.235 NA
HETATM    3  C   UNL     1      20.242  49.556  49.420  1.00  0.00     0.119 A 
HETATM    4  C   UNL     1      20.667  50.854  49.191  1.00  0.00     0.021 A 
HETATM    5  C   UNL     1      21.933  51.043  48.644  1.00  0.00     0.028 A 
HETATM    6  C   UNL     1      22.725  49.933  48.336  1.00  0.00     0.097 A 
HETATM    7  C   UNL     1      24.033  50.113  47.793  1.00  0.00     0.104 C 
HETATM    8  N   UNL     1      25.096  50.293  47.361  1.00  0.00    -0.191 NA
ENDROOT
BRANCH   1   9
HETATM    9  O   UNL     1      23.027  47.582  48.281  1.00  0.00    -0.291 OA
BRANCH   9  10
HETATM   10  C   UNL     1      23.521  46.781  49.281  1.00  0.00     0.078 A 
HETATM   11  C   UNL     1      24.361  47.401  50.199  1.00  0.00     0.039 A 
HETATM   12  C   UNL     1      24.983  46.649  51.198  1.00  0.00     0.033 A 
HETATM   13  C   UNL     1      24.796  45.259  51.289  1.00  0.00     0.040 A 
HETATM   14  C   UNL     1      23.905  44.635  50.396  1.00  0.00    -0.033 A 
HETATM   15  C   UNL     1      23.470  43.198  50.482  1.00  0.00     0.050 C 
HETATM   16  C   UNL     1      23.322  45.404  49.363  1.00  0.00     0.046 A 
BRANCH  13  17
HETATM   17  N   UNL     1      25.516  44.622  52.327  1.00  0.00    -0.326 N 
HETATM   18  C   UNL     1      26.825  44.173  52.287  1.00  0.00     0.227 C 
HETATM   19  O   UNL     1      27.624  44.357  51.371  1.00  0.00    -0.273 OA
HETATM   20  H   UNL     1      25.143  44.762  53.259  1.00  0.00     0.169 HD
BRANCH  18  21
HETATM   21  C   UNL     1      27.241  43.424  53.555  1.00  0.00     0.159 C 
BRANCH  21  22
HETATM   22  C   UNL     1      28.192  44.221  54.393  1.00  0.00     0.017 A 
HETATM   23  N   UNL     1      29.381  43.701  54.858  1.00  0.00    -0.369 N 
HETATM   24  H   UNL     1      29.720  42.766  54.644  1.00  0.00     0.165 HD
HETATM   25  C   UNL     1      30.031  44.637  55.615  1.00  0.00     0.088 A 
HETATM   26  C   UNL     1      29.250  45.769  55.655  1.00  0.00     0.019 A 
HETATM   27  C   UNL     1      28.090  45.509  54.886  1.00  0.00     0.027 A 
ENDBRANCH  21  22
ENDBRANCH  18  21
ENDBRANCH  13  17
ENDBRANCH   9  10
ENDBRANCH   1   9
TORSDOF 5
ENDMDL
MODEL 4
REMARK VINA RESULT:      -8.0      1.548      2.422
REMARK  5 active torsions:
REMARK  status: ('A' for Active; 'I' for Inactive)
REMARK    1  A    between atoms: C_3  and  N_4 
REMARK       I    between atoms: N_4  and  C_5 
REMARK    2  A    between atoms: C_5  and  C_6 
REMARK    3  A    between atoms: C_6  and  C_7 
REMARK    4  A    between atoms: C_16  and  O_17 
REMARK    5  A    between atoms: O_17  and  C_18 
ROOT
HETATM    1  C   UNL     1      27.827  43.833  53.822  1.00  0.00     0.190 A 
HETATM    2  N   UNL     1      28.026  42.840  52.918  1.00  0.00    -0.235 NA
HETATM    3  C   UNL     1      29.263  42.303  52.848  1.00  0.00     0.119 A 
HETATM    4  C   UNL     1      30.329  42.724  53.626  1.00  0.00     0.021 A 
HETATM    5  C   UNL     1      30.114  43.761  54.529  1.00  0.00     0.028 A 
HETATM    6  C   UNL     1      28.842  44.333  54.633  1.00  0.00     0.097 A 
HETATM    7  C   UNL     1      28.612  45.411  55.542  1.00  0.00     0.104 C 
HETATM    8  N   UNL     1      28.459  46.291  56.283  1.00  0.00    -0.191 NA
ENDROOT
BRANCH   1   9
HETATM    9  O   UNL     1      26.577  44.436  53.940  1.00  0.00    -0.291 OA
BRANCH   9  10
HETATM   10  C   UNL     1      25.888  44.833  52.820  1.00  0.00     0.078 A 
HETATM   11  C   UNL     1      26.053  46.161  52.443  1.00  0.00     0.039 A 
HETATM   12  C   UNL     1      25.323  46.680  51.371  1.00  0.00     0.033 A 
HETATM   13  C   UNL     1      24.399  45.890  50.666  1.00  0.00     0.040 A 
HETATM   14  C   UNL     1      24.268  44.531  51.008  1.00  0.00    -0.033 A 
HETATM   15  C   UNL     1      23.458  43.526  50.237  1.00  0.00     0.050 C 
HETATM   16  C   UNL     1      24.980  44.036  52.126  1.00  0.00     0.046 A 
BRANCH  13  17
HETATM   17  N   UNL     1      23.707  46.557  49.628  1.00  0.00    -0.326 N 
HETATM   18  C   UNL     1      23.712  47.914  49.354  1.00  0.00     0.227 C 
HETATM   19  O   UNL     1      24.416  48.759  49.903  1.00  0.00    -0.273 OA
HETATM   20  H   UNL     1      23.416  45.970  48.855  1.00  0.00     0.169 HD
BRANCH  18  21
HETATM   21  C   UNL     1      22.753  48.303  48.226  1.00  0.00     0.159 C 
BRANCH  21  22
HETATM   22  C   UNL     1      21.909  49.485  48.588  1.00  0.00     0.017 A 
HETATM   23  N   UNL     1      21.632  49.821  49.896  1.00  0.00    -0.369 N 
HETATM   24  H   UNL     1      21.999  49.328  50.706  1.00  0.00     0.165 HD
HETATM   25  C   UNL     1      20.820  50.922  49.929  1.00  0.00     0.088 A 
HETATM   26  C   UNL     1      20.556  51.294  48.631  1.00  0.00     0.019 A 
HETATM   27  C   UNL     1      21.240  50.390  47.784  1.00  0.00     0.027 A 
ENDBRANCH  21  22
ENDBRANCH  18  21
ENDBRANCH  13  17
ENDBRANCH   9  10
ENDBRANCH   1   9
TORSDOF 5
ENDMDL
MODEL 5
REMARK VINA RESULT:      -7.7      2.161      9.206
REMARK  5 active torsions:
REMARK  status: ('A' for Active; 'I' for Inactive)
REMARK    1  A    between atoms: C_3  and  N_4 
REMARK       I    between atoms: N_4  and  C_5 
REMARK    2  A    between atoms: C_5  and  C_6 
REMARK    3  A    between atoms: C_6  and  C_7 
REMARK    4  A    between atoms: C_16  and  O_17 
REMARK    5  A    between atoms: O_17  and  C_18 
ROOT
HETATM    1  C   UNL     1      21.289  48.508  48.652  1.00  0.00     0.190 A 
HETATM    2  N   UNL     1      20.191  48.129  49.354  1.00  0.00    -0.235 NA
HETATM    3  C   UNL     1      19.478  49.099  49.966  1.00  0.00     0.119 A 
HETATM    4  C   UNL     1      19.819  50.441  49.931  1.00  0.00     0.021 A 
HETATM    5  C   UNL     1      20.962  50.810  49.227  1.00  0.00     0.028 A 
HETATM    6  C   UNL     1      21.717  49.830  48.575  1.00  0.00     0.097 A 
HETATM    7  C   UNL     1      22.904  50.192  47.866  1.00  0.00     0.104 C 
HETATM    8  N   UNL     1      23.867  50.517  47.306  1.00  0.00    -0.191 NA
ENDROOT
BRANCH   1   9
HETATM    9  O   UNL     1      22.072  47.557  48.005  1.00  0.00    -0.291 OA
BRANCH   9  10
HETATM   10  C   UNL     1      22.959  46.785  48.716  1.00  0.00     0.078 A 
HETATM   11  C   UNL     1      22.807  45.409  48.587  1.00  0.00     0.039 A 
HETATM   12  C   UNL     1      23.603  44.544  49.341  1.00  0.00     0.033 A 
HETATM   13  C   UNL     1      24.552  45.034  50.254  1.00  0.00     0.040 A 
HETATM   14  C   UNL     1      24.749  46.424  50.347  1.00  0.00    -0.033 A 
HETATM   15  C   UNL     1      25.841  47.086  51.141  1.00  0.00     0.050 C 
HETATM   16  C   UNL     1      23.901  47.285  49.612  1.00  0.00     0.046 A 
BRANCH  13  17
HETATM   17  N   UNL     1      25.261  44.043  50.973  1.00  0.00    -0.326 N 
HETATM   18  C   UNL     1      26.491  43.494  50.653  1.00  0.00     0.227 C 
HETATM   19  O   UNL     1      27.231  43.860  49.742  1.00  0.00    -0.273 OA
HETATM   20  H   UNL     1      24.988  43.934  51.943  1.00  0.00     0.169 HD
BRANCH  18  21
HETATM   21  C   UNL     1      26.905  42.359  51.593  1.00  0.00     0.159 C 
BRANCH  21  22
HETATM   22  C   UNL     1      28.043  42.752  52.483  1.00  0.00     0.017 A 
HETATM   23  N   UNL     1      27.961  43.813  53.360  1.00  0.00    -0.369 N 
HETATM   24  H   UNL     1      27.129  44.381  53.498  1.00  0.00     0.165 HD
HETATM   25  C   UNL     1      29.150  43.959  54.021  1.00  0.00     0.088 A 
HETATM   26  C   UNL     1      30.015  42.994  53.559  1.00  0.00     0.019 A 
HETATM   27  C   UNL     1      29.320  42.233  52.589  1.00  0.00     0.027 A 
ENDBRANCH  21  22
ENDBRANCH  18  21
ENDBRANCH  13  17
ENDBRANCH   9  10
ENDBRANCH   1   9
TORSDOF 5
ENDMDL
MODEL 6
REMARK VINA RESULT:      -7.7      2.677      3.708
REMARK  5 active torsions:
REMARK  status: ('A' for Active; 'I' for Inactive)
REMARK    1  A    between atoms: C_3  and  N_4 
REMARK       I    between atoms: N_4  and  C_5 
REMARK    2  A    between atoms: C_5  and  C_6 
REMARK    3  A    between atoms: C_6  and  C_7 
REMARK    4  A    between atoms: C_16  and  O_17 
REMARK    5  A    between atoms: O_17  and  C_18 
ROOT
HETATM    1  C   UNL     1      27.333  43.771  50.751  1.00  0.00     0.190 A 
HETATM    2  N   UNL     1      27.341  44.296  52.003  1.00  0.00    -0.235 NA
HETATM    3  C   UNL     1      27.408  43.431  53.039  1.00  0.00     0.119 A 
HETATM    4  C   UNL     1      27.447  42.055  52.890  1.00  0.00     0.021 A 
HETATM    5  C   UNL     1      27.413  41.533  51.600  1.00  0.00     0.028 A 
HETATM    6  C   UNL     1      27.352  42.401  50.505  1.00  0.00     0.097 A 
HETATM    7  C   UNL     1      27.295  41.878  49.177  1.00  0.00     0.104 C 
HETATM    8  N   UNL     1      27.242  41.422  48.111  1.00  0.00    -0.191 NA
ENDROOT
BRANCH   1   9
HETATM    9  O   UNL     1      27.256  44.606  49.640  1.00  0.00    -0.291 OA
BRANCH   9  10
HETATM   10  C   UNL     1      26.267  45.555  49.549  1.00  0.00     0.078 A 
HETATM   11  C   UNL     1      26.662  46.869  49.775  1.00  0.00     0.039 A 
HETATM   12  C   UNL     1      25.712  47.892  49.793  1.00  0.00     0.033 A 
HETATM   13  C   UNL     1      24.345  47.623  49.608  1.00  0.00     0.040 A 
HETATM   14  C   UNL     1      23.946  46.303  49.325  1.00  0.00    -0.033 A 
HETATM   15  C   UNL     1      22.554  45.893  48.932  1.00  0.00     0.050 C 
HETATM   16  C   UNL     1      24.916  45.274  49.357  1.00  0.00     0.046 A 
BRANCH  13  17
HETATM   17  N   UNL     1      23.494  48.750  49.687  1.00  0.00    -0.326 N 
HETATM   18  C   UNL     1      23.279  49.708  48.710  1.00  0.00     0.227 C 
HETATM   19  O   UNL     1      23.710  49.675  47.559  1.00  0.00    -0.273 OA
HETATM   20  H   UNL     1      22.773  48.698  50.396  1.00  0.00     0.169 HD
BRANCH  18  21
HETATM   21  C   UNL     1      22.383  50.855  49.182  1.00  0.00     0.159 C 
BRANCH  21  22
HETATM   22  C   UNL     1      21.033  50.817  48.536  1.00  0.00     0.017 A 
HETATM   23  N   UNL     1      20.551  49.693  47.899  1.00  0.00    -0.369 N 
HETATM   24  H   UNL     1      21.046  48.806  47.848  1.00  0.00     0.165 HD
HETATM   25  C   UNL     1      19.311  49.950  47.380  1.00  0.00     0.088 A 
HETATM   26  C   UNL     1      18.992  51.257  47.670  1.00  0.00     0.019 A 
HETATM   27  C   UNL     1      20.076  51.805  48.397  1.00  0.00     0.027 A 
ENDBRANCH  21  22
ENDBRANCH  18  21
ENDBRANCH  13  17
ENDBRANCH   9  10
ENDBRANCH   1   9
TORSDOF 5
ENDMDL
MODEL 7
REMARK VINA RESULT:      -7.6      2.054      2.820
REMARK  5 active torsions:
REMARK  status: ('A' for Active; 'I' for Inactive)
REMARK    1  A    between atoms: C_3  and  N_4 
REMARK       I    between atoms: N_4  and  C_5 
REMARK    2  A    between atoms: C_5  and  C_6 
REMARK    3  A    between atoms: C_6  and  C_7 
REMARK    4  A    between atoms: C_16  and  O_17 
REMARK    5  A    between atoms: O_17  and  C_18 
ROOT
HETATM    1  C   UNL     1      27.547  43.113  52.661  1.00  0.00     0.190 A 
HETATM    2  N   UNL     1      28.796  42.860  52.193  1.00  0.00    -0.235 NA
HETATM    3  C   UNL     1      29.832  43.093  53.029  1.00  0.00     0.119 A 
HETATM    4  C   UNL     1      29.686  43.590  54.313  1.00  0.00     0.021 A 
HETATM    5  C   UNL     1      28.400  43.868  54.768  1.00  0.00     0.028 A 
HETATM    6  C   UNL     1      27.305  43.630  53.930  1.00  0.00     0.097 A 
HETATM    7  C   UNL     1      25.982  43.930  54.377  1.00  0.00     0.104 C 
HETATM    8  N   UNL     1      24.920  44.193  54.765  1.00  0.00    -0.191 NA
ENDROOT
BRANCH   1   9
HETATM    9  O   UNL     1      26.437  42.903  51.848  1.00  0.00    -0.291 OA
BRANCH   9  10
HETATM   10  C   UNL     1      25.859  43.951  51.175  1.00  0.00     0.078 A 
HETATM   11  C   UNL     1      24.491  43.850  50.948  1.00  0.00     0.039 A 
HETATM   12  C   UNL     1      23.832  44.823  50.194  1.00  0.00     0.033 A 
HETATM   13  C   UNL     1      24.528  45.907  49.633  1.00  0.00     0.040 A 
HETATM   14  C   UNL     1      25.902  46.045  49.905  1.00  0.00    -0.033 A 
HETATM   15  C   UNL     1      26.737  47.237  49.525  1.00  0.00     0.050 C 
HETATM   16  C   UNL     1      26.561  45.025  50.630  1.00  0.00     0.046 A 
BRANCH  13  17
HETATM   17  N   UNL     1      23.739  46.795  48.865  1.00  0.00    -0.326 N 
HETATM   18  C   UNL     1      23.357  48.083  49.202  1.00  0.00     0.227 C 
HETATM   19  O   UNL     1      23.739  48.716  50.184  1.00  0.00    -0.273 OA
HETATM   20  H   UNL     1      23.689  46.583  47.875  1.00  0.00     0.169 HD
BRANCH  18  21
HETATM   21  C   UNL     1      22.403  48.712  48.184  1.00  0.00     0.159 C 
BRANCH  21  22
HETATM   22  C   UNL     1      20.967  48.496  48.550  1.00  0.00     0.017 A 
HETATM   23  N   UNL     1      20.495  48.694  49.830  1.00  0.00    -0.369 N 
HETATM   24  H   UNL     1      21.061  49.030  50.605  1.00  0.00     0.165 HD
HETATM   25  C   UNL     1      19.160  48.397  49.881  1.00  0.00     0.088 A 
HETATM   26  C   UNL     1      18.767  47.989  48.628  1.00  0.00     0.019 A 
HETATM   27  C   UNL     1      19.904  48.049  47.787  1.00  0.00     0.027 A 
ENDBRANCH  21  22
ENDBRANCH  18  21
ENDBRANCH  13  17
ENDBRANCH   9  10
ENDBRANCH   1   9
TORSDOF 5
ENDMDL
MODEL 8
REMARK VINA RESULT:      -7.5      4.375      7.847
REMARK  5 active torsions:
REMARK  status: ('A' for Active; 'I' for Inactive)
REMARK    1  A    between atoms: C_3  and  N_4 
REMARK       I    between atoms: N_4  and  C_5 
REMARK    2  A    between atoms: C_5  and  C_6 
REMARK    3  A    between atoms: C_6  and  C_7 
REMARK    4  A    between atoms: C_16  and  O_17 
REMARK    5  A    between atoms: O_17  and  C_18 
ROOT
HETATM    1  C   UNL     1      27.094  45.088  54.680  1.00  0.00     0.190 A 
HETATM    2  N   UNL     1      26.002  45.820  54.342  1.00  0.00    -0.235 NA
HETATM    3  C   UNL     1      26.135  47.165  54.334  1.00  0.00     0.119 A 
HETATM    4  C   UNL     1      27.306  47.824  54.667  1.00  0.00     0.021 A 
HETATM    5  C   UNL     1      28.409  47.058  55.035  1.00  0.00     0.028 A 
HETATM    6  C   UNL     1      28.307  45.663  55.047  1.00  0.00     0.097 A 
HETATM    7  C   UNL     1      29.425  44.866  55.441  1.00  0.00     0.104 C 
HETATM    8  N   UNL     1      30.348  44.246  55.776  1.00  0.00    -0.191 NA
ENDROOT
BRANCH   1   9
HETATM    9  O   UNL     1      27.024  43.698  54.716  1.00  0.00    -0.291 OA
BRANCH   9  10
HETATM   10  C   UNL     1      27.340  42.955  53.605  1.00  0.00     0.078 A 
HETATM   11  C   UNL     1      28.081  41.801  53.835  1.00  0.00     0.039 A 
HETATM   12  C   UNL     1      28.526  41.030  52.759  1.00  0.00     0.033 A 
HETATM   13  C   UNL     1      28.260  41.405  51.431  1.00  0.00     0.040 A 
HETATM   14  C   UNL     1      27.464  42.542  51.194  1.00  0.00    -0.033 A 
HETATM   15  C   UNL     1      26.949  42.964  49.846  1.00  0.00     0.050 C 
HETATM   16  C   UNL     1      27.062  43.336  52.294  1.00  0.00     0.046 A 
BRANCH  13  17
HETATM   17  N   UNL     1      28.802  40.550  50.444  1.00  0.00    -0.326 N 
HETATM   18  C   UNL     1      28.157  39.518  49.783  1.00  0.00     0.227 C 
HETATM   19  O   UNL     1      26.961  39.244  49.864  1.00  0.00    -0.273 OA
HETATM   20  H   UNL     1      29.632  40.898  49.979  1.00  0.00     0.169 HD
BRANCH  18  21
HETATM   21  C   UNL     1      29.085  38.722  48.862  1.00  0.00     0.159 C 
BRANCH  21  22
HETATM   22  C   UNL     1      28.444  38.418  47.543  1.00  0.00     0.017 A 
HETATM   23  N   UNL     1      27.770  39.374  46.814  1.00  0.00    -0.369 N 
HETATM   24  H   UNL     1      27.684  40.350  47.086  1.00  0.00     0.165 HD
HETATM   25  C   UNL     1      27.266  38.813  45.672  1.00  0.00     0.088 A 
HETATM   26  C   UNL     1      27.604  37.480  45.668  1.00  0.00     0.019 A 
HETATM   27  C   UNL     1      28.346  37.228  46.847  1.00  0.00     0.027 A 
ENDBRANCH  21  22
ENDBRANCH  18  21
ENDBRANCH  13  17
ENDBRANCH   9  10
ENDBRANCH   1   9
TORSDOF 5
ENDMDL
MODEL 9
REMARK VINA RESULT:      -7.4      2.943      5.131
REMARK  5 active torsions:
REMARK  status: ('A' for Active; 'I' for Inactive)
REMARK    1  A    between atoms: C_3  and  N_4 
REMARK       I    between atoms: N_4  and  C_5 
REMARK    2  A    between atoms: C_5  and  C_6 
REMARK    3  A    between atoms: C_6  and  C_7 
REMARK    4  A    between atoms: C_16  and  O_17 
REMARK    5  A    between atoms: O_17  and  C_18 
ROOT
HETATM    1  C   UNL     1      26.022  46.734  51.272  1.00  0.00     0.190 A 
HETATM    2  N   UNL     1      25.668  47.555  52.294  1.00  0.00    -0.235 NA
HETATM    3  C   UNL     1      25.764  47.064  53.548  1.00  0.00     0.119 A 
HETATM    4  C   UNL     1      26.179  45.776  53.839  1.00  0.00     0.021 A 
HETATM    5  C   UNL     1      26.514  44.938  52.778  1.00  0.00     0.028 A 
HETATM    6  C   UNL     1      26.434  45.419  51.467  1.00  0.00     0.097 A 
HETATM    7  C   UNL     1      26.755  44.565  50.369  1.00  0.00     0.104 C 
HETATM    8  N   UNL     1      27.015  43.843  49.497  1.00  0.00    -0.191 NA
ENDROOT
BRANCH   1   9
HETATM    9  O   UNL     1      25.938  47.176  49.955  1.00  0.00    -0.291 OA
BRANCH   9  10
HETATM   10  C   UNL     1      24.763  47.693  49.468  1.00  0.00     0.078 A 
HETATM   11  C   UNL     1      23.710  46.794  49.338  1.00  0.00     0.039 A 
HETATM   12  C   UNL     1      22.503  47.206  48.768  1.00  0.00     0.033 A 
HETATM   13  C   UNL     1      22.329  48.518  48.296  1.00  0.00     0.040 A 
HETATM   14  C   UNL     1      23.372  49.447  48.474  1.00  0.00    -0.033 A 
HETATM   15  C   UNL     1      23.269  50.919  48.184  1.00  0.00     0.050 C 
HETATM   16  C   UNL     1      24.602  48.999  49.010  1.00  0.00     0.046 A 
BRANCH  13  17
HETATM   17  N   UNL     1      21.069  48.785  47.711  1.00  0.00    -0.326 N 
HETATM   18  C   UNL     1      19.872  49.013  48.368  1.00  0.00     0.227 C 
HETATM   19  O   UNL     1      19.726  49.135  49.583  1.00  0.00    -0.273 OA
HETATM   20  H   UNL     1      21.098  49.117  46.755  1.00  0.00     0.169 HD
BRANCH  18  21
HETATM   21  C   UNL     1      18.682  49.150  47.416  1.00  0.00     0.159 C 
BRANCH  21  22
HETATM   22  C   UNL     1      17.652  50.105  47.936  1.00  0.00     0.017 A 
HETATM   23  N   UNL     1      17.989  51.306  48.521  1.00  0.00    -0.369 N 
HETATM   24  H   UNL     1      18.940  51.653  48.614  1.00  0.00     0.165 HD
HETATM   25  C   UNL     1      16.855  51.958  48.926  1.00  0.00     0.088 A 
HETATM   26  C   UNL     1      15.775  51.165  48.614  1.00  0.00     0.019 A 
HETATM   27  C   UNL     1      16.274  49.997  47.991  1.00  0.00     0.027 A 
ENDBRANCH  21  22
ENDBRANCH  18  21
ENDBRANCH  13  17
ENDBRANCH   9  10
ENDBRANCH   1   9
TORSDOF 5
ENDMDL
MODEL 10
REMARK VINA RESULT:      -7.3     12.956     15.793
REMARK  5 active torsions:
REMARK  status: ('A' for Active; 'I' for Inactive)
REMARK    1  A    between atoms: C_3  and  N_4 
REMARK       I    between atoms: N_4  and  C_5 
REMARK    2  A    between atoms: C_5  and  C_6 
REMARK    3  A    between atoms: C_6  and  C_7 
REMARK    4  A    between atoms: C_16  and  O_17 
REMARK    5  A    between atoms: O_17  and  C_18 
ROOT
HETATM    1  C   UNL     1      30.087  51.542  41.234  1.00  0.00     0.190 A 
HETATM    2  N   UNL     1      29.994  52.896  41.278  1.00  0.00    -0.235 NA
HETATM    3  C   UNL     1      29.475  53.518  40.197  1.00  0.00     0.119 A 
HETATM    4  C   UNL     1      29.060  52.855  39.055  1.00  0.00     0.021 A 
HETATM    5  C   UNL     1      29.187  51.470  39.016  1.00  0.00     0.028 A 
HETATM    6  C   UNL     1      29.712  50.794  40.122  1.00  0.00     0.097 A 
HETATM    7  C   UNL     1      29.866  49.374  40.089  1.00  0.00     0.104 C 
HETATM    8  N   UNL     1      29.987  48.221  40.027  1.00  0.00    -0.191 NA
ENDROOT
BRANCH   1   9
HETATM    9  O   UNL     1      30.620  50.840  42.311  1.00  0.00    -0.291 OA
BRANCH   9  10
HETATM   10  C   UNL     1      31.934  51.011  42.672  1.00  0.00     0.078 A 
HETATM   11  C   UNL     1      32.154  51.678  43.872  1.00  0.00     0.039 A 
HETATM   12  C   UNL     1      33.456  51.979  44.277  1.00  0.00     0.033 A 
HETATM   13  C   UNL     1      34.565  51.639  43.484  1.00  0.00     0.040 A 
HETATM   14  C   UNL     1      34.352  50.915  42.296  1.00  0.00    -0.033 A 
HETATM   15  C   UNL     1      35.442  50.331  41.440  1.00  0.00     0.050 C 
HETATM   16  C   UNL     1      33.025  50.662  41.878  1.00  0.00     0.046 A 
BRANCH  13  17
HETATM   17  N   UNL     1      35.820  52.036  44.002  1.00  0.00    -0.326 N 
HETATM   18  C   UNL     1      36.718  52.923  43.435  1.00  0.00     0.227 C 
HETATM   19  O   UNL     1      36.523  53.606  42.431  1.00  0.00    -0.273 OA
HETATM   20  H   UNL     1      35.945  51.884  44.996  1.00  0.00     0.169 HD
BRANCH  18  21
HETATM   21  C   UNL     1      38.032  53.028  44.213  1.00  0.00     0.159 C 
BRANCH  21  22
HETATM   22  C   UNL     1      38.329  54.436  44.628  1.00  0.00     0.017 A 
HETATM   23  N   UNL     1      38.264  55.494  43.747  1.00  0.00    -0.369 N 
HETATM   24  H   UNL     1      37.980  55.414  42.774  1.00  0.00     0.165 HD
HETATM   25  C   UNL     1      38.611  56.652  44.388  1.00  0.00     0.088 A 
HETATM   26  C   UNL     1      38.918  56.340  45.692  1.00  0.00     0.019 A 
HETATM   27  C   UNL     1      38.742  54.944  45.846  1.00  0.00     0.027 A 
ENDBRANCH  21  22
ENDBRANCH  18  21
ENDBRANCH  13  17
ENDBRANCH   9  10
ENDBRANCH   1   9
TORSDOF 5
ENDMDL
