MODEL 1
REMARK VINA RESULT:      -7.7      0.000      0.000
REMARK  1 active torsions:
REMARK  status: ('A' for Active; 'I' for Inactive)
REMARK    1  A    between atoms: C_8  and  C_9 
ROOT
HETATM    1  C   UNL     1      30.722  47.599  39.242  1.00  0.00     0.073 C 
HETATM    2  C   UNL     1      31.729  48.043  40.245  1.00  0.00     0.062 A 
HETATM    3  N   UNL     1      32.436  47.118  40.897  1.00  0.00    -0.178 NA
HETATM    4  N   UNL     1      33.289  47.829  41.632  1.00  0.00    -0.262 N 
HETATM    5  H   UNL     1      33.962  47.325  42.197  1.00  0.00     0.191 HD
HETATM    6  C   UNL     1      33.126  49.187  41.539  1.00  0.00     0.134 A 
HETATM    7  C   UNL     1      32.091  49.385  40.637  1.00  0.00     0.032 A 
HETATM    8  C   UNL     1      31.534  50.630  40.008  1.00  0.00     0.121 C 
HETATM    9  S   UNL     1      32.320  52.215  40.387  1.00  0.00    -0.140 SA
HETATM   10  C   UNL     1      32.670  52.145  42.165  1.00  0.00     0.136 C 
HETATM   11  C   UNL     1      31.531  51.805  43.110  1.00  0.00     0.031 C 
HETATM   12  C   UNL     1      33.916  51.335  42.469  1.00  0.00     0.236 C 
HETATM   13  O   UNL     1      34.881  51.860  43.039  1.00  0.00    -0.272 OA
HETATM   14  N   UNL     1      33.980  49.994  42.252  1.00  0.00    -0.311 N 
HETATM   15  H   UNL     1      34.816  49.588  42.660  1.00  0.00     0.170 HD
ENDROOT
BRANCH   8  16
HETATM   16  C   UNL     1      30.008  50.669  40.117  1.00  0.00    -0.018 A 
HETATM   17  C   UNL     1      29.223  51.188  39.062  1.00  0.00     0.041 A 
HETATM   18 CL   UNL     1      29.913  51.772  37.583  1.00  0.00    -0.084 Cl
HETATM   19  C   UNL     1      27.825  51.235  39.147  1.00  0.00     0.024 A 
HETATM   20  C   UNL     1      27.173  50.770  40.284  1.00  0.00     0.002 A 
HETATM   21  C   UNL     1      27.917  50.253  41.336  1.00  0.00     0.001 A 
HETATM   22  C   UNL     1      29.312  50.203  41.252  1.00  0.00     0.010 A 
ENDBRANCH   8  16
TORSDOF 1
ENDMDL
MODEL 2
REMARK VINA RESULT:      -7.6      3.951      5.723
REMARK  1 active torsions:
REMARK  status: ('A' for Active; 'I' for Inactive)
REMARK    1  A    between atoms: C_8  and  C_9 
ROOT
HETATM    1  C   UNL     1      30.122  53.588  40.619  1.00  0.00     0.073 C 
HETATM    2  C   UNL     1      28.977  52.654  40.804  1.00  0.00     0.062 A 
HETATM    3  N   UNL     1      27.829  53.134  41.284  1.00  0.00    -0.178 NA
HETATM    4  N   UNL     1      27.005  52.089  41.242  1.00  0.00    -0.262 N 
HETATM    5  H   UNL     1      26.045  52.231  41.534  1.00  0.00     0.191 HD
HETATM    6  C   UNL     1      27.585  50.923  40.815  1.00  0.00     0.134 A 
HETATM    7  C   UNL     1      28.904  51.240  40.521  1.00  0.00     0.032 A 
HETATM    8  C   UNL     1      30.007  50.444  39.886  1.00  0.00     0.121 C 
HETATM    9  S   UNL     1      29.643  48.769  39.309  1.00  0.00    -0.140 SA
HETATM   10  C   UNL     1      28.603  48.048  40.607  1.00  0.00     0.136 C 
HETATM   11  C   UNL     1      29.109  48.087  42.039  1.00  0.00     0.031 C 
HETATM   12  C   UNL     1      27.162  48.509  40.505  1.00  0.00     0.236 C 
HETATM   13  O   UNL     1      26.252  47.688  40.333  1.00  0.00    -0.272 OA
HETATM   14  N   UNL     1      26.797  49.801  40.723  1.00  0.00    -0.311 N 
HETATM   15  H   UNL     1      25.788  49.902  40.778  1.00  0.00     0.170 HD
ENDROOT
BRANCH   8  16
HETATM   16  C   UNL     1      31.297  50.537  40.704  1.00  0.00    -0.018 A 
HETATM   17  C   UNL     1      32.521  50.878  40.085  1.00  0.00     0.041 A 
HETATM   18 CL   UNL     1      32.644  51.245  38.396  1.00  0.00    -0.084 Cl
HETATM   19  C   UNL     1      33.712  50.962  40.819  1.00  0.00     0.024 A 
HETATM   20  C   UNL     1      33.716  50.707  42.186  1.00  0.00     0.002 A 
HETATM   21  C   UNL     1      32.528  50.372  42.823  1.00  0.00     0.001 A 
HETATM   22  C   UNL     1      31.339  50.289  42.093  1.00  0.00     0.010 A 
ENDBRANCH   8  16
TORSDOF 1
ENDMDL
MODEL 3
REMARK VINA RESULT:      -7.4      2.285      2.780
REMARK  1 active torsions:
REMARK  status: ('A' for Active; 'I' for Inactive)
REMARK    1  A    between atoms: C_8  and  C_9 
ROOT
HETATM    1  C   UNL     1      30.399  51.568  37.772  1.00  0.00     0.073 C 
HETATM    2  C   UNL     1      31.621  51.518  38.622  1.00  0.00     0.062 A 
HETATM    3  N   UNL     1      32.808  51.376  38.031  1.00  0.00    -0.178 NA
HETATM    4  N   UNL     1      33.676  51.460  39.038  1.00  0.00    -0.262 N 
HETATM    5  H   UNL     1      34.664  51.412  38.816  1.00  0.00     0.191 HD
HETATM    6  C   UNL     1      33.102  51.585  40.276  1.00  0.00     0.134 A 
HETATM    7  C   UNL     1      31.732  51.617  40.059  1.00  0.00     0.032 A 
HETATM    8  C   UNL     1      30.577  51.876  40.983  1.00  0.00     0.121 C 
HETATM    9  S   UNL     1      30.927  52.288  42.709  1.00  0.00    -0.140 SA
HETATM   10  C   UNL     1      32.271  51.170  43.189  1.00  0.00     0.136 C 
HETATM   11  C   UNL     1      32.084  49.680  42.959  1.00  0.00     0.031 C 
HETATM   12  C   UNL     1      33.620  51.652  42.691  1.00  0.00     0.236 C 
HETATM   13  O   UNL     1      34.527  51.911  43.491  1.00  0.00    -0.272 OA
HETATM   14  N   UNL     1      33.930  51.698  41.368  1.00  0.00    -0.311 N 
HETATM   15  H   UNL     1      34.917  51.884  41.220  1.00  0.00     0.170 HD
ENDROOT
BRANCH   8  16
HETATM   16  C   UNL     1      29.491  50.810  40.821  1.00  0.00    -0.018 A 
HETATM   17  C   UNL     1      28.126  51.141  40.986  1.00  0.00     0.041 A 
HETATM   18 CL   UNL     1      27.590  52.751  41.338  1.00  0.00    -0.084 Cl
HETATM   19  C   UNL     1      27.119  50.176  40.847  1.00  0.00     0.024 A 
HETATM   20  C   UNL     1      27.444  48.858  40.544  1.00  0.00     0.002 A 
HETATM   21  C   UNL     1      28.776  48.504  40.374  1.00  0.00     0.001 A 
HETATM   22  C   UNL     1      29.782  49.465  40.511  1.00  0.00     0.010 A 
ENDBRANCH   8  16
TORSDOF 1
ENDMDL
MODEL 4
REMARK VINA RESULT:      -7.4      3.598      5.572
REMARK  1 active torsions:
REMARK  status: ('A' for Active; 'I' for Inactive)
REMARK    1  A    between atoms: C_8  and  C_9 
ROOT
HETATM    1  C   UNL     1      31.137  54.026  40.697  1.00  0.00     0.073 C 
HETATM    2  C   UNL     1      30.105  52.974  40.487  1.00  0.00     0.062 A 
HETATM    3  N   UNL     1      28.839  53.347  40.291  1.00  0.00    -0.178 NA
HETATM    4  N   UNL     1      28.203  52.202  40.051  1.00  0.00    -0.262 N 
HETATM    5  H   UNL     1      27.214  52.245  39.836  1.00  0.00     0.191 HD
HETATM    6  C   UNL     1      28.990  51.083  40.146  1.00  0.00     0.134 A 
HETATM    7  C   UNL     1      30.265  51.539  40.448  1.00  0.00     0.032 A 
HETATM    8  C   UNL     1      31.586  50.831  40.542  1.00  0.00     0.121 C 
HETATM    9  S   UNL     1      31.649  49.065  40.157  1.00  0.00    -0.140 SA
HETATM   10  C   UNL     1      30.162  48.370  40.927  1.00  0.00     0.136 C 
HETATM   11  C   UNL     1      29.917  48.649  42.401  1.00  0.00     0.031 C 
HETATM   12  C   UNL     1      28.920  48.614  40.092  1.00  0.00     0.236 C 
HETATM   13  O   UNL     1      28.258  47.662  39.662  1.00  0.00    -0.272 OA
HETATM   14  N   UNL     1      28.415  49.861  39.893  1.00  0.00    -0.311 N 
HETATM   15  H   UNL     1      27.499  49.829  39.456  1.00  0.00     0.170 HD
ENDROOT
BRANCH   8  16
HETATM   16  C   UNL     1      32.318  51.197  41.836  1.00  0.00    -0.018 A 
HETATM   17  C   UNL     1      33.726  51.322  41.857  1.00  0.00     0.041 A 
HETATM   18 CL   UNL     1      34.705  51.112  40.442  1.00  0.00    -0.084 Cl
HETATM   19  C   UNL     1      34.412  51.651  43.034  1.00  0.00     0.024 A 
HETATM   20  C   UNL     1      33.715  51.860  44.219  1.00  0.00     0.002 A 
HETATM   21  C   UNL     1      32.331  51.746  44.229  1.00  0.00     0.001 A 
HETATM   22  C   UNL     1      31.645  51.420  43.055  1.00  0.00     0.010 A 
ENDBRANCH   8  16
TORSDOF 1
ENDMDL
MODEL 5
REMARK VINA RESULT:      -6.8     14.257     15.121
REMARK  1 active torsions:
REMARK  status: ('A' for Active; 'I' for Inactive)
REMARK    1  A    between atoms: C_8  and  C_9 
ROOT
HETATM    1  C   UNL     1      19.817  51.577  49.258  1.00  0.00     0.073 C 
HETATM    2  C   UNL     1      20.142  50.126  49.175  1.00  0.00     0.062 A 
HETATM    3  N   UNL     1      21.367  49.723  49.517  1.00  0.00    -0.178 NA
HETATM    4  N   UNL     1      21.304  48.396  49.421  1.00  0.00    -0.262 N 
HETATM    5  H   UNL     1      22.128  47.864  49.672  1.00  0.00     0.191 HD
HETATM    6  C   UNL     1      20.103  47.915  48.967  1.00  0.00     0.134 A 
HETATM    7  C   UNL     1      19.296  49.027  48.774  1.00  0.00     0.032 A 
HETATM    8  C   UNL     1      17.841  49.160  48.428  1.00  0.00     0.121 C 
HETATM    9  S   UNL     1      16.851  47.656  48.260  1.00  0.00    -0.140 SA
HETATM   10  C   UNL     1      17.919  46.496  47.366  1.00  0.00     0.136 C 
HETATM   11  C   UNL     1      18.537  46.951  46.054  1.00  0.00     0.031 C 
HETATM   12  C   UNL     1      18.943  45.846  48.276  1.00  0.00     0.236 C 
HETATM   13  O   UNL     1      18.962  44.617  48.422  1.00  0.00    -0.272 OA
HETATM   14  N   UNL     1      19.948  46.554  48.859  1.00  0.00    -0.311 N 
HETATM   15  H   UNL     1      20.632  45.944  49.296  1.00  0.00     0.170 HD
ENDROOT
BRANCH   8  16
HETATM   16  C   UNL     1      17.635  50.153  47.281  1.00  0.00    -0.018 A 
HETATM   17  C   UNL     1      16.633  51.146  47.358  1.00  0.00     0.041 A 
HETATM   18 CL   UNL     1      15.608  51.335  48.743  1.00  0.00    -0.084 Cl
HETATM   19  C   UNL     1      16.428  52.060  46.315  1.00  0.00     0.024 A 
HETATM   20  C   UNL     1      17.213  52.006  45.168  1.00  0.00     0.002 A 
HETATM   21  C   UNL     1      18.207  51.042  45.064  1.00  0.00     0.001 A 
HETATM   22  C   UNL     1      18.414  50.131  46.104  1.00  0.00     0.010 A 
ENDBRANCH   8  16
TORSDOF 1
ENDMDL
MODEL 6
REMARK VINA RESULT:      -6.8      3.591      5.288
REMARK  1 active torsions:
REMARK  status: ('A' for Active; 'I' for Inactive)
REMARK    1  A    between atoms: C_8  and  C_9 
ROOT
HETATM    1  C   UNL     1      31.949  47.572  40.640  1.00  0.00     0.073 C 
HETATM    2  C   UNL     1      30.530  47.410  40.216  1.00  0.00     0.062 A 
HETATM    3  N   UNL     1      30.138  46.233  39.727  1.00  0.00    -0.178 NA
HETATM    4  N   UNL     1      28.829  46.389  39.535  1.00  0.00    -0.262 N 
HETATM    5  H   UNL     1      28.303  45.594  39.192  1.00  0.00     0.191 HD
HETATM    6  C   UNL     1      28.358  47.645  39.817  1.00  0.00     0.134 A 
HETATM    7  C   UNL     1      29.453  48.370  40.264  1.00  0.00     0.032 A 
HETATM    8  C   UNL     1      29.570  49.747  40.853  1.00  0.00     0.121 C 
HETATM    9  S   UNL     1      28.058  50.701  41.125  1.00  0.00    -0.140 SA
HETATM   10  C   UNL     1      27.050  50.403  39.648  1.00  0.00     0.136 C 
HETATM   11  C   UNL     1      27.675  50.654  38.287  1.00  0.00     0.031 C 
HETATM   12  C   UNL     1      26.339  49.064  39.704  1.00  0.00     0.236 C 
HETATM   13  O   UNL     1      25.103  49.008  39.669  1.00  0.00    -0.272 OA
HETATM   14  N   UNL     1      27.013  47.883  39.665  1.00  0.00    -0.311 N 
HETATM   15  H   UNL     1      26.383  47.096  39.545  1.00  0.00     0.170 HD
ENDROOT
BRANCH   8  16
HETATM   16  C   UNL     1      30.679  50.548  40.168  1.00  0.00    -0.018 A 
HETATM   17  C   UNL     1      31.543  51.375  40.922  1.00  0.00     0.041 A 
HETATM   18 CL   UNL     1      31.438  51.510  42.647  1.00  0.00    -0.084 Cl
HETATM   19  C   UNL     1      32.560  52.120  40.310  1.00  0.00     0.024 A 
HETATM   20  C   UNL     1      32.741  52.063  38.932  1.00  0.00     0.002 A 
HETATM   21  C   UNL     1      31.909  51.259  38.165  1.00  0.00     0.001 A 
HETATM   22  C   UNL     1      30.895  50.514  38.774  1.00  0.00     0.010 A 
ENDBRANCH   8  16
TORSDOF 1
ENDMDL
MODEL 7
REMARK VINA RESULT:      -6.6      3.967      5.592
REMARK  1 active torsions:
REMARK  status: ('A' for Active; 'I' for Inactive)
REMARK    1  A    between atoms: C_8  and  C_9 
ROOT
HETATM    1  C   UNL     1      28.854  52.508  38.060  1.00  0.00     0.073 C 
HETATM    2  C   UNL     1      28.173  51.189  38.185  1.00  0.00     0.062 A 
HETATM    3  N   UNL     1      26.878  51.105  37.876  1.00  0.00    -0.178 NA
HETATM    4  N   UNL     1      26.604  49.808  38.003  1.00  0.00    -0.262 N 
HETATM    5  H   UNL     1      25.666  49.498  37.781  1.00  0.00     0.191 HD
HETATM    6  C   UNL     1      27.654  49.045  38.447  1.00  0.00     0.134 A 
HETATM    7  C   UNL     1      28.722  49.919  38.597  1.00  0.00     0.032 A 
HETATM    8  C   UNL     1      30.171  49.683  38.912  1.00  0.00     0.121 C 
HETATM    9  S   UNL     1      30.749  47.980  39.099  1.00  0.00    -0.140 SA
HETATM   10  C   UNL     1      29.443  47.148  40.041  1.00  0.00     0.136 C 
HETATM   11  C   UNL     1      28.994  47.770  41.352  1.00  0.00     0.031 C 
HETATM   12  C   UNL     1      28.265  46.763  39.166  1.00  0.00     0.236 C 
HETATM   13  O   UNL     1      27.931  45.577  39.051  1.00  0.00    -0.272 OA
HETATM   14  N   UNL     1      27.460  47.692  38.585  1.00  0.00    -0.311 N 
HETATM   15  H   UNL     1      26.633  47.268  38.176  1.00  0.00     0.170 HD
ENDROOT
BRANCH   8  16
HETATM   16  C   UNL     1      30.650  50.612  40.031  1.00  0.00    -0.018 A 
HETATM   17  C   UNL     1      31.840  51.360  39.886  1.00  0.00     0.041 A 
HETATM   18 CL   UNL     1      32.806  51.312  38.448  1.00  0.00    -0.084 Cl
HETATM   19  C   UNL     1      32.296  52.212  40.902  1.00  0.00     0.024 A 
HETATM   20  C   UNL     1      31.581  52.338  42.088  1.00  0.00     0.002 A 
HETATM   21  C   UNL     1      30.406  51.617  42.258  1.00  0.00     0.001 A 
HETATM   22  C   UNL     1      29.949  50.769  41.245  1.00  0.00     0.010 A 
ENDBRANCH   8  16
TORSDOF 1
ENDMDL
MODEL 8
REMARK VINA RESULT:      -6.5      2.679      3.947
REMARK  1 active torsions:
REMARK  status: ('A' for Active; 'I' for Inactive)
REMARK    1  A    between atoms: C_8  and  C_9 
ROOT
HETATM    1  C   UNL     1      28.037  51.606  39.670  1.00  0.00     0.073 C 
HETATM    2  C   UNL     1      29.335  52.107  40.201  1.00  0.00     0.062 A 
HETATM    3  N   UNL     1      29.710  53.353  39.907  1.00  0.00    -0.178 NA
HETATM    4  N   UNL     1      30.840  53.515  40.592  1.00  0.00    -0.262 N 
HETATM    5  H   UNL     1      31.296  54.418  40.546  1.00  0.00     0.191 HD
HETATM    6  C   UNL     1      31.258  52.400  41.273  1.00  0.00     0.134 A 
HETATM    7  C   UNL     1      30.297  51.427  41.036  1.00  0.00     0.032 A 
HETATM    8  C   UNL     1      30.104  50.051  41.605  1.00  0.00     0.121 C 
HETATM    9  S   UNL     1      31.249  49.475  42.882  1.00  0.00    -0.140 SA
HETATM   10  C   UNL     1      32.882  50.034  42.326  1.00  0.00     0.136 C 
HETATM   11  C   UNL     1      33.327  49.669  40.920  1.00  0.00     0.031 C 
HETATM   12  C   UNL     1      33.116  51.501  42.630  1.00  0.00     0.236 C 
HETATM   13  O   UNL     1      34.052  51.848  43.362  1.00  0.00    -0.272 OA
HETATM   14  N   UNL     1      32.407  52.490  42.022  1.00  0.00    -0.311 N 
HETATM   15  H   UNL     1      32.800  53.406  42.214  1.00  0.00     0.170 HD
ENDROOT
BRANCH   8  16
HETATM   16  C   UNL     1      29.867  49.024  40.495  1.00  0.00    -0.018 A 
HETATM   17  C   UNL     1      28.632  48.343  40.395  1.00  0.00     0.041 A 
HETATM   18 CL   UNL     1      27.310  48.642  41.475  1.00  0.00    -0.084 Cl
HETATM   19  C   UNL     1      28.400  47.396  39.388  1.00  0.00     0.024 A 
HETATM   20  C   UNL     1      29.391  47.100  38.459  1.00  0.00     0.002 A 
HETATM   21  C   UNL     1      30.614  47.754  38.530  1.00  0.00     0.001 A 
HETATM   22  C   UNL     1      30.847  48.700  39.533  1.00  0.00     0.010 A 
ENDBRANCH   8  16
TORSDOF 1
ENDMDL
MODEL 9
REMARK VINA RESULT:      -6.5     13.022     14.000
REMARK  1 active torsions:
REMARK  status: ('A' for Active; 'I' for Inactive)
REMARK    1  A    between atoms: C_8  and  C_9 
ROOT
HETATM    1  C   UNL     1      28.598  44.548  53.768  1.00  0.00     0.073 C 
HETATM    2  C   UNL     1      28.713  43.274  53.005  1.00  0.00     0.062 A 
HETATM    3  N   UNL     1      29.839  42.566  53.105  1.00  0.00    -0.178 NA
HETATM    4  N   UNL     1      29.589  41.469  52.393  1.00  0.00    -0.262 N 
HETATM    5  H   UNL     1      30.307  40.755  52.355  1.00  0.00     0.191 HD
HETATM    6  C   UNL     1      28.366  41.458  51.774  1.00  0.00     0.134 A 
HETATM    7  C   UNL     1      27.745  42.645  52.138  1.00  0.00     0.032 A 
HETATM    8  C   UNL     1      26.353  43.158  51.907  1.00  0.00     0.121 C 
HETATM    9  S   UNL     1      25.168  42.091  51.054  1.00  0.00    -0.140 SA
HETATM   10  C   UNL     1      26.116  41.330  49.708  1.00  0.00     0.136 C 
HETATM   11  C   UNL     1      26.883  42.240  48.764  1.00  0.00     0.031 C 
HETATM   12  C   UNL     1      26.968  40.173  50.194  1.00  0.00     0.236 C 
HETATM   13  O   UNL     1      26.796  39.035  49.740  1.00  0.00    -0.272 OA
HETATM   14  N   UNL     1      28.021  40.352  51.035  1.00  0.00    -0.311 N 
HETATM   15  H   UNL     1      28.577  39.507  51.125  1.00  0.00     0.170 HD
ENDROOT
BRANCH   8  16
HETATM   16  C   UNL     1      26.376  44.591  51.369  1.00  0.00    -0.018 A 
HETATM   17  C   UNL     1      25.806  45.649  52.113  1.00  0.00     0.041 A 
HETATM   18 CL   UNL     1      25.089  45.416  53.674  1.00  0.00    -0.084 Cl
HETATM   19  C   UNL     1      25.813  46.966  51.633  1.00  0.00     0.024 A 
HETATM   20  C   UNL     1      26.385  47.263  50.400  1.00  0.00     0.002 A 
HETATM   21  C   UNL     1      26.954  46.244  49.648  1.00  0.00     0.001 A 
HETATM   22  C   UNL     1      26.949  44.930  50.126  1.00  0.00     0.010 A 
ENDBRANCH   8  16
TORSDOF 1
ENDMDL
MODEL 10
REMARK VINA RESULT:      -6.5     13.646     15.376
REMARK  1 active torsions:
REMARK  status: ('A' for Active; 'I' for Inactive)
REMARK    1  A    between atoms: C_8  and  C_9 
ROOT
HETATM    1  C   UNL     1      15.532  48.303  47.590  1.00  0.00     0.073 C 
HETATM    2  C   UNL     1      16.844  47.936  48.191  1.00  0.00     0.062 A 
HETATM    3  N   UNL     1      16.966  46.749  48.788  1.00  0.00    -0.178 NA
HETATM    4  N   UNL     1      18.252  46.695  49.128  1.00  0.00    -0.262 N 
HETATM    5  H   UNL     1      18.589  45.850  49.575  1.00  0.00     0.191 HD
HETATM    6  C   UNL     1      18.967  47.828  48.837  1.00  0.00     0.134 A 
HETATM    7  C   UNL     1      18.073  48.693  48.222  1.00  0.00     0.032 A 
HETATM    8  C   UNL     1      18.267  50.022  47.549  1.00  0.00     0.121 C 
HETATM    9  S   UNL     1      19.945  50.684  47.412  1.00  0.00    -0.140 SA
HETATM   10  C   UNL     1      20.716  50.329  49.014  1.00  0.00     0.136 C 
HETATM   11  C   UNL     1      19.999  50.784  50.274  1.00  0.00     0.031 C 
HETATM   12  C   UNL     1      21.180  48.889  49.117  1.00  0.00     0.236 C 
HETATM   13  O   UNL     1      22.375  48.628  49.305  1.00  0.00    -0.272 OA
HETATM   14  N   UNL     1      20.308  47.846  49.138  1.00  0.00    -0.311 N 
HETATM   15  H   UNL     1      20.771  46.974  49.376  1.00  0.00     0.170 HD
ENDROOT
BRANCH   8  16
HETATM   16  C   UNL     1      17.249  51.049  48.051  1.00  0.00    -0.018 A 
HETATM   17  C   UNL     1      16.455  51.781  47.140  1.00  0.00     0.041 A 
HETATM   18 CL   UNL     1      16.545  51.550  45.425  1.00  0.00    -0.084 Cl
HETATM   19  C   UNL     1      15.521  52.729  47.582  1.00  0.00     0.024 A 
HETATM   20  C   UNL     1      15.357  52.973  48.941  1.00  0.00     0.002 A 
HETATM   21  C   UNL     1      16.122  52.268  49.861  1.00  0.00     0.001 A 
HETATM   22  C   UNL     1      17.052  51.321  49.422  1.00  0.00     0.010 A 
ENDBRANCH   8  16
TORSDOF 1
ENDMDL
