MODEL 1
REMARK VINA RESULT:      -9.1      0.000      0.000
REMARK  5 active torsions:
REMARK  status: ('A' for Active; 'I' for Inactive)
REMARK    1  A    between atoms: C_5  and  N_6 
REMARK    2  A    between atoms: C_9  and  C_10 
REMARK    3  A    between atoms: C_10  and  N_11 
REMARK       I    between atoms: N_11  and  C_12 
REMARK       I    between atoms: C_12  and  N_13 
REMARK    4  A    between atoms: N_13  and  C_14 
REMARK    5  A    between atoms: C_14  and  C_15 
ROOT
HETATM    1  N   UNL     1      25.675  46.222  51.108  1.00  0.00    -0.319 N 
HETATM    2  C   UNL     1      25.987  44.917  50.719  1.00  0.00     0.021 A 
HETATM    3  C   UNL     1      26.082  44.473  49.295  1.00  0.00     0.069 C 
HETATM    4  C   UNL     1      26.267  44.170  51.857  1.00  0.00    -0.016 A 
HETATM    5  C   UNL     1      26.170  45.054  52.959  1.00  0.00     0.035 A 
HETATM    6  C   UNL     1      25.818  46.302  52.491  1.00  0.00     0.014 A 
HETATM    7  C   UNL     1      25.525  47.512  53.312  1.00  0.00     0.068 C 
ENDROOT
BRANCH   4   8
HETATM    8  C   UNL     1      26.658  42.730  51.947  1.00  0.00     0.165 C 
BRANCH   8   9
HETATM    9  N   UNL     1      27.378  42.551  53.185  1.00  0.00    -0.339 N 
HETATM   10  C   UNL     1      28.662  43.005  53.304  1.00  0.00     0.316 C 
HETATM   11  N   UNL     1      29.235  42.548  54.459  1.00  0.00    -0.339 N 
HETATM   12  O   UNL     1      29.235  43.692  52.472  1.00  0.00    -0.247 OA
HETATM   13  H   UNL     1      28.607  42.409  55.236  1.00  0.00     0.164 HD
HETATM   14  H   UNL     1      27.163  41.718  53.712  1.00  0.00     0.164 HD
BRANCH  11  15
HETATM   15  C   UNL     1      30.607  42.861  54.778  1.00  0.00     0.162 C 
BRANCH  15  16
HETATM   16  C   UNL     1      30.668  43.803  55.953  1.00  0.00    -0.040 A 
HETATM   17  C   UNL     1      29.912  44.986  55.945  1.00  0.00     0.009 A 
HETATM   18  C   UNL     1      29.971  45.875  57.018  1.00  0.00     0.001 A 
HETATM   19  C   UNL     1      30.781  45.588  58.115  1.00  0.00     0.000 A 
HETATM   20  C   UNL     1      31.531  44.412  58.137  1.00  0.00     0.001 A 
HETATM   21  C   UNL     1      31.475  43.523  57.062  1.00  0.00     0.009 A 
ENDBRANCH  15  16
ENDBRANCH  11  15
ENDBRANCH   8   9
ENDBRANCH   4   8
BRANCH   1  22
HETATM   22  C   UNL     1      25.267  47.281  50.245  1.00  0.00     0.039 A 
HETATM   23  C   UNL     1      23.914  47.440  49.925  1.00  0.00     0.030 A 
HETATM   24  C   UNL     1      23.508  48.491  49.098  1.00  0.00     0.009 A 
HETATM   25  C   UNL     1      24.448  49.383  48.569  1.00  0.00    -0.062 A 
HETATM   26  C   UNL     1      24.007  50.535  47.715  1.00  0.00     0.048 C 
HETATM   27  C   UNL     1      25.799  49.223  48.897  1.00  0.00     0.009 A 
HETATM   28  C   UNL     1      26.210  48.176  49.728  1.00  0.00     0.030 A 
ENDBRANCH   1  22
TORSDOF 5
ENDMDL
MODEL 2
REMARK VINA RESULT:      -9.1      2.883      9.553
REMARK  5 active torsions:
REMARK  status: ('A' for Active; 'I' for Inactive)
REMARK    1  A    between atoms: C_5  and  N_6 
REMARK    2  A    between atoms: C_9  and  C_10 
REMARK    3  A    between atoms: C_10  and  N_11 
REMARK       I    between atoms: N_11  and  C_12 
REMARK       I    between atoms: C_12  and  N_13 
REMARK    4  A    between atoms: N_13  and  C_14 
REMARK    5  A    between atoms: C_14  and  C_15 
ROOT
HETATM    1  N   UNL     1      27.347  45.753  53.782  1.00  0.00    -0.319 N 
HETATM    2  C   UNL     1      26.846  45.261  52.575  1.00  0.00     0.021 A 
HETATM    3  C   UNL     1      27.301  43.983  51.944  1.00  0.00     0.069 C 
HETATM    4  C   UNL     1      25.829  46.101  52.139  1.00  0.00    -0.016 A 
HETATM    5  C   UNL     1      25.675  47.101  53.130  1.00  0.00     0.035 A 
HETATM    6  C   UNL     1      26.598  46.874  54.130  1.00  0.00     0.014 A 
HETATM    7  C   UNL     1      26.846  47.731  55.325  1.00  0.00     0.068 C 
ENDROOT
BRANCH   4   8
HETATM    8  C   UNL     1      24.990  45.981  50.908  1.00  0.00     0.165 C 
BRANCH   8   9
HETATM    9  N   UNL     1      24.266  47.220  50.752  1.00  0.00    -0.339 N 
HETATM   10  C   UNL     1      23.539  47.451  49.618  1.00  0.00     0.316 C 
HETATM   11  N   UNL     1      23.118  48.751  49.567  1.00  0.00    -0.339 N 
HETATM   12  O   UNL     1      23.330  46.621  48.746  1.00  0.00    -0.247 OA
HETATM   13  H   UNL     1      22.936  49.190  50.457  1.00  0.00     0.164 HD
HETATM   14  H   UNL     1      24.680  48.037  51.175  1.00  0.00     0.164 HD
BRANCH  11  15
HETATM   15  C   UNL     1      22.369  49.242  48.434  1.00  0.00     0.162 C 
BRANCH  15  16
HETATM   16  C   UNL     1      21.133  49.967  48.901  1.00  0.00    -0.040 A 
HETATM   17  C   UNL     1      20.867  51.269  48.446  1.00  0.00     0.009 A 
HETATM   18  C   UNL     1      19.735  51.957  48.883  1.00  0.00     0.001 A 
HETATM   19  C   UNL     1      18.852  51.350  49.774  1.00  0.00     0.000 A 
HETATM   20  C   UNL     1      19.103  50.055  50.228  1.00  0.00     0.001 A 
HETATM   21  C   UNL     1      20.237  49.366  49.794  1.00  0.00     0.009 A 
ENDBRANCH  15  16
ENDBRANCH  11  15
ENDBRANCH   8   9
ENDBRANCH   4   8
BRANCH   1  22
HETATM   22  C   UNL     1      28.441  45.214  54.520  1.00  0.00     0.039 A 
HETATM   23  C   UNL     1      29.119  46.012  55.449  1.00  0.00     0.030 A 
HETATM   24  C   UNL     1      30.176  45.480  56.191  1.00  0.00     0.009 A 
HETATM   25  C   UNL     1      30.580  44.153  56.003  1.00  0.00    -0.062 A 
HETATM   26  C   UNL     1      31.688  43.570  56.829  1.00  0.00     0.048 C 
HETATM   27  C   UNL     1      29.895  43.358  55.077  1.00  0.00     0.009 A 
HETATM   28  C   UNL     1      28.833  43.884  54.336  1.00  0.00     0.030 A 
ENDBRANCH   1  22
TORSDOF 5
ENDMDL
MODEL 3
REMARK VINA RESULT:      -9.0      3.852     10.153
REMARK  5 active torsions:
REMARK  status: ('A' for Active; 'I' for Inactive)
REMARK    1  A    between atoms: C_5  and  N_6 
REMARK    2  A    between atoms: C_9  and  C_10 
REMARK    3  A    between atoms: C_10  and  N_11 
REMARK       I    between atoms: N_11  and  C_12 
REMARK       I    between atoms: C_12  and  N_13 
REMARK    4  A    between atoms: N_13  and  C_14 
REMARK    5  A    between atoms: C_14  and  C_15 
ROOT
HETATM    1  N   UNL     1      25.864  44.968  51.232  1.00  0.00    -0.319 N 
HETATM    2  C   UNL     1      25.679  46.296  50.840  1.00  0.00     0.021 A 
HETATM    3  C   UNL     1      26.610  47.408  51.203  1.00  0.00     0.069 C 
HETATM    4  C   UNL     1      24.566  46.364  50.011  1.00  0.00    -0.016 A 
HETATM    5  C   UNL     1      24.091  45.039  49.858  1.00  0.00     0.035 A 
HETATM    6  C   UNL     1      24.894  44.196  50.597  1.00  0.00     0.014 A 
HETATM    7  C   UNL     1      24.706  42.730  50.791  1.00  0.00     0.068 C 
ENDROOT
BRANCH   4   8
HETATM    8  C   UNL     1      23.982  47.566  49.340  1.00  0.00     0.165 C 
BRANCH   8   9
HETATM    9  N   UNL     1      22.562  47.565  49.604  1.00  0.00    -0.339 N 
HETATM   10  C   UNL     1      21.683  47.945  48.630  1.00  0.00     0.316 C 
HETATM   11  N   UNL     1      20.423  48.088  49.140  1.00  0.00    -0.339 N 
HETATM   12  O   UNL     1      21.989  48.169  47.468  1.00  0.00    -0.247 OA
HETATM   13  H   UNL     1      20.188  47.479  49.910  1.00  0.00     0.164 HD
HETATM   14  H   UNL     1      22.282  47.783  50.549  1.00  0.00     0.164 HD
BRANCH  11  15
HETATM   15  C   UNL     1      19.331  48.529  48.305  1.00  0.00     0.162 C 
BRANCH  15  16
HETATM   16  C   UNL     1      18.956  49.949  48.644  1.00  0.00    -0.040 A 
HETATM   17  C   UNL     1      17.908  50.204  49.542  1.00  0.00     0.009 A 
HETATM   18  C   UNL     1      17.540  51.513  49.852  1.00  0.00     0.001 A 
HETATM   19  C   UNL     1      18.220  52.582  49.273  1.00  0.00     0.000 A 
HETATM   20  C   UNL     1      19.268  52.341  48.384  1.00  0.00     0.001 A 
HETATM   21  C   UNL     1      19.635  51.032  48.070  1.00  0.00     0.009 A 
ENDBRANCH  15  16
ENDBRANCH  11  15
ENDBRANCH   8   9
ENDBRANCH   4   8
BRANCH   1  22
HETATM   22  C   UNL     1      26.858  44.489  52.134  1.00  0.00     0.039 A 
HETATM   23  C   UNL     1      28.020  43.887  51.638  1.00  0.00     0.030 A 
HETATM   24  C   UNL     1      29.008  43.438  52.519  1.00  0.00     0.009 A 
HETATM   25  C   UNL     1      28.840  43.569  53.902  1.00  0.00    -0.062 A 
HETATM   26  C   UNL     1      29.918  43.124  54.844  1.00  0.00     0.048 C 
HETATM   27  C   UNL     1      27.678  44.177  54.392  1.00  0.00     0.009 A 
HETATM   28  C   UNL     1      26.690  44.633  53.515  1.00  0.00     0.030 A 
ENDBRANCH   1  22
TORSDOF 5
ENDMDL
MODEL 4
REMARK VINA RESULT:      -8.7      3.535      9.445
REMARK  5 active torsions:
REMARK  status: ('A' for Active; 'I' for Inactive)
REMARK    1  A    between atoms: C_5  and  N_6 
REMARK    2  A    between atoms: C_9  and  C_10 
REMARK    3  A    between atoms: C_10  and  N_11 
REMARK       I    between atoms: N_11  and  C_12 
REMARK       I    between atoms: C_12  and  N_13 
REMARK    4  A    between atoms: N_13  and  C_14 
REMARK    5  A    between atoms: C_14  and  C_15 
ROOT
HETATM    1  N   UNL     1      25.644  44.760  51.378  1.00  0.00    -0.319 N 
HETATM    2  C   UNL     1      24.767  43.918  50.690  1.00  0.00     0.021 A 
HETATM    3  C   UNL     1      24.735  42.433  50.860  1.00  0.00     0.069 C 
HETATM    4  C   UNL     1      23.912  44.699  49.922  1.00  0.00    -0.016 A 
HETATM    5  C   UNL     1      24.246  46.049  50.187  1.00  0.00     0.035 A 
HETATM    6  C   UNL     1      25.295  46.075  51.081  1.00  0.00     0.014 A 
HETATM    7  C   UNL     1      26.020  47.283  51.570  1.00  0.00     0.068 C 
ENDROOT
BRANCH   4   8
HETATM    8  C   UNL     1      22.803  44.251  49.026  1.00  0.00     0.165 C 
BRANCH   8   9
HETATM    9  N   UNL     1      21.595  44.908  49.467  1.00  0.00    -0.339 N 
HETATM   10  C   UNL     1      20.877  45.679  48.596  1.00  0.00     0.316 C 
HETATM   11  N   UNL     1      19.907  46.383  49.255  1.00  0.00    -0.339 N 
HETATM   12  O   UNL     1      21.097  45.762  47.397  1.00  0.00    -0.247 OA
HETATM   13  H   UNL     1      19.518  45.937  50.072  1.00  0.00     0.164 HD
HETATM   14  H   UNL     1      21.575  45.209  50.429  1.00  0.00     0.164 HD
BRANCH  11  15
HETATM   15  C   UNL     1      19.050  47.303  48.547  1.00  0.00     0.162 C 
BRANCH  15  16
HETATM   16  C   UNL     1      19.552  48.715  48.710  1.00  0.00    -0.040 A 
HETATM   17  C   UNL     1      19.474  49.348  49.961  1.00  0.00     0.009 A 
HETATM   18  C   UNL     1      19.920  50.660  50.122  1.00  0.00     0.001 A 
HETATM   19  C   UNL     1      20.456  51.351  49.037  1.00  0.00     0.000 A 
HETATM   20  C   UNL     1      20.545  50.729  47.792  1.00  0.00     0.001 A 
HETATM   21  C   UNL     1      20.096  49.418  47.628  1.00  0.00     0.009 A 
ENDBRANCH  15  16
ENDBRANCH  11  15
ENDBRANCH   8   9
ENDBRANCH   4   8
BRANCH   1  22
HETATM   22  C   UNL     1      26.716  44.348  52.222  1.00  0.00     0.039 A 
HETATM   23  C   UNL     1      26.537  44.304  53.609  1.00  0.00     0.030 A 
HETATM   24  C   UNL     1      27.578  43.877  54.437  1.00  0.00     0.009 A 
HETATM   25  C   UNL     1      28.814  43.507  53.893  1.00  0.00    -0.062 A 
HETATM   26  C   UNL     1      29.917  43.009  54.779  1.00  0.00     0.048 C 
HETATM   27  C   UNL     1      28.986  43.547  52.505  1.00  0.00     0.009 A 
HETATM   28  C   UNL     1      27.945  43.968  51.671  1.00  0.00     0.030 A 
ENDBRANCH   1  22
TORSDOF 5
ENDMDL
MODEL 5
REMARK VINA RESULT:      -8.6      3.529      5.737
REMARK  5 active torsions:
REMARK  status: ('A' for Active; 'I' for Inactive)
REMARK    1  A    between atoms: C_5  and  N_6 
REMARK    2  A    between atoms: C_9  and  C_10 
REMARK    3  A    between atoms: C_10  and  N_11 
REMARK       I    between atoms: N_11  and  C_12 
REMARK       I    between atoms: C_12  and  N_13 
REMARK    4  A    between atoms: N_13  and  C_14 
REMARK    5  A    between atoms: C_14  and  C_15 
ROOT
HETATM    1  N   UNL     1      21.559  49.414  48.737  1.00  0.00    -0.319 N 
HETATM    2  C   UNL     1      21.493  48.023  48.851  1.00  0.00     0.021 A 
HETATM    3  C   UNL     1      20.214  47.251  48.895  1.00  0.00     0.069 C 
HETATM    4  C   UNL     1      22.786  47.514  48.827  1.00  0.00    -0.016 A 
HETATM    5  C   UNL     1      23.654  48.617  48.645  1.00  0.00     0.035 A 
HETATM    6  C   UNL     1      22.897  49.767  48.582  1.00  0.00     0.014 A 
HETATM    7  C   UNL     1      23.406  51.166  48.482  1.00  0.00     0.068 C 
ENDROOT
BRANCH   4   8
HETATM    8  C   UNL     1      23.221  46.086  48.911  1.00  0.00     0.165 C 
BRANCH   8   9
HETATM    9  N   UNL     1      24.372  46.033  49.782  1.00  0.00    -0.339 N 
HETATM   10  C   UNL     1      24.397  45.157  50.831  1.00  0.00     0.316 C 
HETATM   11  N   UNL     1      25.460  45.414  51.653  1.00  0.00    -0.339 N 
HETATM   12  O   UNL     1      23.561  44.290  51.033  1.00  0.00    -0.247 OA
HETATM   13  H   UNL     1      26.283  45.787  51.204  1.00  0.00     0.164 HD
HETATM   14  H   UNL     1      24.862  46.902  49.931  1.00  0.00     0.164 HD
BRANCH  11  15
HETATM   15  C   UNL     1      25.667  44.645  52.857  1.00  0.00     0.162 C 
BRANCH  15  16
HETATM   16  C   UNL     1      26.724  45.293  53.714  1.00  0.00    -0.040 A 
HETATM   17  C   UNL     1      26.650  46.664  54.005  1.00  0.00     0.009 A 
HETATM   18  C   UNL     1      27.630  47.280  54.784  1.00  0.00     0.001 A 
HETATM   19  C   UNL     1      28.691  46.530  55.287  1.00  0.00     0.000 A 
HETATM   20  C   UNL     1      28.771  45.165  55.010  1.00  0.00     0.001 A 
HETATM   21  C   UNL     1      27.793  44.549  54.228  1.00  0.00     0.009 A 
ENDBRANCH  15  16
ENDBRANCH  11  15
ENDBRANCH   8   9
ENDBRANCH   4   8
BRANCH   1  22
HETATM   22  C   UNL     1      20.454  50.314  48.785  1.00  0.00     0.039 A 
HETATM   23  C   UNL     1      19.806  50.688  47.603  1.00  0.00     0.030 A 
HETATM   24  C   UNL     1      18.707  51.551  47.649  1.00  0.00     0.009 A 
HETATM   25  C   UNL     1      18.256  52.063  48.871  1.00  0.00    -0.062 A 
HETATM   26  C   UNL     1      17.052  52.956  48.924  1.00  0.00     0.048 C 
HETATM   27  C   UNL     1      18.905  51.680  50.051  1.00  0.00     0.009 A 
HETATM   28  C   UNL     1      20.000  50.812  50.011  1.00  0.00     0.030 A 
ENDBRANCH   1  22
TORSDOF 5
ENDMDL
MODEL 6
REMARK VINA RESULT:      -8.6      3.949      6.513
REMARK  5 active torsions:
REMARK  status: ('A' for Active; 'I' for Inactive)
REMARK    1  A    between atoms: C_5  and  N_6 
REMARK    2  A    between atoms: C_9  and  C_10 
REMARK    3  A    between atoms: C_10  and  N_11 
REMARK       I    between atoms: N_11  and  C_12 
REMARK       I    between atoms: C_12  and  N_13 
REMARK    4  A    between atoms: N_13  and  C_14 
REMARK    5  A    between atoms: C_14  and  C_15 
ROOT
HETATM    1  N   UNL     1      20.681  49.610  48.761  1.00  0.00    -0.319 N 
HETATM    2  C   UNL     1      21.989  49.734  49.236  1.00  0.00     0.021 A 
HETATM    3  C   UNL     1      22.436  50.811  50.172  1.00  0.00     0.069 C 
HETATM    4  C   UNL     1      22.737  48.663  48.763  1.00  0.00    -0.016 A 
HETATM    5  C   UNL     1      21.850  47.843  48.024  1.00  0.00     0.035 A 
HETATM    6  C   UNL     1      20.600  48.424  48.037  1.00  0.00     0.014 A 
HETATM    7  C   UNL     1      19.387  47.945  47.313  1.00  0.00     0.068 C 
ENDROOT
BRANCH   4   8
HETATM    8  C   UNL     1      24.179  48.359  49.010  1.00  0.00     0.165 C 
BRANCH   8   9
HETATM    9  N   UNL     1      24.282  47.778  50.328  1.00  0.00    -0.339 N 
HETATM   10  C   UNL     1      25.241  46.841  50.591  1.00  0.00     0.316 C 
HETATM   11  N   UNL     1      25.032  46.261  51.812  1.00  0.00    -0.339 N 
HETATM   12  O   UNL     1      26.140  46.532  49.823  1.00  0.00    -0.247 OA
HETATM   13  H   UNL     1      24.606  46.849  52.512  1.00  0.00     0.164 HD
HETATM   14  H   UNL     1      23.418  47.668  50.838  1.00  0.00     0.164 HD
BRANCH  11  15
HETATM   15  C   UNL     1      25.895  45.205  52.287  1.00  0.00     0.162 C 
BRANCH  15  16
HETATM   16  C   UNL     1      26.794  45.720  53.382  1.00  0.00    -0.040 A 
HETATM   17  C   UNL     1      27.753  44.874  53.960  1.00  0.00     0.009 A 
HETATM   18  C   UNL     1      28.581  45.332  54.985  1.00  0.00     0.001 A 
HETATM   19  C   UNL     1      28.464  46.645  55.439  1.00  0.00     0.000 A 
HETATM   20  C   UNL     1      27.519  47.497  54.867  1.00  0.00     0.001 A 
HETATM   21  C   UNL     1      26.688  47.038  53.844  1.00  0.00     0.009 A 
ENDBRANCH  15  16
ENDBRANCH  11  15
ENDBRANCH   8   9
ENDBRANCH   4   8
BRANCH   1  22
HETATM   22  C   UNL     1      19.621  50.540  48.968  1.00  0.00     0.039 A 
HETATM   23  C   UNL     1      19.595  51.741  48.250  1.00  0.00     0.030 A 
HETATM   24  C   UNL     1      18.544  52.644  48.432  1.00  0.00     0.009 A 
HETATM   25  C   UNL     1      17.519  52.368  49.344  1.00  0.00    -0.062 A 
HETATM   26  C   UNL     1      16.371  53.318  49.509  1.00  0.00     0.048 C 
HETATM   27  C   UNL     1      17.546  51.162  50.055  1.00  0.00     0.009 A 
HETATM   28  C   UNL     1      18.593  50.253  49.871  1.00  0.00     0.030 A 
ENDBRANCH   1  22
TORSDOF 5
ENDMDL
MODEL 7
REMARK VINA RESULT:      -8.5      2.618      4.488
REMARK  5 active torsions:
REMARK  status: ('A' for Active; 'I' for Inactive)
REMARK    1  A    between atoms: C_5  and  N_6 
REMARK    2  A    between atoms: C_9  and  C_10 
REMARK    3  A    between atoms: C_10  and  N_11 
REMARK       I    between atoms: N_11  and  C_12 
REMARK       I    between atoms: C_12  and  N_13 
REMARK    4  A    between atoms: N_13  and  C_14 
REMARK    5  A    between atoms: C_14  and  C_15 
ROOT
HETATM    1  N   UNL     1      22.930  48.609  48.889  1.00  0.00    -0.319 N 
HETATM    2  C   UNL     1      22.743  47.239  49.086  1.00  0.00     0.021 A 
HETATM    3  C   UNL     1      21.414  46.560  49.000  1.00  0.00     0.069 C 
HETATM    4  C   UNL     1      23.984  46.644  49.280  1.00  0.00    -0.016 A 
HETATM    5  C   UNL     1      24.951  47.669  49.149  1.00  0.00     0.035 A 
HETATM    6  C   UNL     1      24.300  48.860  48.903  1.00  0.00     0.014 A 
HETATM    7  C   UNL     1      24.923  50.209  48.782  1.00  0.00     0.068 C 
ENDROOT
BRANCH   4   8
HETATM    8  C   UNL     1      24.292  45.201  49.520  1.00  0.00     0.165 C 
BRANCH   8   9
HETATM    9  N   UNL     1      25.456  45.141  50.373  1.00  0.00    -0.339 N 
HETATM   10  C   UNL     1      25.314  44.887  51.708  1.00  0.00     0.316 C 
HETATM   11  N   UNL     1      26.494  45.090  52.370  1.00  0.00    -0.339 N 
HETATM   12  O   UNL     1      24.266  44.563  52.246  1.00  0.00    -0.247 OA
HETATM   13  H   UNL     1      27.332  44.902  51.842  1.00  0.00     0.164 HD
HETATM   14  H   UNL     1      26.224  45.748  50.127  1.00  0.00     0.164 HD
BRANCH  11  15
HETATM   15  C   UNL     1      26.576  44.928  53.802  1.00  0.00     0.162 C 
BRANCH  15  16
HETATM   16  C   UNL     1      27.921  44.366  54.186  1.00  0.00    -0.040 A 
HETATM   17  C   UNL     1      28.717  45.032  55.131  1.00  0.00     0.009 A 
HETATM   18  C   UNL     1      29.971  44.532  55.484  1.00  0.00     0.001 A 
HETATM   19  C   UNL     1      30.440  43.357  54.901  1.00  0.00     0.000 A 
HETATM   20  C   UNL     1      29.655  42.682  53.966  1.00  0.00     0.001 A 
HETATM   21  C   UNL     1      28.402  43.184  53.610  1.00  0.00     0.009 A 
ENDBRANCH  15  16
ENDBRANCH  11  15
ENDBRANCH   8   9
ENDBRANCH   4   8
BRANCH   1  22
HETATM   22  C   UNL     1      21.902  49.582  48.721  1.00  0.00     0.039 A 
HETATM   23  C   UNL     1      21.286  49.739  47.474  1.00  0.00     0.030 A 
HETATM   24  C   UNL     1      20.261  50.674  47.311  1.00  0.00     0.009 A 
HETATM   25  C   UNL     1      19.852  51.475  48.384  1.00  0.00    -0.062 A 
HETATM   26  C   UNL     1      18.724  52.449  48.219  1.00  0.00     0.048 C 
HETATM   27  C   UNL     1      20.467  51.310  49.630  1.00  0.00     0.009 A 
HETATM   28  C   UNL     1      21.489  50.370  49.800  1.00  0.00     0.030 A 
ENDBRANCH   1  22
TORSDOF 5
ENDMDL
MODEL 8
REMARK VINA RESULT:      -8.3      4.272     10.366
REMARK  5 active torsions:
REMARK  status: ('A' for Active; 'I' for Inactive)
REMARK    1  A    between atoms: C_5  and  N_6 
REMARK    2  A    between atoms: C_9  and  C_10 
REMARK    3  A    between atoms: C_10  and  N_11 
REMARK       I    between atoms: N_11  and  C_12 
REMARK       I    between atoms: C_12  and  N_13 
REMARK    4  A    between atoms: N_13  and  C_14 
REMARK    5  A    between atoms: C_14  and  C_15 
ROOT
HETATM    1  N   UNL     1      25.520  45.123  51.027  1.00  0.00    -0.319 N 
HETATM    2  C   UNL     1      25.344  46.408  50.509  1.00  0.00     0.021 A 
HETATM    3  C   UNL     1      26.314  47.527  50.713  1.00  0.00     0.069 C 
HETATM    4  C   UNL     1      24.193  46.419  49.730  1.00  0.00    -0.016 A 
HETATM    5  C   UNL     1      23.685  45.098  49.736  1.00  0.00     0.035 A 
HETATM    6  C   UNL     1      24.505  44.315  50.521  1.00  0.00     0.014 A 
HETATM    7  C   UNL     1      24.297  42.881  50.874  1.00  0.00     0.068 C 
ENDROOT
BRANCH   4   8
HETATM    8  C   UNL     1      23.603  47.560  48.965  1.00  0.00     0.165 C 
BRANCH   8   9
HETATM    9  N   UNL     1      22.354  47.910  49.601  1.00  0.00    -0.339 N 
HETATM   10  C   UNL     1      21.468  48.734  48.965  1.00  0.00     0.316 C 
HETATM   11  N   UNL     1      20.465  49.116  49.812  1.00  0.00    -0.339 N 
HETATM   12  O   UNL     1      21.579  49.112  47.809  1.00  0.00    -0.247 OA
HETATM   13  H   UNL     1      20.209  48.446  50.522  1.00  0.00     0.164 HD
HETATM   14  H   UNL     1      22.369  47.983  50.607  1.00  0.00     0.164 HD
BRANCH  11  15
HETATM   15  C   UNL     1      19.435  50.027  49.375  1.00  0.00     0.162 C 
BRANCH  15  16
HETATM   16  C   UNL     1      18.255  49.260  48.836  1.00  0.00    -0.040 A 
HETATM   17  C   UNL     1      17.529  49.763  47.744  1.00  0.00     0.009 A 
HETATM   18  C   UNL     1      16.426  49.071  47.245  1.00  0.00     0.001 A 
HETATM   19  C   UNL     1      16.039  47.865  47.826  1.00  0.00     0.000 A 
HETATM   20  C   UNL     1      16.757  47.352  48.907  1.00  0.00     0.001 A 
HETATM   21  C   UNL     1      17.859  48.046  49.410  1.00  0.00     0.009 A 
ENDBRANCH  15  16
ENDBRANCH  11  15
ENDBRANCH   8   9
ENDBRANCH   4   8
BRANCH   1  22
HETATM   22  C   UNL     1      26.546  44.713  51.928  1.00  0.00     0.039 A 
HETATM   23  C   UNL     1      26.407  44.949  53.300  1.00  0.00     0.030 A 
HETATM   24  C   UNL     1      27.400  44.528  54.188  1.00  0.00     0.009 A 
HETATM   25  C   UNL     1      28.549  43.883  53.716  1.00  0.00    -0.062 A 
HETATM   26  C   UNL     1      29.595  43.395  54.673  1.00  0.00     0.048 C 
HETATM   27  C   UNL     1      28.681  43.645  52.343  1.00  0.00     0.009 A 
HETATM   28  C   UNL     1      27.687  44.059  51.451  1.00  0.00     0.030 A 
ENDBRANCH   1  22
TORSDOF 5
ENDMDL
MODEL 9
REMARK VINA RESULT:      -8.2      5.008      7.733
REMARK  5 active torsions:
REMARK  status: ('A' for Active; 'I' for Inactive)
REMARK    1  A    between atoms: C_5  and  N_6 
REMARK    2  A    between atoms: C_9  and  C_10 
REMARK    3  A    between atoms: C_10  and  N_11 
REMARK       I    between atoms: N_11  and  C_12 
REMARK       I    between atoms: C_12  and  N_13 
REMARK    4  A    between atoms: N_13  and  C_14 
REMARK    5  A    between atoms: C_14  and  C_15 
ROOT
HETATM    1  N   UNL     1      19.038  49.584  48.734  1.00  0.00    -0.319 N 
HETATM    2  C   UNL     1      20.394  49.861  48.539  1.00  0.00     0.021 A 
HETATM    3  C   UNL     1      20.955  51.243  48.438  1.00  0.00     0.069 C 
HETATM    4  C   UNL     1      21.097  48.663  48.547  1.00  0.00    -0.016 A 
HETATM    5  C   UNL     1      20.154  47.638  48.801  1.00  0.00     0.035 A 
HETATM    6  C   UNL     1      18.905  48.211  48.922  1.00  0.00     0.014 A 
HETATM    7  C   UNL     1      17.610  47.495  49.107  1.00  0.00     0.068 C 
ENDROOT
BRANCH   4   8
HETATM    8  C   UNL     1      22.568  48.451  48.386  1.00  0.00     0.165 C 
BRANCH   8   9
HETATM    9  N   UNL     1      23.053  47.828  49.595  1.00  0.00    -0.339 N 
HETATM   10  C   UNL     1      24.349  48.012  49.989  1.00  0.00     0.316 C 
HETATM   11  N   UNL     1      24.667  47.172  51.020  1.00  0.00    -0.339 N 
HETATM   12  O   UNL     1      25.130  48.791  49.465  1.00  0.00    -0.247 OA
HETATM   13  H   UNL     1      23.911  46.936  51.645  1.00  0.00     0.164 HD
HETATM   14  H   UNL     1      22.652  46.932  49.829  1.00  0.00     0.164 HD
BRANCH  11  15
HETATM   15  C   UNL     1      26.000  47.153  51.575  1.00  0.00     0.162 C 
BRANCH  15  16
HETATM   16  C   UNL     1      26.094  46.122  52.670  1.00  0.00    -0.040 A 
HETATM   17  C   UNL     1      27.038  46.274  53.699  1.00  0.00     0.009 A 
HETATM   18  C   UNL     1      27.147  45.319  54.710  1.00  0.00     0.001 A 
HETATM   19  C   UNL     1      26.310  44.206  54.708  1.00  0.00     0.000 A 
HETATM   20  C   UNL     1      25.364  44.048  53.695  1.00  0.00     0.001 A 
HETATM   21  C   UNL     1      25.256  45.000  52.681  1.00  0.00     0.009 A 
ENDBRANCH  15  16
ENDBRANCH  11  15
ENDBRANCH   8   9
ENDBRANCH   4   8
BRANCH   1  22
HETATM   22  C   UNL     1      17.977  50.536  48.726  1.00  0.00     0.039 A 
HETATM   23  C   UNL     1      17.681  51.261  49.885  1.00  0.00     0.030 A 
HETATM   24  C   UNL     1      16.657  52.213  49.874  1.00  0.00     0.009 A 
HETATM   25  C   UNL     1      15.908  52.437  48.714  1.00  0.00    -0.062 A 
HETATM   26  C   UNL     1      14.837  53.487  48.691  1.00  0.00     0.048 C 
HETATM   27  C   UNL     1      16.212  51.713  47.555  1.00  0.00     0.009 A 
HETATM   28  C   UNL     1      17.240  50.765  47.560  1.00  0.00     0.030 A 
ENDBRANCH   1  22
TORSDOF 5
ENDMDL
MODEL 10
REMARK VINA RESULT:      -8.1      4.079      6.177
REMARK  5 active torsions:
REMARK  status: ('A' for Active; 'I' for Inactive)
REMARK    1  A    between atoms: C_5  and  N_6 
REMARK    2  A    between atoms: C_9  and  C_10 
REMARK    3  A    between atoms: C_10  and  N_11 
REMARK       I    between atoms: N_11  and  C_12 
REMARK       I    between atoms: C_12  and  N_13 
REMARK    4  A    between atoms: N_13  and  C_14 
REMARK    5  A    between atoms: C_14  and  C_15 
ROOT
HETATM    1  N   UNL     1      27.496  40.616  48.643  1.00  0.00    -0.319 N 
HETATM    2  C   UNL     1      28.356  40.056  49.590  1.00  0.00     0.021 A 
HETATM    3  C   UNL     1      29.464  39.110  49.253  1.00  0.00     0.069 C 
HETATM    4  C   UNL     1      28.056  40.593  50.837  1.00  0.00    -0.016 A 
HETATM    5  C   UNL     1      27.020  41.537  50.634  1.00  0.00     0.035 A 
HETATM    6  C   UNL     1      26.694  41.550  49.294  1.00  0.00     0.014 A 
HETATM    7  C   UNL     1      25.599  42.333  48.651  1.00  0.00     0.068 C 
ENDROOT
BRANCH   4   8
HETATM    8  C   UNL     1      28.709  40.308  52.150  1.00  0.00     0.165 C 
BRANCH   8   9
HETATM    9  N   UNL     1      29.419  41.500  52.551  1.00  0.00    -0.339 N 
HETATM   10  C   UNL     1      28.872  42.348  53.473  1.00  0.00     0.316 C 
HETATM   11  N   UNL     1      29.586  43.511  53.548  1.00  0.00    -0.339 N 
HETATM   12  O   UNL     1      27.858  42.115  54.113  1.00  0.00    -0.247 OA
HETATM   13  H   UNL     1      30.574  43.434  53.365  1.00  0.00     0.164 HD
HETATM   14  H   UNL     1      29.991  41.940  51.845  1.00  0.00     0.164 HD
BRANCH  11  15
HETATM   15  C   UNL     1      29.168  44.580  54.424  1.00  0.00     0.162 C 
BRANCH  15  16
HETATM   16  C   UNL     1      29.961  44.545  55.705  1.00  0.00    -0.040 A 
HETATM   17  C   UNL     1      29.770  45.539  56.678  1.00  0.00     0.009 A 
HETATM   18  C   UNL     1      30.509  45.527  57.861  1.00  0.00     0.001 A 
HETATM   19  C   UNL     1      31.442  44.517  58.088  1.00  0.00     0.000 A 
HETATM   20  C   UNL     1      31.635  43.520  57.132  1.00  0.00     0.001 A 
HETATM   21  C   UNL     1      30.899  43.533  55.946  1.00  0.00     0.009 A 
ENDBRANCH  15  16
ENDBRANCH  11  15
ENDBRANCH   8   9
ENDBRANCH   4   8
BRANCH   1  22
HETATM   22  C   UNL     1      27.438  40.281  47.259  1.00  0.00     0.039 A 
HETATM   23  C   UNL     1      28.181  41.017  46.330  1.00  0.00     0.030 A 
HETATM   24  C   UNL     1      28.145  40.675  44.975  1.00  0.00     0.009 A 
HETATM   25  C   UNL     1      27.355  39.609  44.531  1.00  0.00    -0.062 A 
HETATM   26  C   UNL     1      27.349  39.217  43.084  1.00  0.00     0.048 C 
HETATM   27  C   UNL     1      26.618  38.872  45.466  1.00  0.00     0.009 A 
HETATM   28  C   UNL     1      26.655  39.207  46.823  1.00  0.00     0.030 A 
ENDBRANCH   1  22
TORSDOF 5
ENDMDL
