MODEL 1
REMARK VINA RESULT:      -8.6      0.000      0.000
REMARK  7 active torsions:
REMARK  status: ('A' for Active; 'I' for Inactive)
REMARK    1  A    between atoms: C_3  and  N_4 
REMARK       I    between atoms: N_4  and  C_5 
REMARK    2  A    between atoms: C_5  and  C_6 
REMARK    3  A    between atoms: C_7  and  C_8 
REMARK    4  A    between atoms: C_19  and  C_20 
REMARK    5  A    between atoms: C_20  and  C_21 
REMARK    6  A    between atoms: C_21  and  C_22 
REMARK    7  A    between atoms: C_22  and  O_23 
ROOT
HETATM    1  C   UNL     1      25.547  45.242  52.364  1.00  0.00     0.062 A 
HETATM    2  C   UNL     1      24.748  44.411  51.363  1.00  0.00     0.202 A 
HETATM    3  N   UNL     1      24.136  45.251  50.327  1.00  0.00    -0.083 N 
HETATM    4  C   UNL     1      24.234  46.615  50.291  1.00  0.00     0.726 A 
HETATM    5  N   UNL     1      24.947  47.250  51.239  1.00  0.00    -0.192 N 
HETATM    6  N   UNL     1      23.295  44.796  49.373  1.00  0.00    -0.140 NA
HETATM    7  C   UNL     1      23.004  45.937  48.731  1.00  0.00     0.166 A 
HETATM    8  N   UNL     1      23.552  47.075  49.275  1.00  0.00    -0.046 NA
HETATM    9  C   UNL     1      25.616  46.594  52.265  1.00  0.00     0.037 A 
HETATM   10  C   UNL     1      26.373  47.483  53.223  1.00  0.00     0.070 C 
HETATM   11  H   UNL     1      25.033  48.261  51.189  1.00  0.00     0.184 HD
ENDROOT
BRANCH   1  12
HETATM   12  C   UNL     1      26.362  44.503  53.372  1.00  0.00     0.256 C 
HETATM   13  N   UNL     1      27.718  44.659  53.197  1.00  0.00    -0.323 N 
HETATM   14  H   UNL     1      28.018  44.927  52.269  1.00  0.00     0.169 HD
HETATM   15  O   UNL     1      25.802  43.816  54.215  1.00  0.00    -0.267 OA
BRANCH  13  16
HETATM   16  C   UNL     1      28.762  44.277  54.074  1.00  0.00     0.041 A 
HETATM   17  C   UNL     1      29.542  43.109  53.991  1.00  0.00    -0.035 A 
HETATM   18  C   UNL     1      29.348  42.003  52.989  1.00  0.00     0.050 C 
HETATM   19  C   UNL     1      30.572  42.911  54.937  1.00  0.00     0.009 A 
HETATM   20  C   UNL     1      30.787  43.809  55.979  1.00  0.00     0.001 A 
HETATM   21  C   UNL     1      29.974  44.926  56.098  1.00  0.00     0.002 A 
HETATM   22  C   UNL     1      28.970  45.153  55.157  1.00  0.00     0.030 A 
ENDBRANCH  13  16
ENDBRANCH   1  12
BRANCH   2  23
HETATM   23  C   UNL     1      25.549  43.279  50.726  1.00  0.00    -0.028 A 
HETATM   24  C   UNL     1      25.187  41.942  50.976  1.00  0.00     0.011 A 
HETATM   25  C   UNL     1      25.923  40.891  50.428  1.00  0.00     0.024 A 
HETATM   26  C   UNL     1      27.025  41.163  49.624  1.00  0.00     0.034 A 
HETATM   27 CL   UNL     1      27.937  39.866  48.957  1.00  0.00    -0.084 Cl
HETATM   28  C   UNL     1      27.394  42.480  49.356  1.00  0.00     0.024 A 
HETATM   29  C   UNL     1      26.658  43.535  49.901  1.00  0.00     0.011 A 
ENDBRANCH   2  23
BRANCH   7  30
HETATM   30  C   UNL     1      22.124  45.987  47.536  1.00  0.00     0.085 C 
BRANCH  30  31
HETATM   31  C   UNL     1      20.719  46.498  47.841  1.00  0.00     0.034 C 
BRANCH  31  32
HETATM   32  C   UNL     1      19.752  45.389  48.241  1.00  0.00     0.164 C 
BRANCH  32  33
HETATM   33  O   UNL     1      20.065  44.936  49.555  1.00  0.00    -0.401 OA
HETATM   34  H   UNL     1      20.744  44.244  49.472  1.00  0.00     0.209 HD
ENDBRANCH  32  33
ENDBRANCH  31  32
ENDBRANCH  30  31
ENDBRANCH   7  30
TORSDOF 7
ENDMDL
MODEL 2
REMARK VINA RESULT:      -8.4      0.741      1.681
REMARK  7 active torsions:
REMARK  status: ('A' for Active; 'I' for Inactive)
REMARK    1  A    between atoms: C_3  and  N_4 
REMARK       I    between atoms: N_4  and  C_5 
REMARK    2  A    between atoms: C_5  and  C_6 
REMARK    3  A    between atoms: C_7  and  C_8 
REMARK    4  A    between atoms: C_19  and  C_20 
REMARK    5  A    between atoms: C_20  and  C_21 
REMARK    6  A    between atoms: C_21  and  C_22 
REMARK    7  A    between atoms: C_22  and  O_23 
ROOT
HETATM    1  C   UNL     1      25.215  45.046  51.985  1.00  0.00     0.062 A 
HETATM    2  C   UNL     1      24.513  44.092  51.021  1.00  0.00     0.202 A 
HETATM    3  N   UNL     1      23.870  44.814  49.916  1.00  0.00    -0.083 N 
HETATM    4  C   UNL     1      23.866  46.176  49.792  1.00  0.00     0.726 A 
HETATM    5  N   UNL     1      24.498  46.925  50.713  1.00  0.00    -0.192 N 
HETATM    6  N   UNL     1      23.097  44.234  48.973  1.00  0.00    -0.140 NA
HETATM    7  C   UNL     1      22.740  45.304  48.249  1.00  0.00     0.166 A 
HETATM    8  N   UNL     1      23.182  46.515  48.730  1.00  0.00    -0.046 NA
HETATM    9  C   UNL     1      25.184  46.390  51.798  1.00  0.00     0.037 A 
HETATM   10  C   UNL     1      25.841  47.395  52.713  1.00  0.00     0.070 C 
HETATM   11  H   UNL     1      24.509  47.934  50.599  1.00  0.00     0.184 HD
ENDROOT
BRANCH   1  12
HETATM   12  C   UNL     1      26.053  44.439  53.060  1.00  0.00     0.256 C 
HETATM   13  N   UNL     1      27.403  44.510  52.804  1.00  0.00    -0.323 N 
HETATM   14  H   UNL     1      27.666  44.617  51.834  1.00  0.00     0.169 HD
HETATM   15  O   UNL     1      25.511  43.916  54.025  1.00  0.00    -0.267 OA
BRANCH  13  16
HETATM   16  C   UNL     1      28.475  44.226  53.685  1.00  0.00     0.041 A 
HETATM   17  C   UNL     1      28.822  44.943  54.845  1.00  0.00    -0.035 A 
HETATM   18  C   UNL     1      28.153  46.206  55.318  1.00  0.00     0.050 C 
HETATM   19  C   UNL     1      29.906  44.489  55.627  1.00  0.00     0.009 A 
HETATM   20  C   UNL     1      30.673  43.393  55.241  1.00  0.00     0.001 A 
HETATM   21  C   UNL     1      30.373  42.727  54.062  1.00  0.00     0.002 A 
HETATM   22  C   UNL     1      29.287  43.144  53.291  1.00  0.00     0.030 A 
ENDBRANCH  13  16
ENDBRANCH   1  12
BRANCH   2  23
HETATM   23  C   UNL     1      25.417  42.988  50.482  1.00  0.00    -0.028 A 
HETATM   24  C   UNL     1      26.395  43.296  49.518  1.00  0.00     0.011 A 
HETATM   25  C   UNL     1      27.213  42.297  48.989  1.00  0.00     0.024 A 
HETATM   26  C   UNL     1      27.064  40.981  49.418  1.00  0.00     0.034 A 
HETATM   27 CL   UNL     1      28.066  39.749  48.757  1.00  0.00    -0.084 Cl
HETATM   28  C   UNL     1      26.108  40.657  50.378  1.00  0.00     0.024 A 
HETATM   29  C   UNL     1      25.289  41.656  50.912  1.00  0.00     0.011 A 
ENDBRANCH   2  23
BRANCH   7  30
HETATM   30  C   UNL     1      21.896  45.209  47.031  1.00  0.00     0.085 C 
BRANCH  30  31
HETATM   31  C   UNL     1      20.504  44.643  47.302  1.00  0.00     0.034 C 
BRANCH  31  32
HETATM   32  C   UNL     1      19.777  45.362  48.434  1.00  0.00     0.164 C 
BRANCH  32  33
HETATM   33  O   UNL     1      18.565  44.675  48.733  1.00  0.00    -0.401 OA
HETATM   34  H   UNL     1      17.912  44.926  48.058  1.00  0.00     0.209 HD
ENDBRANCH  32  33
ENDBRANCH  31  32
ENDBRANCH  30  31
ENDBRANCH   7  30
TORSDOF 7
ENDMDL
MODEL 3
REMARK VINA RESULT:      -8.2      3.532      6.093
REMARK  7 active torsions:
REMARK  status: ('A' for Active; 'I' for Inactive)
REMARK    1  A    between atoms: C_3  and  N_4 
REMARK       I    between atoms: N_4  and  C_5 
REMARK    2  A    between atoms: C_5  and  C_6 
REMARK    3  A    between atoms: C_7  and  C_8 
REMARK    4  A    between atoms: C_19  and  C_20 
REMARK    5  A    between atoms: C_20  and  C_21 
REMARK    6  A    between atoms: C_21  and  C_22 
REMARK    7  A    between atoms: C_22  and  O_23 
ROOT
HETATM    1  C   UNL     1      27.178  42.604  51.804  1.00  0.00     0.062 A 
HETATM    2  C   UNL     1      26.982  42.904  50.320  1.00  0.00     0.202 A 
HETATM    3  N   UNL     1      27.422  41.786  49.477  1.00  0.00    -0.083 N 
HETATM    4  C   UNL     1      27.979  40.635  49.963  1.00  0.00     0.726 A 
HETATM    5  N   UNL     1      28.126  40.483  51.291  1.00  0.00    -0.192 N 
HETATM    6  N   UNL     1      27.458  41.815  48.128  1.00  0.00    -0.140 NA
HETATM    7  C   UNL     1      27.956  40.598  47.864  1.00  0.00     0.166 A 
HETATM    8  N   UNL     1      28.301  39.851  48.967  1.00  0.00    -0.046 NA
HETATM    9  C   UNL     1      27.726  41.434  52.222  1.00  0.00     0.037 A 
HETATM   10  C   UNL     1      27.963  41.072  53.669  1.00  0.00     0.070 C 
HETATM   11  H   UNL     1      28.519  39.614  51.643  1.00  0.00     0.184 HD
ENDROOT
BRANCH   1  12
HETATM   12  C   UNL     1      26.617  43.582  52.780  1.00  0.00     0.256 C 
HETATM   13  N   UNL     1      27.494  44.592  53.105  1.00  0.00    -0.323 N 
HETATM   14  H   UNL     1      28.474  44.392  52.960  1.00  0.00     0.169 HD
HETATM   15  O   UNL     1      25.491  43.411  53.228  1.00  0.00    -0.267 OA
BRANCH  13  16
HETATM   16  C   UNL     1      27.229  45.782  53.826  1.00  0.00     0.041 A 
HETATM   17  C   UNL     1      26.327  46.799  53.464  1.00  0.00    -0.035 A 
HETATM   18  C   UNL     1      25.531  46.842  52.188  1.00  0.00     0.050 C 
HETATM   19  C   UNL     1      26.163  47.902  54.330  1.00  0.00     0.009 A 
HETATM   20  C   UNL     1      26.918  48.035  55.493  1.00  0.00     0.001 A 
HETATM   21  C   UNL     1      27.856  47.065  55.813  1.00  0.00     0.002 A 
HETATM   22  C   UNL     1      28.011  45.953  54.985  1.00  0.00     0.030 A 
ENDBRANCH  13  16
ENDBRANCH   1  12
BRANCH   2  23
HETATM   23  C   UNL     1      25.558  43.315  49.958  1.00  0.00    -0.028 A 
HETATM   24  C   UNL     1      25.316  44.594  49.423  1.00  0.00     0.011 A 
HETATM   25  C   UNL     1      24.017  45.002  49.113  1.00  0.00     0.024 A 
HETATM   26  C   UNL     1      22.949  44.137  49.331  1.00  0.00     0.034 A 
HETATM   27 CL   UNL     1      21.349  44.645  48.958  1.00  0.00    -0.084 Cl
HETATM   28  C   UNL     1      23.169  42.863  49.851  1.00  0.00     0.024 A 
HETATM   29  C   UNL     1      24.468  42.451  50.161  1.00  0.00     0.011 A 
ENDBRANCH   2  23
BRANCH   7  30
HETATM   30  C   UNL     1      28.161  40.093  46.484  1.00  0.00     0.085 C 
BRANCH  30  31
HETATM   31  C   UNL     1      27.554  38.712  46.249  1.00  0.00     0.034 C 
BRANCH  31  32
HETATM   32  C   UNL     1      28.587  37.591  46.283  1.00  0.00     0.164 C 
BRANCH  32  33
HETATM   33  O   UNL     1      28.682  37.070  47.605  1.00  0.00    -0.401 OA
HETATM   34  H   UNL     1      29.231  36.268  47.566  1.00  0.00     0.209 HD
ENDBRANCH  32  33
ENDBRANCH  31  32
ENDBRANCH  30  31
ENDBRANCH   7  30
TORSDOF 7
ENDMDL
MODEL 4
REMARK VINA RESULT:      -8.1      2.641      3.660
REMARK  7 active torsions:
REMARK  status: ('A' for Active; 'I' for Inactive)
REMARK    1  A    between atoms: C_3  and  N_4 
REMARK       I    between atoms: N_4  and  C_5 
REMARK    2  A    between atoms: C_5  and  C_6 
REMARK    3  A    between atoms: C_7  and  C_8 
REMARK    4  A    between atoms: C_19  and  C_20 
REMARK    5  A    between atoms: C_20  and  C_21 
REMARK    6  A    between atoms: C_21  and  C_22 
REMARK    7  A    between atoms: C_22  and  O_23 
ROOT
HETATM    1  C   UNL     1      25.461  47.321  49.904  1.00  0.00     0.062 A 
HETATM    2  C   UNL     1      23.983  46.937  49.895  1.00  0.00     0.202 A 
HETATM    3  N   UNL     1      23.186  47.864  49.083  1.00  0.00    -0.083 N 
HETATM    4  C   UNL     1      23.700  48.962  48.449  1.00  0.00     0.726 A 
HETATM    5  N   UNL     1      25.017  49.221  48.541  1.00  0.00    -0.192 N 
HETATM    6  N   UNL     1      21.840  47.824  48.978  1.00  0.00    -0.140 NA
HETATM    7  C   UNL     1      21.620  48.876  48.176  1.00  0.00     0.166 A 
HETATM    8  N   UNL     1      22.737  49.606  47.842  1.00  0.00    -0.046 NA
HETATM    9  C   UNL     1      25.909  48.418  49.242  1.00  0.00     0.037 A 
HETATM   10  C   UNL     1      27.350  48.869  49.216  1.00  0.00     0.070 C 
HETATM   11  H   UNL     1      25.392  50.025  48.047  1.00  0.00     0.184 HD
ENDROOT
BRANCH   1  12
HETATM   12  C   UNL     1      26.411  46.370  50.549  1.00  0.00     0.256 C 
HETATM   13  N   UNL     1      26.259  46.290  51.915  1.00  0.00    -0.323 N 
HETATM   14  H   UNL     1      25.817  47.083  52.360  1.00  0.00     0.169 HD
HETATM   15  O   UNL     1      27.240  45.786  49.864  1.00  0.00    -0.267 OA
BRANCH  13  16
HETATM   16  C   UNL     1      26.840  45.355  52.806  1.00  0.00     0.041 A 
HETATM   17  C   UNL     1      27.436  45.638  54.048  1.00  0.00    -0.035 A 
HETATM   18  C   UNL     1      27.639  47.014  54.622  1.00  0.00     0.050 C 
HETATM   19  C   UNL     1      27.932  44.567  54.824  1.00  0.00     0.009 A 
HETATM   20  C   UNL     1      27.900  43.255  54.360  1.00  0.00     0.001 A 
HETATM   21  C   UNL     1      27.373  42.985  53.106  1.00  0.00     0.002 A 
HETATM   22  C   UNL     1      26.853  44.027  52.337  1.00  0.00     0.030 A 
ENDBRANCH  13  16
ENDBRANCH   1  12
BRANCH   2  23
HETATM   23  C   UNL     1      23.725  45.496  49.465  1.00  0.00    -0.028 A 
HETATM   24  C   UNL     1      23.499  44.507  50.440  1.00  0.00     0.011 A 
HETATM   25  C   UNL     1      23.291  43.177  50.071  1.00  0.00     0.024 A 
HETATM   26  C   UNL     1      23.304  42.822  48.726  1.00  0.00     0.034 A 
HETATM   27 CL   UNL     1      23.057  41.181  48.273  1.00  0.00    -0.084 Cl
HETATM   28  C   UNL     1      23.516  43.788  47.744  1.00  0.00     0.024 A 
HETATM   29  C   UNL     1      23.723  45.121  48.110  1.00  0.00     0.011 A 
ENDBRANCH   2  23
BRANCH   7  30
HETATM   30  C   UNL     1      20.266  49.259  47.703  1.00  0.00     0.085 C 
BRANCH  30  31
HETATM   31  C   UNL     1      19.317  49.647  48.834  1.00  0.00     0.034 C 
BRANCH  31  32
HETATM   32  C   UNL     1      18.405  48.504  49.267  1.00  0.00     0.164 C 
BRANCH  32  33
HETATM   33  O   UNL     1      19.022  47.777  50.324  1.00  0.00    -0.401 OA
HETATM   34  H   UNL     1      19.911  47.522  50.025  1.00  0.00     0.209 HD
ENDBRANCH  32  33
ENDBRANCH  31  32
ENDBRANCH  30  31
ENDBRANCH   7  30
TORSDOF 7
ENDMDL
MODEL 5
REMARK VINA RESULT:      -8.0      3.105      8.406
REMARK  7 active torsions:
REMARK  status: ('A' for Active; 'I' for Inactive)
REMARK    1  A    between atoms: C_3  and  N_4 
REMARK       I    between atoms: N_4  and  C_5 
REMARK    2  A    between atoms: C_5  and  C_6 
REMARK    3  A    between atoms: C_7  and  C_8 
REMARK    4  A    between atoms: C_19  and  C_20 
REMARK    5  A    between atoms: C_20  and  C_21 
REMARK    6  A    between atoms: C_21  and  C_22 
REMARK    7  A    between atoms: C_22  and  O_23 
ROOT
HETATM    1  C   UNL     1      25.635  42.545  51.212  1.00  0.00     0.062 A 
HETATM    2  C   UNL     1      25.962  43.762  52.074  1.00  0.00     0.202 A 
HETATM    3  N   UNL     1      27.229  43.592  52.794  1.00  0.00    -0.083 N 
HETATM    4  C   UNL     1      27.999  42.463  52.732  1.00  0.00     0.726 A 
HETATM    5  N   UNL     1      27.605  41.438  51.956  1.00  0.00    -0.192 N 
HETATM    6  N   UNL     1      27.714  44.465  53.703  1.00  0.00    -0.140 NA
HETATM    7  C   UNL     1      28.840  43.839  54.076  1.00  0.00     0.166 A 
HETATM    8  N   UNL     1      29.040  42.601  53.511  1.00  0.00    -0.046 NA
HETATM    9  C   UNL     1      26.448  41.459  51.185  1.00  0.00     0.037 A 
HETATM   10  C   UNL     1      26.186  40.216  50.369  1.00  0.00     0.070 C 
HETATM   11  H   UNL     1      28.195  40.613  51.898  1.00  0.00     0.184 HD
ENDROOT
BRANCH   1  12
HETATM   12  C   UNL     1      24.463  42.651  50.295  1.00  0.00     0.256 C 
HETATM   13  N   UNL     1      24.817  42.818  48.975  1.00  0.00    -0.323 N 
HETATM   14  H   UNL     1      25.740  43.195  48.807  1.00  0.00     0.169 HD
HETATM   15  O   UNL     1      23.330  42.621  50.756  1.00  0.00    -0.267 OA
BRANCH  13  16
HETATM   16  C   UNL     1      23.984  42.749  47.832  1.00  0.00     0.041 A 
HETATM   17  C   UNL     1      23.150  43.768  47.338  1.00  0.00    -0.035 A 
HETATM   18  C   UNL     1      22.929  45.105  47.994  1.00  0.00     0.050 C 
HETATM   19  C   UNL     1      22.415  43.533  46.155  1.00  0.00     0.009 A 
HETATM   20  C   UNL     1      22.450  42.300  45.509  1.00  0.00     0.001 A 
HETATM   21  C   UNL     1      23.221  41.274  46.034  1.00  0.00     0.002 A 
HETATM   22  C   UNL     1      23.976  41.497  47.186  1.00  0.00     0.030 A 
ENDBRANCH  13  16
ENDBRANCH   1  12
BRANCH   2  23
HETATM   23  C   UNL     1      25.960  45.080  51.304  1.00  0.00    -0.028 A 
HETATM   24  C   UNL     1      26.921  45.302  50.301  1.00  0.00     0.011 A 
HETATM   25  C   UNL     1      26.957  46.512  49.605  1.00  0.00     0.024 A 
HETATM   26  C   UNL     1      26.032  47.509  49.901  1.00  0.00     0.034 A 
HETATM   27 CL   UNL     1      26.084  49.002  49.049  1.00  0.00    -0.084 Cl
HETATM   28  C   UNL     1      25.066  47.304  50.884  1.00  0.00     0.024 A 
HETATM   29  C   UNL     1      25.026  46.094  51.582  1.00  0.00     0.011 A 
ENDBRANCH   2  23
BRANCH   7  30
HETATM   30  C   UNL     1      29.794  44.414  55.057  1.00  0.00     0.085 C 
BRANCH  30  31
HETATM   31  C   UNL     1      30.719  43.372  55.683  1.00  0.00     0.034 C 
BRANCH  31  32
HETATM   32  C   UNL     1      31.290  43.810  57.028  1.00  0.00     0.164 C 
BRANCH  32  33
HETATM   33  O   UNL     1      32.279  42.878  57.451  1.00  0.00    -0.401 OA
HETATM   34  H   UNL     1      31.824  42.167  57.934  1.00  0.00     0.209 HD
ENDBRANCH  32  33
ENDBRANCH  31  32
ENDBRANCH  30  31
ENDBRANCH   7  30
TORSDOF 7
ENDMDL
MODEL 6
REMARK VINA RESULT:      -7.9      3.384      5.570
REMARK  7 active torsions:
REMARK  status: ('A' for Active; 'I' for Inactive)
REMARK    1  A    between atoms: C_3  and  N_4 
REMARK       I    between atoms: N_4  and  C_5 
REMARK    2  A    between atoms: C_5  and  C_6 
REMARK    3  A    between atoms: C_7  and  C_8 
REMARK    4  A    between atoms: C_19  and  C_20 
REMARK    5  A    between atoms: C_20  and  C_21 
REMARK    6  A    between atoms: C_21  and  C_22 
REMARK    7  A    between atoms: C_22  and  O_23 
ROOT
HETATM    1  C   UNL     1      27.335  42.456  51.805  1.00  0.00     0.062 A 
HETATM    2  C   UNL     1      27.127  42.769  50.325  1.00  0.00     0.202 A 
HETATM    3  N   UNL     1      27.516  41.639  49.472  1.00  0.00    -0.083 N 
HETATM    4  C   UNL     1      28.040  40.468  49.945  1.00  0.00     0.726 A 
HETATM    5  N   UNL     1      28.202  40.305  51.270  1.00  0.00    -0.192 N 
HETATM    6  N   UNL     1      27.531  41.672  48.122  1.00  0.00    -0.140 NA
HETATM    7  C   UNL     1      27.984  40.440  47.847  1.00  0.00     0.166 A 
HETATM    8  N   UNL     1      28.320  39.678  48.941  1.00  0.00    -0.046 NA
HETATM    9  C   UNL     1      27.849  41.267  52.210  1.00  0.00     0.037 A 
HETATM   10  C   UNL     1      28.095  40.890  53.652  1.00  0.00     0.070 C 
HETATM   11  H   UNL     1      28.570  39.423  51.613  1.00  0.00     0.184 HD
ENDROOT
BRANCH   1  12
HETATM   12  C   UNL     1      26.823  43.449  52.793  1.00  0.00     0.256 C 
HETATM   13  N   UNL     1      27.751  44.406  53.135  1.00  0.00    -0.323 N 
HETATM   14  H   UNL     1      28.720  44.157  52.989  1.00  0.00     0.169 HD
HETATM   15  O   UNL     1      25.688  43.332  53.235  1.00  0.00    -0.267 OA
BRANCH  13  16
HETATM   16  C   UNL     1      27.547  45.598  53.871  1.00  0.00     0.041 A 
HETATM   17  C   UNL     1      28.297  46.041  54.976  1.00  0.00    -0.035 A 
HETATM   18  C   UNL     1      29.415  45.276  55.631  1.00  0.00     0.050 C 
HETATM   19  C   UNL     1      27.972  47.282  55.566  1.00  0.00     0.009 A 
HETATM   20  C   UNL     1      26.892  48.040  55.120  1.00  0.00     0.001 A 
HETATM   21  C   UNL     1      26.112  47.570  54.074  1.00  0.00     0.002 A 
HETATM   22  C   UNL     1      26.435  46.359  53.461  1.00  0.00     0.030 A 
ENDBRANCH  13  16
ENDBRANCH   1  12
BRANCH   2  23
HETATM   23  C   UNL     1      25.712  43.229  49.986  1.00  0.00    -0.028 A 
HETATM   24  C   UNL     1      24.631  42.347  50.166  1.00  0.00     0.011 A 
HETATM   25  C   UNL     1      23.332  42.737  49.834  1.00  0.00     0.024 A 
HETATM   26  C   UNL     1      23.100  44.011  49.324  1.00  0.00     0.034 A 
HETATM   27 CL   UNL     1      21.500  44.485  48.908  1.00  0.00    -0.084 Cl
HETATM   28  C   UNL     1      24.157  44.902  49.149  1.00  0.00     0.024 A 
HETATM   29  C   UNL     1      25.458  44.516  49.481  1.00  0.00     0.011 A 
ENDBRANCH   2  23
BRANCH   7  30
HETATM   30  C   UNL     1      28.150  39.934  46.461  1.00  0.00     0.085 C 
BRANCH  30  31
HETATM   31  C   UNL     1      28.202  41.043  45.413  1.00  0.00     0.034 C 
BRANCH  31  32
HETATM   32  C   UNL     1      26.951  41.101  44.543  1.00  0.00     0.164 C 
BRANCH  32  33
HETATM   33  O   UNL     1      25.841  41.519  45.331  1.00  0.00    -0.401 OA
HETATM   34  H   UNL     1      26.098  41.436  46.265  1.00  0.00     0.209 HD
ENDBRANCH  32  33
ENDBRANCH  31  32
ENDBRANCH  30  31
ENDBRANCH   7  30
TORSDOF 7
ENDMDL
MODEL 7
REMARK VINA RESULT:      -7.9      1.804      2.366
REMARK  7 active torsions:
REMARK  status: ('A' for Active; 'I' for Inactive)
REMARK    1  A    between atoms: C_3  and  N_4 
REMARK       I    between atoms: N_4  and  C_5 
REMARK    2  A    between atoms: C_5  and  C_6 
REMARK    3  A    between atoms: C_7  and  C_8 
REMARK    4  A    between atoms: C_19  and  C_20 
REMARK    5  A    between atoms: C_20  and  C_21 
REMARK    6  A    between atoms: C_21  and  C_22 
REMARK    7  A    between atoms: C_22  and  O_23 
ROOT
HETATM    1  C   UNL     1      24.964  44.689  51.559  1.00  0.00     0.062 A 
HETATM    2  C   UNL     1      24.354  43.649  50.622  1.00  0.00     0.202 A 
HETATM    3  N   UNL     1      23.681  44.277  49.479  1.00  0.00    -0.083 N 
HETATM    4  C   UNL     1      23.577  45.630  49.301  1.00  0.00     0.726 A 
HETATM    5  N   UNL     1      24.134  46.458  50.202  1.00  0.00    -0.192 N 
HETATM    6  N   UNL     1      22.971  43.605  48.547  1.00  0.00    -0.140 NA
HETATM    7  C   UNL     1      22.549  44.617  47.776  1.00  0.00     0.166 A 
HETATM    8  N   UNL     1      22.890  45.875  48.215  1.00  0.00    -0.046 NA
HETATM    9  C   UNL     1      24.836  46.018  51.318  1.00  0.00     0.037 A 
HETATM   10  C   UNL     1      25.398  47.105  52.204  1.00  0.00     0.070 C 
HETATM   11  H   UNL     1      24.072  47.460  50.048  1.00  0.00     0.184 HD
ENDROOT
BRANCH   1  12
HETATM   12  C   UNL     1      25.823  44.188  52.671  1.00  0.00     0.256 C 
HETATM   13  N   UNL     1      27.169  44.252  52.390  1.00  0.00    -0.323 N 
HETATM   14  H   UNL     1      27.418  44.277  51.411  1.00  0.00     0.169 HD
HETATM   15  O   UNL     1      25.301  43.746  53.685  1.00  0.00    -0.267 OA
BRANCH  13  16
HETATM   16  C   UNL     1      28.257  44.058  53.277  1.00  0.00     0.041 A 
HETATM   17  C   UNL     1      28.538  44.805  54.435  1.00  0.00    -0.035 A 
HETATM   18  C   UNL     1      27.769  46.012  54.900  1.00  0.00     0.050 C 
HETATM   19  C   UNL     1      29.652  44.443  55.224  1.00  0.00     0.009 A 
HETATM   20  C   UNL     1      30.507  43.411  54.847  1.00  0.00     0.001 A 
HETATM   21  C   UNL     1      30.267  42.719  53.669  1.00  0.00     0.002 A 
HETATM   22  C   UNL     1      29.154  43.044  52.892  1.00  0.00     0.030 A 
ENDBRANCH  13  16
ENDBRANCH   1  12
BRANCH   2  23
HETATM   23  C   UNL     1      25.348  42.596  50.142  1.00  0.00    -0.028 A 
HETATM   24  C   UNL     1      25.267  41.282  50.641  1.00  0.00     0.011 A 
HETATM   25  C   UNL     1      26.184  40.310  50.238  1.00  0.00     0.024 A 
HETATM   26  C   UNL     1      27.189  40.639  49.332  1.00  0.00     0.034 A 
HETATM   27 CL   UNL     1      28.324  39.442  48.845  1.00  0.00    -0.084 Cl
HETATM   28  C   UNL     1      27.279  41.931  48.819  1.00  0.00     0.024 A 
HETATM   29  C   UNL     1      26.362  42.907  49.219  1.00  0.00     0.011 A 
ENDBRANCH   2  23
BRANCH   7  30
HETATM   30  C   UNL     1      21.739  44.412  46.549  1.00  0.00     0.085 C 
BRANCH  30  31
HETATM   31  C   UNL     1      22.445  44.867  45.274  1.00  0.00     0.034 C 
BRANCH  31  32
HETATM   32  C   UNL     1      23.220  43.747  44.588  1.00  0.00     0.164 C 
BRANCH  32  33
HETATM   33  O   UNL     1      24.478  44.243  44.141  1.00  0.00    -0.401 OA
HETATM   34  H   UNL     1      24.535  45.177  44.406  1.00  0.00     0.209 HD
ENDBRANCH  32  33
ENDBRANCH  31  32
ENDBRANCH  30  31
ENDBRANCH   7  30
TORSDOF 7
ENDMDL
MODEL 8
REMARK VINA RESULT:      -7.7      5.179      8.250
REMARK  7 active torsions:
REMARK  status: ('A' for Active; 'I' for Inactive)
REMARK    1  A    between atoms: C_3  and  N_4 
REMARK       I    between atoms: N_4  and  C_5 
REMARK    2  A    between atoms: C_5  and  C_6 
REMARK    3  A    between atoms: C_7  and  C_8 
REMARK    4  A    between atoms: C_19  and  C_20 
REMARK    5  A    between atoms: C_20  and  C_21 
REMARK    6  A    between atoms: C_21  and  C_22 
REMARK    7  A    between atoms: C_22  and  O_23 
ROOT
HETATM    1  C   UNL     1      21.459  49.327  48.747  1.00  0.00     0.062 A 
HETATM    2  C   UNL     1      20.035  48.963  49.162  1.00  0.00     0.202 A 
HETATM    3  N   UNL     1      19.177  50.151  49.255  1.00  0.00    -0.083 N 
HETATM    4  C   UNL     1      19.613  51.429  49.037  1.00  0.00     0.726 A 
HETATM    5  N   UNL     1      20.897  51.639  48.696  1.00  0.00    -0.192 N 
HETATM    6  N   UNL     1      17.901  50.137  49.697  1.00  0.00    -0.140 NA
HETATM    7  C   UNL     1      17.597  51.441  49.621  1.00  0.00     0.166 A 
HETATM    8  N   UNL     1      18.627  52.266  49.233  1.00  0.00    -0.046 NA
HETATM    9  C   UNL     1      21.825  50.617  48.533  1.00  0.00     0.037 A 
HETATM   10  C   UNL     1      23.214  51.055  48.134  1.00  0.00     0.070 C 
HETATM   11  H   UNL     1      21.205  52.590  48.514  1.00  0.00     0.184 HD
ENDROOT
BRANCH   1  12
HETATM   12  C   UNL     1      22.393  48.203  48.449  1.00  0.00     0.256 C 
HETATM   13  N   UNL     1      23.139  47.812  49.537  1.00  0.00    -0.323 N 
HETATM   14  H   UNL     1      23.250  48.499  50.270  1.00  0.00     0.169 HD
HETATM   15  O   UNL     1      22.455  47.754  47.312  1.00  0.00    -0.267 OA
BRANCH  13  16
HETATM   16  C   UNL     1      23.959  46.664  49.667  1.00  0.00     0.041 A 
HETATM   17  C   UNL     1      25.349  46.646  49.885  1.00  0.00    -0.035 A 
HETATM   18  C   UNL     1      26.237  47.860  49.937  1.00  0.00     0.050 C 
HETATM   19  C   UNL     1      25.998  45.400  50.029  1.00  0.00     0.009 A 
HETATM   20  C   UNL     1      25.307  44.199  49.897  1.00  0.00     0.001 A 
HETATM   21  C   UNL     1      23.950  44.218  49.615  1.00  0.00     0.002 A 
HETATM   22  C   UNL     1      23.285  45.439  49.498  1.00  0.00     0.030 A 
ENDBRANCH  13  16
ENDBRANCH   1  12
BRANCH   2  23
HETATM   23  C   UNL     1      19.387  47.905  48.275  1.00  0.00    -0.028 A 
HETATM   24  C   UNL     1      19.198  46.602  48.769  1.00  0.00     0.011 A 
HETATM   25  C   UNL     1      18.634  45.610  47.964  1.00  0.00     0.024 A 
HETATM   26  C   UNL     1      18.251  45.911  46.661  1.00  0.00     0.034 A 
HETATM   27 CL   UNL     1      17.566  44.685  45.668  1.00  0.00    -0.084 Cl
HETATM   28  C   UNL     1      18.421  47.199  46.156  1.00  0.00     0.024 A 
HETATM   29  C   UNL     1      18.984  48.194  46.959  1.00  0.00     0.011 A 
ENDBRANCH   2  23
BRANCH   7  30
HETATM   30  C   UNL     1      16.255  51.977  49.963  1.00  0.00     0.085 C 
BRANCH  30  31
HETATM   31  C   UNL     1      16.203  53.502  50.000  1.00  0.00     0.034 C 
BRANCH  31  32
HETATM   32  C   UNL     1      14.884  54.043  50.540  1.00  0.00     0.164 C 
BRANCH  32  33
HETATM   33  O   UNL     1      14.964  54.165  51.957  1.00  0.00    -0.401 OA
HETATM   34  H   UNL     1      15.721  54.741  52.159  1.00  0.00     0.209 HD
ENDBRANCH  32  33
ENDBRANCH  31  32
ENDBRANCH  30  31
ENDBRANCH   7  30
TORSDOF 7
ENDMDL
MODEL 9
REMARK VINA RESULT:      -7.6      3.267      4.999
REMARK  7 active torsions:
REMARK  status: ('A' for Active; 'I' for Inactive)
REMARK    1  A    between atoms: C_3  and  N_4 
REMARK       I    between atoms: N_4  and  C_5 
REMARK    2  A    between atoms: C_5  and  C_6 
REMARK    3  A    between atoms: C_7  and  C_8 
REMARK    4  A    between atoms: C_19  and  C_20 
REMARK    5  A    between atoms: C_20  and  C_21 
REMARK    6  A    between atoms: C_21  and  C_22 
REMARK    7  A    between atoms: C_22  and  O_23 
ROOT
HETATM    1  C   UNL     1      28.020  42.266  51.500  1.00  0.00     0.062 A 
HETATM    2  C   UNL     1      27.455  42.669  50.139  1.00  0.00     0.202 A 
HETATM    3  N   UNL     1      26.692  41.577  49.523  1.00  0.00    -0.083 N 
HETATM    4  C   UNL     1      26.544  40.337  50.082  1.00  0.00     0.726 A 
HETATM    5  N   UNL     1      27.103  40.082  51.278  1.00  0.00    -0.192 N 
HETATM    6  N   UNL     1      26.167  41.619  48.280  1.00  0.00    -0.140 NA
HETATM    7  C   UNL     1      25.624  40.396  48.196  1.00  0.00     0.166 A 
HETATM    8  N   UNL     1      25.847  39.577  49.278  1.00  0.00    -0.046 NA
HETATM    9  C   UNL     1      27.825  41.022  52.005  1.00  0.00     0.037 A 
HETATM   10  C   UNL     1      28.362  40.546  53.333  1.00  0.00     0.070 C 
HETATM   11  H   UNL     1      26.967  39.166  51.696  1.00  0.00     0.184 HD
ENDROOT
BRANCH   1  12
HETATM   12  C   UNL     1      28.672  43.333  52.313  1.00  0.00     0.256 C 
HETATM   13  N   UNL     1      27.816  43.939  53.204  1.00  0.00    -0.323 N 
HETATM   14  H   UNL     1      26.831  43.875  52.987  1.00  0.00     0.169 HD
HETATM   15  O   UNL     1      29.849  43.606  52.119  1.00  0.00    -0.267 OA
BRANCH  13  16
HETATM   16  C   UNL     1      28.137  44.831  54.256  1.00  0.00     0.041 A 
HETATM   17  C   UNL     1      27.530  46.073  54.519  1.00  0.00    -0.035 A 
HETATM   18  C   UNL     1      26.472  46.721  53.667  1.00  0.00     0.050 C 
HETATM   19  C   UNL     1      27.957  46.814  55.642  1.00  0.00     0.009 A 
HETATM   20  C   UNL     1      29.001  46.374  56.452  1.00  0.00     0.001 A 
HETATM   21  C   UNL     1      29.643  45.183  56.153  1.00  0.00     0.002 A 
HETATM   22  C   UNL     1      29.217  44.422  55.063  1.00  0.00     0.030 A 
ENDBRANCH  13  16
ENDBRANCH   1  12
BRANCH   2  23
HETATM   23  C   UNL     1      26.623  43.947  50.173  1.00  0.00    -0.028 A 
HETATM   24  C   UNL     1      27.182  45.156  49.718  1.00  0.00     0.011 A 
HETATM   25  C   UNL     1      26.449  46.343  49.768  1.00  0.00     0.024 A 
HETATM   26  C   UNL     1      25.151  46.334  50.269  1.00  0.00     0.034 A 
HETATM   27 CL   UNL     1      24.253  47.800  50.339  1.00  0.00    -0.084 Cl
HETATM   28  C   UNL     1      24.576  45.146  50.715  1.00  0.00     0.024 A 
HETATM   29  C   UNL     1      25.306  43.956  50.665  1.00  0.00     0.011 A 
ENDBRANCH   2  23
BRANCH   7  30
HETATM   30  C   UNL     1      24.863  39.932  47.009  1.00  0.00     0.085 C 
BRANCH  30  31
HETATM   31  C   UNL     1      23.666  40.817  46.674  1.00  0.00     0.034 C 
BRANCH  31  32
HETATM   32  C   UNL     1      22.479  40.597  47.605  1.00  0.00     0.164 C 
BRANCH  32  33
HETATM   33  O   UNL     1      22.367  41.697  48.502  1.00  0.00    -0.401 OA
HETATM   34  H   UNL     1      21.442  41.999  48.482  1.00  0.00     0.209 HD
ENDBRANCH  32  33
ENDBRANCH  31  32
ENDBRANCH  30  31
ENDBRANCH   7  30
TORSDOF 7
ENDMDL
MODEL 10
REMARK VINA RESULT:      -7.5     17.533     20.490
REMARK  7 active torsions:
REMARK  status: ('A' for Active; 'I' for Inactive)
REMARK    1  A    between atoms: C_3  and  N_4 
REMARK       I    between atoms: N_4  and  C_5 
REMARK    2  A    between atoms: C_5  and  C_6 
REMARK    3  A    between atoms: C_7  and  C_8 
REMARK    4  A    between atoms: C_19  and  C_20 
REMARK    5  A    between atoms: C_20  and  C_21 
REMARK    6  A    between atoms: C_21  and  C_22 
REMARK    7  A    between atoms: C_22  and  O_23 
ROOT
HETATM    1  C   UNL     1      38.944  45.767  64.851  1.00  0.00     0.062 A 
HETATM    2  C   UNL     1      40.026  45.160  63.961  1.00  0.00     0.202 A 
HETATM    3  N   UNL     1      41.357  45.685  64.291  1.00  0.00    -0.083 N 
HETATM    4  C   UNL     1      41.590  46.633  65.249  1.00  0.00     0.726 A 
HETATM    5  N   UNL     1      40.558  47.117  65.962  1.00  0.00    -0.192 N 
HETATM    6  N   UNL     1      42.483  45.400  63.601  1.00  0.00    -0.140 NA
HETATM    7  C   UNL     1      43.380  46.139  64.269  1.00  0.00     0.166 A 
HETATM    8  N   UNL     1      42.866  46.919  65.279  1.00  0.00    -0.046 NA
HETATM    9  C   UNL     1      39.244  46.696  65.794  1.00  0.00     0.037 A 
HETATM   10  C   UNL     1      38.229  47.350  66.701  1.00  0.00     0.070 C 
HETATM   11  H   UNL     1      40.744  47.803  66.688  1.00  0.00     0.184 HD
ENDROOT
BRANCH   1  12
HETATM   12  C   UNL     1      37.569  45.199  64.741  1.00  0.00     0.256 C 
HETATM   13  N   UNL     1      37.325  44.184  65.637  1.00  0.00    -0.323 N 
HETATM   14  H   UNL     1      38.139  43.706  65.999  1.00  0.00     0.169 HD
HETATM   15  O   UNL     1      36.807  45.625  63.884  1.00  0.00    -0.267 OA
BRANCH  13  16
HETATM   16  C   UNL     1      36.087  43.570  65.947  1.00  0.00     0.041 A 
HETATM   17  C   UNL     1      35.163  43.990  66.921  1.00  0.00    -0.035 A 
HETATM   18  C   UNL     1      35.366  45.134  67.877  1.00  0.00     0.050 C 
HETATM   19  C   UNL     1      33.955  43.273  67.066  1.00  0.00     0.009 A 
HETATM   20  C   UNL     1      33.691  42.131  66.314  1.00  0.00     0.001 A 
HETATM   21  C   UNL     1      34.632  41.679  65.402  1.00  0.00     0.002 A 
HETATM   22  C   UNL     1      35.820  42.391  65.225  1.00  0.00     0.030 A 
ENDBRANCH  13  16
ENDBRANCH   1  12
BRANCH   2  23
HETATM   23  C   UNL     1      40.040  43.635  63.962  1.00  0.00    -0.028 A 
HETATM   24  C   UNL     1      40.678  42.945  65.009  1.00  0.00     0.011 A 
HETATM   25  C   UNL     1      40.729  41.550  65.015  1.00  0.00     0.024 A 
HETATM   26  C   UNL     1      40.141  40.831  63.979  1.00  0.00     0.034 A 
HETATM   27 CL   UNL     1      40.214  39.112  63.983  1.00  0.00    -0.084 Cl
HETATM   28  C   UNL     1      39.496  41.496  62.938  1.00  0.00     0.024 A 
HETATM   29  C   UNL     1      39.442  42.892  62.930  1.00  0.00     0.011 A 
ENDBRANCH   2  23
BRANCH   7  30
HETATM   30  C   UNL     1      44.825  46.151  63.932  1.00  0.00     0.085 C 
BRANCH  30  31
HETATM   31  C   UNL     1      45.733  46.089  65.157  1.00  0.00     0.034 C 
BRANCH  31  32
HETATM   32  C   UNL     1      46.743  47.231  65.212  1.00  0.00     0.164 C 
BRANCH  32  33
HETATM   33  O   UNL     1      46.183  48.391  64.604  1.00  0.00    -0.401 OA
HETATM   34  H   UNL     1      46.826  48.719  63.952  1.00  0.00     0.209 HD
ENDBRANCH  32  33
ENDBRANCH  31  32
ENDBRANCH  30  31
ENDBRANCH   7  30
TORSDOF 7
ENDMDL
