MODEL 1
REMARK VINA RESULT:     -10.5      0.000      0.000
REMARK  2 active torsions:
REMARK  status: ('A' for Active; 'I' for Inactive)
REMARK    1  A    between atoms: C_4  and  C_5 
REMARK       I    between atoms: N_12  and  C_13 
REMARK    2  A    between atoms: C_13  and  C_14 
ROOT
HETATM    1  C   UNL     1      23.469  49.625  48.259  1.00  0.00     0.097 A 
HETATM    2  N   UNL     1      24.091  50.542  47.492  1.00  0.00    -0.173 NA
HETATM    3  N   UNL     1      25.402  50.330  47.678  1.00  0.00    -0.281 N 
HETATM    4  H   UNL     1      26.059  50.920  47.177  1.00  0.00     0.189 HD
HETATM    5  C   UNL     1      25.651  49.310  48.532  1.00  0.00     0.039 A 
HETATM    6  C   UNL     1      24.433  48.821  48.941  1.00  0.00     0.015 A 
HETATM    7  C   UNL     1      24.288  47.683  49.885  1.00  0.00     0.168 C 
HETATM    8  N   UNL     1      25.594  47.071  50.220  1.00  0.00    -0.347 N 
HETATM    9  C   UNL     1      25.497  45.919  51.004  1.00  0.00     0.226 C 
HETATM   10  O   UNL     1      24.401  45.404  51.245  1.00  0.00    -0.273 OA
HETATM   11  C   UNL     1      26.786  47.957  50.229  1.00  0.00     0.132 C 
HETATM   12  C   UNL     1      26.965  48.776  48.934  1.00  0.00     0.079 C 
ENDROOT
BRANCH   9  13
HETATM   13  C   UNL     1      26.774  45.290  51.534  1.00  0.00     0.106 C 
HETATM   14  C   UNL     1      26.807  43.799  51.228  1.00  0.00     0.190 C 
HETATM   15  O   UNL     1      28.075  43.219  51.561  1.00  0.00    -0.350 OA
HETATM   16  C   UNL     1      28.548  43.557  52.803  1.00  0.00     0.075 A 
HETATM   17  C   UNL     1      28.039  44.619  53.562  1.00  0.00    -0.024 A 
HETATM   18  C   UNL     1      29.620  42.804  53.279  1.00  0.00     0.037 A 
HETATM   19  C   UNL     1      26.889  45.442  53.052  1.00  0.00     0.057 C 
HETATM   20  C   UNL     1      28.593  44.891  54.819  1.00  0.00     0.010 A 
HETATM   21  C   UNL     1      29.661  44.129  55.298  1.00  0.00     0.001 A 
HETATM   22  C   UNL     1      30.175  43.088  54.527  1.00  0.00     0.003 A 
ENDBRANCH   9  13
BRANCH   1  23
HETATM   23  C   UNL     1      22.001  49.547  48.280  1.00  0.00    -0.005 A 
HETATM   24  C   UNL     1      21.249  50.689  48.602  1.00  0.00     0.014 A 
HETATM   25  C   UNL     1      19.851  50.651  48.616  1.00  0.00     0.001 A 
HETATM   26  C   UNL     1      19.184  49.468  48.310  1.00  0.00     0.000 A 
HETATM   27  C   UNL     1      19.915  48.323  48.001  1.00  0.00     0.001 A 
HETATM   28  C   UNL     1      21.314  48.361  47.993  1.00  0.00     0.014 A 
ENDBRANCH   1  23
TORSDOF 2
ENDMDL
MODEL 2
REMARK VINA RESULT:      -9.6      5.346      9.086
REMARK  2 active torsions:
REMARK  status: ('A' for Active; 'I' for Inactive)
REMARK    1  A    between atoms: C_4  and  C_5 
REMARK       I    between atoms: N_12  and  C_13 
REMARK    2  A    between atoms: C_13  and  C_14 
ROOT
HETATM    1  C   UNL     1      28.386  45.460  54.864  1.00  0.00     0.097 A 
HETATM    2  N   UNL     1      27.614  46.565  54.807  1.00  0.00    -0.173 NA
HETATM    3  N   UNL     1      26.888  46.433  53.688  1.00  0.00    -0.281 N 
HETATM    4  H   UNL     1      26.225  47.166  53.458  1.00  0.00     0.189 HD
HETATM    5  C   UNL     1      27.156  45.286  53.021  1.00  0.00     0.039 A 
HETATM    6  C   UNL     1      28.124  44.621  53.739  1.00  0.00     0.015 A 
HETATM    7  C   UNL     1      28.682  43.308  53.328  1.00  0.00     0.168 C 
HETATM    8  N   UNL     1      27.986  42.754  52.143  1.00  0.00    -0.347 N 
HETATM    9  C   UNL     1      28.392  41.464  51.797  1.00  0.00     0.226 C 
HETATM   10  O   UNL     1      29.151  40.818  52.526  1.00  0.00    -0.273 OA
HETATM   11  C   UNL     1      27.433  43.719  51.159  1.00  0.00     0.132 C 
HETATM   12  C   UNL     1      26.522  44.796  51.784  1.00  0.00     0.079 C 
ENDROOT
BRANCH   9  13
HETATM   13  C   UNL     1      27.857  40.853  50.513  1.00  0.00     0.106 C 
HETATM   14  C   UNL     1      26.420  40.385  50.699  1.00  0.00     0.190 C 
HETATM   15  O   UNL     1      25.836  39.966  49.458  1.00  0.00    -0.350 OA
HETATM   16  C   UNL     1      26.620  39.122  48.716  1.00  0.00     0.075 A 
HETATM   17  C   UNL     1      27.988  38.930  48.949  1.00  0.00    -0.024 A 
HETATM   18  C   UNL     1      25.990  38.470  47.656  1.00  0.00     0.037 A 
HETATM   19  C   UNL     1      28.676  39.635  50.084  1.00  0.00     0.057 C 
HETATM   20  C   UNL     1      28.706  38.049  48.131  1.00  0.00     0.010 A 
HETATM   21  C   UNL     1      28.072  37.391  47.076  1.00  0.00     0.001 A 
HETATM   22  C   UNL     1      26.715  37.604  46.837  1.00  0.00     0.003 A 
ENDBRANCH   9  13
BRANCH   1  23
HETATM   23  C   UNL     1      29.305  45.254  55.992  1.00  0.00    -0.005 A 
HETATM   24  C   UNL     1      29.146  46.010  57.166  1.00  0.00     0.014 A 
HETATM   25  C   UNL     1      29.995  45.826  58.262  1.00  0.00     0.001 A 
HETATM   26  C   UNL     1      31.018  44.885  58.199  1.00  0.00     0.000 A 
HETATM   27  C   UNL     1      31.198  44.136  57.038  1.00  0.00     0.001 A 
HETATM   28  C   UNL     1      30.352  44.324  55.940  1.00  0.00     0.014 A 
ENDBRANCH   1  23
TORSDOF 2
ENDMDL
MODEL 3
REMARK VINA RESULT:      -9.5      2.668      4.342
REMARK  2 active torsions:
REMARK  status: ('A' for Active; 'I' for Inactive)
REMARK    1  A    between atoms: C_4  and  C_5 
REMARK       I    between atoms: N_12  and  C_13 
REMARK    2  A    between atoms: C_13  and  C_14 
ROOT
HETATM    1  C   UNL     1      24.138  46.520  49.981  1.00  0.00     0.097 A 
HETATM    2  N   UNL     1      23.565  45.425  49.443  1.00  0.00    -0.173 NA
HETATM    3  N   UNL     1      23.991  44.397  50.191  1.00  0.00    -0.281 N 
HETATM    4  H   UNL     1      23.665  43.466  49.955  1.00  0.00     0.189 HD
HETATM    5  C   UNL     1      24.815  44.785  51.193  1.00  0.00     0.039 A 
HETATM    6  C   UNL     1      24.947  46.151  51.098  1.00  0.00     0.015 A 
HETATM    7  C   UNL     1      25.775  46.954  52.034  1.00  0.00     0.168 C 
HETATM    8  N   UNL     1      26.323  46.131  53.137  1.00  0.00    -0.347 N 
HETATM    9  C   UNL     1      27.002  46.866  54.110  1.00  0.00     0.226 C 
HETATM   10  O   UNL     1      26.993  48.100  54.099  1.00  0.00    -0.273 OA
HETATM   11  C   UNL     1      26.619  44.704  52.848  1.00  0.00     0.132 C 
HETATM   12  C   UNL     1      25.435  43.935  52.225  1.00  0.00     0.079 C 
ENDROOT
BRANCH   9  13
HETATM   13  C   UNL     1      27.735  46.114  55.210  1.00  0.00     0.106 C 
HETATM   14  C   UNL     1      28.031  47.036  56.385  1.00  0.00     0.190 C 
HETATM   15  O   UNL     1      28.563  46.311  57.502  1.00  0.00    -0.350 OA
HETATM   16  C   UNL     1      29.576  45.443  57.188  1.00  0.00     0.075 A 
HETATM   17  C   UNL     1      29.863  45.029  55.881  1.00  0.00    -0.024 A 
HETATM   18  C   UNL     1      30.307  44.936  58.262  1.00  0.00     0.037 A 
HETATM   19  C   UNL     1      29.075  45.564  54.719  1.00  0.00     0.057 C 
HETATM   20  C   UNL     1      30.917  44.132  55.662  1.00  0.00     0.010 A 
HETATM   21  C   UNL     1      31.654  43.634  56.738  1.00  0.00     0.001 A 
HETATM   22  C   UNL     1      31.347  44.033  58.037  1.00  0.00     0.003 A 
ENDBRANCH   9  13
BRANCH   1  23
HETATM   23  C   UNL     1      23.866  47.852  49.421  1.00  0.00    -0.005 A 
HETATM   24  C   UNL     1      24.936  48.697  49.083  1.00  0.00     0.014 A 
HETATM   25  C   UNL     1      24.709  49.963  48.535  1.00  0.00     0.001 A 
HETATM   26  C   UNL     1      23.408  50.404  48.318  1.00  0.00     0.000 A 
HETATM   27  C   UNL     1      22.334  49.584  48.658  1.00  0.00     0.001 A 
HETATM   28  C   UNL     1      22.562  48.319  49.212  1.00  0.00     0.014 A 
ENDBRANCH   1  23
TORSDOF 2
ENDMDL
MODEL 4
REMARK VINA RESULT:      -9.3      1.971      2.491
REMARK  2 active torsions:
REMARK  status: ('A' for Active; 'I' for Inactive)
REMARK    1  A    between atoms: C_4  and  C_5 
REMARK       I    between atoms: N_12  and  C_13 
REMARK    2  A    between atoms: C_13  and  C_14 
ROOT
HETATM    1  C   UNL     1      21.938  47.531  48.167  1.00  0.00     0.097 A 
HETATM    2  N   UNL     1      21.455  46.765  47.168  1.00  0.00    -0.173 NA
HETATM    3  N   UNL     1      22.181  45.638  47.203  1.00  0.00    -0.281 N 
HETATM    4  H   UNL     1      21.970  44.911  46.526  1.00  0.00     0.189 HD
HETATM    5  C   UNL     1      23.111  45.644  48.186  1.00  0.00     0.039 A 
HETATM    6  C   UNL     1      22.999  46.850  48.838  1.00  0.00     0.015 A 
HETATM    7  C   UNL     1      23.852  47.234  49.992  1.00  0.00     0.168 C 
HETATM    8  N   UNL     1      24.732  46.123  50.425  1.00  0.00    -0.347 N 
HETATM    9  C   UNL     1      25.460  46.396  51.584  1.00  0.00     0.226 C 
HETATM   10  O   UNL     1      25.248  47.417  52.245  1.00  0.00    -0.273 OA
HETATM   11  C   UNL     1      25.192  45.167  49.386  1.00  0.00     0.132 C 
HETATM   12  C   UNL     1      24.051  44.565  48.541  1.00  0.00     0.079 C 
ENDROOT
BRANCH   9  13
HETATM   13  C   UNL     1      26.505  45.391  52.039  1.00  0.00     0.106 C 
HETATM   14  C   UNL     1      25.862  44.042  52.335  1.00  0.00     0.190 C 
HETATM   15  O   UNL     1      26.846  43.034  52.596  1.00  0.00    -0.350 OA
HETATM   16  C   UNL     1      27.824  43.406  53.482  1.00  0.00     0.075 A 
HETATM   17  C   UNL     1      28.061  44.735  53.858  1.00  0.00    -0.024 A 
HETATM   18  C   UNL     1      28.627  42.381  53.980  1.00  0.00     0.037 A 
HETATM   19  C   UNL     1      27.205  45.847  53.321  1.00  0.00     0.057 C 
HETATM   20  C   UNL     1      29.089  45.016  54.768  1.00  0.00     0.010 A 
HETATM   21  C   UNL     1      29.886  43.987  55.272  1.00  0.00     0.001 A 
HETATM   22  C   UNL     1      29.656  42.671  54.876  1.00  0.00     0.003 A 
ENDBRANCH   9  13
BRANCH   1  23
HETATM   23  C   UNL     1      21.349  48.850  48.441  1.00  0.00    -0.005 A 
HETATM   24  C   UNL     1      20.091  48.935  49.059  1.00  0.00     0.014 A 
HETATM   25  C   UNL     1      19.512  50.174  49.347  1.00  0.00     0.001 A 
HETATM   26  C   UNL     1      20.182  51.349  49.018  1.00  0.00     0.000 A 
HETATM   27  C   UNL     1      21.426  51.283  48.394  1.00  0.00     0.001 A 
HETATM   28  C   UNL     1      22.002  50.042  48.101  1.00  0.00     0.014 A 
ENDBRANCH   1  23
TORSDOF 2
ENDMDL
MODEL 5
REMARK VINA RESULT:      -9.0      2.211      9.217
REMARK  2 active torsions:
REMARK  status: ('A' for Active; 'I' for Inactive)
REMARK    1  A    between atoms: C_4  and  C_5 
REMARK       I    between atoms: N_12  and  C_13 
REMARK    2  A    between atoms: C_13  and  C_14 
ROOT
HETATM    1  C   UNL     1      27.348  43.176  52.515  1.00  0.00     0.097 A 
HETATM    2  N   UNL     1      27.014  41.893  52.270  1.00  0.00    -0.173 NA
HETATM    3  N   UNL     1      26.047  41.949  51.342  1.00  0.00    -0.281 N 
HETATM    4  H   UNL     1      25.654  41.076  51.006  1.00  0.00     0.189 HD
HETATM    5  C   UNL     1      25.746  43.217  50.975  1.00  0.00     0.039 A 
HETATM    6  C   UNL     1      26.558  44.050  51.709  1.00  0.00     0.015 A 
HETATM    7  C   UNL     1      26.529  45.530  51.584  1.00  0.00     0.168 C 
HETATM    8  N   UNL     1      25.627  45.978  50.496  1.00  0.00    -0.347 N 
HETATM    9  C   UNL     1      25.664  47.353  50.258  1.00  0.00     0.226 C 
HETATM   10  O   UNL     1      26.496  48.074  50.816  1.00  0.00    -0.273 OA
HETATM   11  C   UNL     1      24.439  45.137  50.200  1.00  0.00     0.132 C 
HETATM   12  C   UNL     1      24.771  43.650  49.958  1.00  0.00     0.079 C 
ENDROOT
BRANCH   9  13
HETATM   13  C   UNL     1      24.674  47.947  49.270  1.00  0.00     0.106 C 
HETATM   14  C   UNL     1      25.155  49.305  48.778  1.00  0.00     0.190 C 
HETATM   15  O   UNL     1      24.330  49.805  47.718  1.00  0.00    -0.350 OA
HETATM   16  C   UNL     1      22.982  49.729  47.960  1.00  0.00     0.075 A 
HETATM   17  C   UNL     1      22.422  48.948  48.978  1.00  0.00    -0.024 A 
HETATM   18  C   UNL     1      22.161  50.453  47.096  1.00  0.00     0.037 A 
HETATM   19  C   UNL     1      23.300  48.158  49.908  1.00  0.00     0.057 C 
HETATM   20  C   UNL     1      21.031  48.931  49.143  1.00  0.00     0.010 A 
HETATM   21  C   UNL     1      20.210  49.664  48.283  1.00  0.00     0.001 A 
HETATM   22  C   UNL     1      20.775  50.422  47.259  1.00  0.00     0.003 A 
ENDBRANCH   9  13
BRANCH   1  23
HETATM   23  C   UNL     1      28.412  43.495  53.478  1.00  0.00    -0.005 A 
HETATM   24  C   UNL     1      29.600  42.746  53.474  1.00  0.00     0.014 A 
HETATM   25  C   UNL     1      30.636  43.034  54.368  1.00  0.00     0.001 A 
HETATM   26  C   UNL     1      30.498  44.076  55.280  1.00  0.00     0.000 A 
HETATM   27  C   UNL     1      29.321  44.821  55.306  1.00  0.00     0.001 A 
HETATM   28  C   UNL     1      28.282  44.528  54.415  1.00  0.00     0.014 A 
ENDBRANCH   1  23
TORSDOF 2
ENDMDL
MODEL 6
REMARK VINA RESULT:      -8.9      2.851      9.320
REMARK  2 active torsions:
REMARK  status: ('A' for Active; 'I' for Inactive)
REMARK    1  A    between atoms: C_4  and  C_5 
REMARK       I    between atoms: N_12  and  C_13 
REMARK    2  A    between atoms: C_13  and  C_14 
ROOT
HETATM    1  C   UNL     1      29.039  43.087  53.343  1.00  0.00     0.097 A 
HETATM    2  N   UNL     1      29.518  41.887  52.955  1.00  0.00    -0.173 NA
HETATM    3  N   UNL     1      28.862  41.592  51.824  1.00  0.00    -0.281 N 
HETATM    4  H   UNL     1      29.083  40.719  51.355  1.00  0.00     0.189 HD
HETATM    5  C   UNL     1      27.980  42.554  51.463  1.00  0.00     0.039 A 
HETATM    6  C   UNL     1      28.053  43.543  52.416  1.00  0.00     0.015 A 
HETATM    7  C   UNL     1      27.233  44.781  52.368  1.00  0.00     0.168 C 
HETATM    8  N   UNL     1      26.441  44.874  51.119  1.00  0.00    -0.347 N 
HETATM    9  C   UNL     1      25.754  46.080  50.971  1.00  0.00     0.226 C 
HETATM   10  O   UNL     1      25.936  47.017  51.753  1.00  0.00    -0.273 OA
HETATM   11  C   UNL     1      25.990  43.603  50.496  1.00  0.00     0.132 C 
HETATM   12  C   UNL     1      27.123  42.584  50.264  1.00  0.00     0.079 C 
ENDROOT
BRANCH   9  13
HETATM   13  C   UNL     1      24.792  46.230  49.804  1.00  0.00     0.106 C 
HETATM   14  C   UNL     1      24.193  47.630  49.778  1.00  0.00     0.190 C 
HETATM   15  O   UNL     1      23.420  47.851  48.591  1.00  0.00    -0.350 OA
HETATM   16  C   UNL     1      22.537  46.846  48.290  1.00  0.00     0.075 A 
HETATM   17  C   UNL     1      22.590  45.571  48.868  1.00  0.00    -0.024 A 
HETATM   18  C   UNL     1      21.576  47.141  47.323  1.00  0.00     0.037 A 
HETATM   19  C   UNL     1      23.627  45.243  49.905  1.00  0.00     0.057 C 
HETATM   20  C   UNL     1      21.644  44.609  48.491  1.00  0.00     0.010 A 
HETATM   21  C   UNL     1      20.678  44.908  47.529  1.00  0.00     0.001 A 
HETATM   22  C   UNL     1      20.646  46.173  46.944  1.00  0.00     0.003 A 
ENDBRANCH   9  13
BRANCH   1  23
HETATM   23  C   UNL     1      29.561  43.739  54.552  1.00  0.00    -0.005 A 
HETATM   24  C   UNL     1      30.642  43.164  55.241  1.00  0.00     0.014 A 
HETATM   25  C   UNL     1      31.171  43.768  56.385  1.00  0.00     0.001 A 
HETATM   26  C   UNL     1      30.625  44.957  56.860  1.00  0.00     0.000 A 
HETATM   27  C   UNL     1      29.545  45.535  56.196  1.00  0.00     0.001 A 
HETATM   28  C   UNL     1      29.012  44.926  55.054  1.00  0.00     0.014 A 
ENDBRANCH   1  23
TORSDOF 2
ENDMDL
MODEL 7
REMARK VINA RESULT:      -8.6      3.154      9.425
REMARK  2 active torsions:
REMARK  status: ('A' for Active; 'I' for Inactive)
REMARK    1  A    between atoms: C_4  and  C_5 
REMARK       I    between atoms: N_12  and  C_13 
REMARK    2  A    between atoms: C_13  and  C_14 
ROOT
HETATM    1  C   UNL     1      28.200  42.518  53.261  1.00  0.00     0.097 A 
HETATM    2  N   UNL     1      28.605  41.242  53.103  1.00  0.00    -0.173 NA
HETATM    3  N   UNL     1      27.819  40.737  52.141  1.00  0.00    -0.281 N 
HETATM    4  H   UNL     1      27.965  39.773  51.860  1.00  0.00     0.189 HD
HETATM    5  C   UNL     1      26.924  41.636  51.670  1.00  0.00     0.039 A 
HETATM    6  C   UNL     1      27.126  42.806  52.364  1.00  0.00     0.015 A 
HETATM    7  C   UNL     1      26.335  44.040  52.126  1.00  0.00     0.168 C 
HETATM    8  N   UNL     1      25.409  43.894  50.979  1.00  0.00    -0.347 N 
HETATM    9  C   UNL     1      24.736  45.069  50.639  1.00  0.00     0.226 C 
HETATM   10  O   UNL     1      25.027  46.145  51.168  1.00  0.00    -0.273 OA
HETATM   11  C   UNL     1      24.860  42.540  50.708  1.00  0.00     0.132 C 
HETATM   12  C   UNL     1      25.937  41.442  50.591  1.00  0.00     0.079 C 
ENDROOT
BRANCH   9  13
HETATM   13  C   UNL     1      23.652  45.004  49.576  1.00  0.00     0.106 C 
HETATM   14  C   UNL     1      24.194  44.391  48.292  1.00  0.00     0.190 C 
HETATM   15  O   UNL     1      23.150  44.159  47.337  1.00  0.00    -0.350 OA
HETATM   16  C   UNL     1      22.303  45.220  47.149  1.00  0.00     0.075 A 
HETATM   17  C   UNL     1      22.226  46.313  48.022  1.00  0.00    -0.024 A 
HETATM   18  C   UNL     1      21.460  45.146  46.041  1.00  0.00     0.037 A 
HETATM   19  C   UNL     1      23.125  46.397  49.224  1.00  0.00     0.057 C 
HETATM   20  C   UNL     1      21.323  47.347  47.748  1.00  0.00     0.010 A 
HETATM   21  C   UNL     1      20.486  47.276  46.632  1.00  0.00     0.001 A 
HETATM   22  C   UNL     1      20.554  46.174  45.781  1.00  0.00     0.003 A 
ENDBRANCH   9  13
BRANCH   1  23
HETATM   23  C   UNL     1      28.871  43.395  54.231  1.00  0.00    -0.005 A 
HETATM   24  C   UNL     1      30.128  43.033  54.742  1.00  0.00     0.014 A 
HETATM   25  C   UNL     1      30.798  43.853  55.655  1.00  0.00     0.001 A 
HETATM   26  C   UNL     1      30.219  45.048  56.072  1.00  0.00     0.000 A 
HETATM   27  C   UNL     1      28.967  45.417  55.585  1.00  0.00     0.001 A 
HETATM   28  C   UNL     1      28.295  44.592  54.675  1.00  0.00     0.014 A 
ENDBRANCH   1  23
TORSDOF 2
ENDMDL
MODEL 8
REMARK VINA RESULT:      -8.4      5.411      8.226
REMARK  2 active torsions:
REMARK  status: ('A' for Active; 'I' for Inactive)
REMARK    1  A    between atoms: C_4  and  C_5 
REMARK       I    between atoms: N_12  and  C_13 
REMARK    2  A    between atoms: C_13  and  C_14 
ROOT
HETATM    1  C   UNL     1      28.491  44.890  54.510  1.00  0.00     0.097 A 
HETATM    2  N   UNL     1      29.499  44.728  55.390  1.00  0.00    -0.173 NA
HETATM    3  N   UNL     1      30.122  43.602  55.014  1.00  0.00    -0.281 N 
HETATM    4  H   UNL     1      30.929  43.299  55.549  1.00  0.00     0.189 HD
HETATM    5  C   UNL     1      29.559  43.031  53.923  1.00  0.00     0.039 A 
HETATM    6  C   UNL     1      28.495  43.823  53.560  1.00  0.00     0.015 A 
HETATM    7  C   UNL     1      27.623  43.528  52.394  1.00  0.00     0.168 C 
HETATM    8  N   UNL     1      28.113  42.369  51.613  1.00  0.00    -0.347 N 
HETATM    9  C   UNL     1      27.397  42.132  50.438  1.00  0.00     0.226 C 
HETATM   10  O   UNL     1      26.541  42.929  50.043  1.00  0.00    -0.273 OA
HETATM   11  C   UNL     1      28.834  41.300  52.350  1.00  0.00     0.132 C 
HETATM   12  C   UNL     1      30.002  41.816  53.216  1.00  0.00     0.079 C 
ENDROOT
BRANCH   9  13
HETATM   13  C   UNL     1      27.714  40.883  49.633  1.00  0.00     0.106 C 
HETATM   14  C   UNL     1      27.567  41.153  48.141  1.00  0.00     0.190 C 
HETATM   15  O   UNL     1      28.028  40.046  47.357  1.00  0.00    -0.350 OA
HETATM   16  C   UNL     1      27.558  38.824  47.764  1.00  0.00     0.075 A 
HETATM   17  C   UNL     1      26.960  38.601  49.011  1.00  0.00    -0.024 A 
HETATM   18  C   UNL     1      27.744  37.766  46.875  1.00  0.00     0.037 A 
HETATM   19  C   UNL     1      26.764  39.735  49.979  1.00  0.00     0.057 C 
HETATM   20  C   UNL     1      26.516  37.314  49.339  1.00  0.00     0.010 A 
HETATM   21  C   UNL     1      26.695  36.257  48.443  1.00  0.00     0.001 A 
HETATM   22  C   UNL     1      27.311  36.483  47.214  1.00  0.00     0.003 A 
ENDBRANCH   9  13
BRANCH   1  23
HETATM   23  C   UNL     1      27.602  46.056  54.605  1.00  0.00    -0.005 A 
HETATM   24  C   UNL     1      27.758  46.965  55.665  1.00  0.00     0.014 A 
HETATM   25  C   UNL     1      26.937  48.091  55.775  1.00  0.00     0.001 A 
HETATM   26  C   UNL     1      25.945  48.325  54.827  1.00  0.00     0.000 A 
HETATM   27  C   UNL     1      25.768  47.427  53.776  1.00  0.00     0.001 A 
HETATM   28  C   UNL     1      26.586  46.296  53.670  1.00  0.00     0.014 A 
ENDBRANCH   1  23
TORSDOF 2
ENDMDL
MODEL 9
REMARK VINA RESULT:      -8.0     19.374     22.397
REMARK  2 active torsions:
REMARK  status: ('A' for Active; 'I' for Inactive)
REMARK    1  A    between atoms: C_4  and  C_5 
REMARK       I    between atoms: N_12  and  C_13 
REMARK    2  A    between atoms: C_13  and  C_14 
ROOT
HETATM    1  C   UNL     1      40.073  39.760  63.836  1.00  0.00     0.097 A 
HETATM    2  N   UNL     1      39.678  39.320  62.624  1.00  0.00    -0.173 NA
HETATM    3  N   UNL     1      39.183  40.397  61.998  1.00  0.00    -0.281 N 
HETATM    4  H   UNL     1      38.832  40.283  61.053  1.00  0.00     0.189 HD
HETATM    5  C   UNL     1      39.244  41.517  62.756  1.00  0.00     0.039 A 
HETATM    6  C   UNL     1      39.809  41.158  63.958  1.00  0.00     0.015 A 
HETATM    7  C   UNL     1      40.051  42.122  65.063  1.00  0.00     0.168 C 
HETATM    8  N   UNL     1      39.735  43.514  64.665  1.00  0.00    -0.347 N 
HETATM    9  C   UNL     1      40.067  44.468  65.627  1.00  0.00     0.226 C 
HETATM   10  O   UNL     1      40.704  44.159  66.638  1.00  0.00    -0.273 OA
HETATM   11  C   UNL     1      38.654  43.714  63.666  1.00  0.00     0.132 C 
HETATM   12  C   UNL     1      38.831  42.881  62.379  1.00  0.00     0.079 C 
ENDROOT
BRANCH   9  13
HETATM   13  C   UNL     1      39.653  45.912  65.393  1.00  0.00     0.106 C 
HETATM   14  C   UNL     1      40.875  46.789  65.154  1.00  0.00     0.190 C 
HETATM   15  O   UNL     1      40.502  48.116  64.759  1.00  0.00    -0.350 OA
HETATM   16  C   UNL     1      39.530  48.690  65.535  1.00  0.00     0.075 A 
HETATM   17  C   UNL     1      38.722  47.968  66.423  1.00  0.00    -0.024 A 
HETATM   18  C   UNL     1      39.341  50.062  65.370  1.00  0.00     0.037 A 
HETATM   19  C   UNL     1      38.913  46.488  66.601  1.00  0.00     0.057 C 
HETATM   20  C   UNL     1      37.749  48.646  67.170  1.00  0.00     0.010 A 
HETATM   21  C   UNL     1      37.568  50.021  67.010  1.00  0.00     0.001 A 
HETATM   22  C   UNL     1      38.362  50.727  66.109  1.00  0.00     0.003 A 
ENDBRANCH   9  13
BRANCH   1  23
HETATM   23  C   UNL     1      40.699  38.837  64.793  1.00  0.00    -0.005 A 
HETATM   24  C   UNL     1      41.993  38.350  64.546  1.00  0.00     0.014 A 
HETATM   25  C   UNL     1      42.620  37.483  65.445  1.00  0.00     0.001 A 
HETATM   26  C   UNL     1      41.962  37.088  66.605  1.00  0.00     0.000 A 
HETATM   27  C   UNL     1      40.673  37.552  66.860  1.00  0.00     0.001 A 
HETATM   28  C   UNL     1      40.043  38.415  65.957  1.00  0.00     0.014 A 
ENDBRANCH   1  23
TORSDOF 2
ENDMDL
MODEL 10
REMARK VINA RESULT:      -8.0      2.496      9.278
REMARK  2 active torsions:
REMARK  status: ('A' for Active; 'I' for Inactive)
REMARK    1  A    between atoms: C_4  and  C_5 
REMARK       I    between atoms: N_12  and  C_13 
REMARK    2  A    between atoms: C_13  and  C_14 
ROOT
HETATM    1  C   UNL     1      26.061  43.350  50.846  1.00  0.00     0.097 A 
HETATM    2  N   UNL     1      26.079  42.160  50.212  1.00  0.00    -0.173 NA
HETATM    3  N   UNL     1      25.224  42.291  49.187  1.00  0.00    -0.281 N 
HETATM    4  H   UNL     1      25.094  41.498  48.568  1.00  0.00     0.189 HD
HETATM    5  C   UNL     1      24.657  43.519  49.131  1.00  0.00     0.039 A 
HETATM    6  C   UNL     1      25.162  44.243  50.186  1.00  0.00     0.015 A 
HETATM    7  C   UNL     1      24.782  45.652  50.462  1.00  0.00     0.168 C 
HETATM    8  N   UNL     1      23.908  46.209  49.403  1.00  0.00    -0.347 N 
HETATM    9  C   UNL     1      23.628  47.568  49.554  1.00  0.00     0.226 C 
HETATM   10  O   UNL     1      24.198  48.244  50.415  1.00  0.00    -0.273 OA
HETATM   11  C   UNL     1      22.999  45.269  48.698  1.00  0.00     0.132 C 
HETATM   12  C   UNL     1      23.709  44.026  48.123  1.00  0.00     0.079 C 
ENDROOT
BRANCH   9  13
HETATM   13  C   UNL     1      22.624  48.212  48.613  1.00  0.00     0.106 C 
HETATM   14  C   UNL     1      22.836  49.719  48.551  1.00  0.00     0.190 C 
HETATM   15  O   UNL     1      22.018  50.325  47.541  1.00  0.00    -0.350 OA
HETATM   16  C   UNL     1      20.705  49.934  47.560  1.00  0.00     0.075 A 
HETATM   17  C   UNL     1      20.242  48.812  48.259  1.00  0.00    -0.024 A 
HETATM   18  C   UNL     1      19.824  50.698  46.795  1.00  0.00     0.037 A 
HETATM   19  C   UNL     1      21.185  47.978  49.079  1.00  0.00     0.057 C 
HETATM   20  C   UNL     1      18.879  48.489  48.212  1.00  0.00     0.010 A 
HETATM   21  C   UNL     1      17.997  49.261  47.453  1.00  0.00     0.001 A 
HETATM   22  C   UNL     1      18.470  50.363  46.743  1.00  0.00     0.003 A 
ENDBRANCH   9  13
BRANCH   1  23
HETATM   23  C   UNL     1      26.914  43.578  52.021  1.00  0.00    -0.005 A 
HETATM   24  C   UNL     1      26.327  43.908  53.254  1.00  0.00     0.014 A 
HETATM   25  C   UNL     1      27.111  44.116  54.392  1.00  0.00     0.001 A 
HETATM   26  C   UNL     1      28.496  43.999  54.315  1.00  0.00     0.000 A 
HETATM   27  C   UNL     1      29.096  43.685  53.097  1.00  0.00     0.001 A 
HETATM   28  C   UNL     1      28.311  43.482  51.956  1.00  0.00     0.014 A 
ENDBRANCH   1  23
TORSDOF 2
ENDMDL
