MODEL 1
REMARK VINA RESULT:      -8.0      0.000      0.000
REMARK  10 active torsions:
REMARK  status: ('A' for Active; 'I' for Inactive)
REMARK    1  A    between atoms: C_3  and  C_4 
REMARK    2  A    between atoms: C_4  and  C_5 
REMARK       I    between atoms: C_5  and  N_6 
REMARK    3  A    between atoms: N_6  and  C_7 
REMARK    4  A    between atoms: C_7  and  C_8 
REMARK    5  A    between atoms: C_18  and  N_19 
REMARK       I    between atoms: N_19  and  C_20 
REMARK    6  A    between atoms: C_20  and  C_21 
REMARK    7  A    between atoms: C_21  and  O_22 
REMARK    8  A    between atoms: C_28  and  C_29 
REMARK    9  A    between atoms: C_29  and  O_30 
REMARK   10  A    between atoms: C_32  and  O_33 
ROOT
HETATM    1  C   UNL     1      31.666  50.301  42.830  1.00  0.00     0.016 C 
HETATM    2  C   UNL     1      31.145  50.969  41.508  1.00  0.00    -0.030 C 
HETATM    3  C   UNL     1      31.678  50.009  40.327  1.00  0.00     0.056 C 
HETATM    4  C   UNL     1      30.631  48.983  39.937  1.00  0.00     0.056 A 
HETATM    5  C   UNL     1      29.403  48.855  40.547  1.00  0.00     0.012 A 
HETATM    6  S   UNL     1      28.527  47.568  39.862  1.00  0.00    -0.055 SA
HETATM    7  C   UNL     1      29.809  47.283  38.779  1.00  0.00     0.174 A 
HETATM    8  N   UNL     1      30.851  48.078  38.907  1.00  0.00    -0.227 NA
HETATM    9  C   UNL     1      28.873  49.696  41.644  1.00  0.00     0.055 C 
HETATM   10  C   UNL     1      29.559  51.087  41.647  1.00  0.00     0.012 C 
HETATM   11  C   UNL     1      28.842  52.173  40.741  1.00  0.00     0.008 C 
HETATM   12  C   UNL     1      27.404  52.430  41.284  1.00  0.00     0.020 C 
HETATM   13  C   UNL     1      29.612  53.521  40.874  1.00  0.00     0.128 C 
HETATM   14  C   UNL     1      31.100  53.388  40.581  1.00  0.00     0.033 C 
HETATM   15  C   UNL     1      31.764  52.391  41.518  1.00  0.00     0.013 C 
ENDROOT
BRANCH   3  16
HETATM   16  C   UNL     1      32.305  50.684  39.093  1.00  0.00     0.114 C 
BRANCH  16  17
HETATM   17  C   UNL     1      33.769  51.019  39.314  1.00  0.00     0.218 C 
HETATM   18  N   UNL     1      34.398  50.204  40.216  1.00  0.00    -0.357 N 
HETATM   19  H   UNL     1      33.793  49.795  40.926  1.00  0.00     0.162 HD
HETATM   20  O   UNL     1      34.326  51.931  38.710  1.00  0.00    -0.274 OA
BRANCH  18  21
HETATM   21  C   UNL     1      35.781  50.399  40.572  1.00  0.00     0.161 C 
BRANCH  21  22
HETATM   22  C   UNL     1      35.879  51.266  41.798  1.00  0.00    -0.041 A 
HETATM   23  C   UNL     1      37.035  52.029  42.024  1.00  0.00     0.009 A 
HETATM   24  C   UNL     1      37.158  52.811  43.173  1.00  0.00     0.001 A 
HETATM   25  C   UNL     1      36.125  52.839  44.108  1.00  0.00     0.000 A 
HETATM   26  C   UNL     1      34.972  52.086  43.893  1.00  0.00     0.001 A 
HETATM   27  C   UNL     1      34.848  51.302  42.744  1.00  0.00     0.009 A 
ENDBRANCH  21  22
ENDBRANCH  18  21
ENDBRANCH  16  17
ENDBRANCH   3  16
BRANCH  11  28
HETATM   28  C   UNL     1      28.690  51.746  39.258  1.00  0.00     0.176 C 
BRANCH  28  29
HETATM   29  O   UNL     1      27.361  51.360  38.922  1.00  0.00    -0.400 OA
HETATM   30  H   UNL     1      27.436  50.529  38.405  1.00  0.00     0.209 HD
ENDBRANCH  28  29
ENDBRANCH  11  28
BRANCH   7  31
HETATM   31  N   UNL     1      29.767  46.300  37.825  1.00  0.00    -0.304 N 
HETATM   32  C   UNL     1      29.659  44.941  38.028  1.00  0.00     0.247 C 
HETATM   33  O   UNL     1      29.584  44.345  39.098  1.00  0.00    -0.271 OA
HETATM   34  H   UNL     1      29.842  46.626  36.868  1.00  0.00     0.171 HD
BRANCH  32  35
HETATM   35  C   UNL     1      29.593  44.176  36.703  1.00  0.00     0.270 C 
BRANCH  35  36
HETATM   36  O   UNL     1      28.468  44.533  35.905  1.00  0.00    -0.387 OA
HETATM   37  C   UNL     1      27.243  44.102  36.488  1.00  0.00     0.202 C 
ENDBRANCH  35  36
ENDBRANCH  32  35
ENDBRANCH   7  31
BRANCH  13  38
HETATM   38  O   UNL     1      29.072  54.506  39.989  1.00  0.00    -0.395 OA
HETATM   39  H   UNL     1      29.779  54.756  39.364  1.00  0.00     0.210 HD
ENDBRANCH  13  38
TORSDOF 10
ENDMDL
MODEL 2
REMARK VINA RESULT:      -8.0     11.352     13.520
REMARK  10 active torsions:
REMARK  status: ('A' for Active; 'I' for Inactive)
REMARK    1  A    between atoms: C_3  and  C_4 
REMARK    2  A    between atoms: C_4  and  C_5 
REMARK       I    between atoms: C_5  and  N_6 
REMARK    3  A    between atoms: N_6  and  C_7 
REMARK    4  A    between atoms: C_7  and  C_8 
REMARK    5  A    between atoms: C_18  and  N_19 
REMARK       I    between atoms: N_19  and  C_20 
REMARK    6  A    between atoms: C_20  and  C_21 
REMARK    7  A    between atoms: C_21  and  O_22 
REMARK    8  A    between atoms: C_28  and  C_29 
REMARK    9  A    between atoms: C_29  and  O_30 
REMARK   10  A    between atoms: C_32  and  O_33 
ROOT
HETATM    1  C   UNL     1      18.994  49.434  51.052  1.00  0.00     0.016 C 
HETATM    2  C   UNL     1      19.220  49.967  49.593  1.00  0.00    -0.030 C 
HETATM    3  C   UNL     1      20.565  49.234  49.093  1.00  0.00     0.056 C 
HETATM    4  C   UNL     1      20.249  47.966  48.323  1.00  0.00     0.056 A 
HETATM    5  C   UNL     1      18.978  47.476  48.121  1.00  0.00     0.012 A 
HETATM    6  S   UNL     1      19.031  46.015  47.253  1.00  0.00    -0.055 SA
HETATM    7  C   UNL     1      20.727  46.138  47.166  1.00  0.00     0.174 A 
HETATM    8  N   UNL     1      21.252  47.192  47.756  1.00  0.00    -0.227 NA
HETATM    9  C   UNL     1      17.712  48.098  48.573  1.00  0.00     0.055 C 
HETATM   10  C   UNL     1      17.895  49.626  48.770  1.00  0.00     0.012 C 
HETATM   11  C   UNL     1      17.619  50.491  47.470  1.00  0.00     0.008 C 
HETATM   12  C   UNL     1      16.133  50.314  47.037  1.00  0.00     0.020 C 
HETATM   13  C   UNL     1      17.799  51.998  47.825  1.00  0.00     0.128 C 
HETATM   14  C   UNL     1      19.144  52.301  48.470  1.00  0.00     0.033 C 
HETATM   15  C   UNL     1      19.339  51.505  49.752  1.00  0.00     0.013 C 
ENDROOT
BRANCH   3  16
HETATM   16  C   UNL     1      21.615  50.096  48.367  1.00  0.00     0.114 C 
BRANCH  16  17
HETATM   17  C   UNL     1      22.980  50.000  49.023  1.00  0.00     0.218 C 
HETATM   18  N   UNL     1      23.629  48.817  48.790  1.00  0.00    -0.357 N 
HETATM   19  H   UNL     1      23.024  48.018  48.612  1.00  0.00     0.162 HD
HETATM   20  O   UNL     1      23.450  50.920  49.684  1.00  0.00    -0.274 OA
BRANCH  18  21
HETATM   21  C   UNL     1      24.922  48.540  49.364  1.00  0.00     0.161 C 
BRANCH  21  22
HETATM   22  C   UNL     1      24.873  47.256  50.147  1.00  0.00    -0.041 A 
HETATM   23  C   UNL     1      24.130  46.169  49.662  1.00  0.00     0.009 A 
HETATM   24  C   UNL     1      24.045  44.983  50.392  1.00  0.00     0.001 A 
HETATM   25  C   UNL     1      24.701  44.873  51.616  1.00  0.00     0.000 A 
HETATM   26  C   UNL     1      25.442  45.946  52.107  1.00  0.00     0.001 A 
HETATM   27  C   UNL     1      25.528  47.133  51.378  1.00  0.00     0.009 A 
ENDBRANCH  21  22
ENDBRANCH  18  21
ENDBRANCH  16  17
ENDBRANCH   3  16
BRANCH  11  28
HETATM   28  C   UNL     1      18.492  50.084  46.253  1.00  0.00     0.176 C 
BRANCH  28  29
HETATM   29  O   UNL     1      18.031  50.641  45.026  1.00  0.00    -0.400 OA
HETATM   30  H   UNL     1      18.827  50.965  44.551  1.00  0.00     0.209 HD
ENDBRANCH  28  29
ENDBRANCH  11  28
BRANCH   7  31
HETATM   31  N   UNL     1      21.504  45.214  46.519  1.00  0.00    -0.304 N 
HETATM   32  C   UNL     1      21.898  43.978  46.987  1.00  0.00     0.247 C 
HETATM   33  O   UNL     1      21.637  43.466  48.072  1.00  0.00    -0.271 OA
HETATM   34  H   UNL     1      21.830  45.493  45.601  1.00  0.00     0.171 HD
BRANCH  32  35
HETATM   35  C   UNL     1      22.721  43.216  45.944  1.00  0.00     0.270 C 
BRANCH  35  36
HETATM   36  O   UNL     1      23.483  44.072  45.097  1.00  0.00    -0.387 OA
HETATM   37  C   UNL     1      23.447  43.646  43.738  1.00  0.00     0.202 C 
ENDBRANCH  35  36
ENDBRANCH  32  35
ENDBRANCH   7  31
BRANCH  13  38
HETATM   38  O   UNL     1      17.672  52.816  46.660  1.00  0.00    -0.395 OA
HETATM   39  H   UNL     1      17.723  52.228  45.883  1.00  0.00     0.210 HD
ENDBRANCH  13  38
TORSDOF 10
ENDMDL
MODEL 3
REMARK VINA RESULT:      -7.6     11.369     13.454
REMARK  10 active torsions:
REMARK  status: ('A' for Active; 'I' for Inactive)
REMARK    1  A    between atoms: C_3  and  C_4 
REMARK    2  A    between atoms: C_4  and  C_5 
REMARK       I    between atoms: C_5  and  N_6 
REMARK    3  A    between atoms: N_6  and  C_7 
REMARK    4  A    between atoms: C_7  and  C_8 
REMARK    5  A    between atoms: C_18  and  N_19 
REMARK       I    between atoms: N_19  and  C_20 
REMARK    6  A    between atoms: C_20  and  C_21 
REMARK    7  A    between atoms: C_21  and  O_22 
REMARK    8  A    between atoms: C_28  and  C_29 
REMARK    9  A    between atoms: C_29  and  O_30 
REMARK   10  A    between atoms: C_32  and  O_33 
ROOT
HETATM    1  C   UNL     1      18.643  48.492  50.961  1.00  0.00     0.016 C 
HETATM    2  C   UNL     1      18.988  49.273  49.643  1.00  0.00    -0.030 C 
HETATM    3  C   UNL     1      19.834  48.225  48.757  1.00  0.00     0.056 C 
HETATM    4  C   UNL     1      18.939  47.472  47.791  1.00  0.00     0.056 A 
HETATM    5  C   UNL     1      17.572  47.627  47.716  1.00  0.00     0.012 A 
HETATM    6  S   UNL     1      16.916  46.583  46.546  1.00  0.00    -0.055 SA
HETATM    7  C   UNL     1      18.481  46.017  46.185  1.00  0.00     0.174 A 
HETATM    8  N   UNL     1      19.456  46.549  46.892  1.00  0.00    -0.227 NA
HETATM    9  C   UNL     1      16.746  48.559  48.517  1.00  0.00     0.055 C 
HETATM   10  C   UNL     1      17.600  49.753  49.017  1.00  0.00     0.012 C 
HETATM   11  C   UNL     1      17.656  50.983  48.017  1.00  0.00     0.008 C 
HETATM   12  C   UNL     1      16.221  51.561  47.830  1.00  0.00     0.020 C 
HETATM   13  C   UNL     1      18.508  52.116  48.665  1.00  0.00     0.128 C 
HETATM   14  C   UNL     1      19.886  51.644  49.108  1.00  0.00     0.033 C 
HETATM   15  C   UNL     1      19.788  50.513  50.121  1.00  0.00     0.013 C 
ENDROOT
BRANCH   3  16
HETATM   16  C   UNL     1      21.108  48.746  48.067  1.00  0.00     0.114 C 
BRANCH  16  17
HETATM   17  C   UNL     1      22.317  47.884  48.385  1.00  0.00     0.218 C 
HETATM   18  N   UNL     1      22.932  48.200  49.567  1.00  0.00    -0.357 N 
HETATM   19  H   UNL     1      22.826  49.167  49.866  1.00  0.00     0.162 HD
HETATM   20  O   UNL     1      22.682  46.978  47.643  1.00  0.00    -0.274 OA
BRANCH  18  21
HETATM   21  C   UNL     1      24.115  47.506  50.010  1.00  0.00     0.161 C 
BRANCH  21  22
HETATM   22  C   UNL     1      25.344  48.238  49.545  1.00  0.00    -0.041 A 
HETATM   23  C   UNL     1      26.616  47.785  49.930  1.00  0.00     0.009 A 
HETATM   24  C   UNL     1      27.764  48.472  49.537  1.00  0.00     0.001 A 
HETATM   25  C   UNL     1      27.654  49.621  48.756  1.00  0.00     0.000 A 
HETATM   26  C   UNL     1      26.396  50.079  48.367  1.00  0.00     0.001 A 
HETATM   27  C   UNL     1      25.246  49.393  48.760  1.00  0.00     0.009 A 
ENDBRANCH  21  22
ENDBRANCH  18  21
ENDBRANCH  16  17
ENDBRANCH   3  16
BRANCH  11  28
HETATM   28  C   UNL     1      18.178  50.614  46.604  1.00  0.00     0.176 C 
BRANCH  28  29
HETATM   29  O   UNL     1      17.812  51.566  45.609  1.00  0.00    -0.400 OA
HETATM   30  H   UNL     1      17.255  51.088  44.958  1.00  0.00     0.209 HD
ENDBRANCH  28  29
ENDBRANCH  11  28
BRANCH   7  31
HETATM   31  N   UNL     1      18.723  45.078  45.216  1.00  0.00    -0.304 N 
HETATM   32  C   UNL     1      19.207  43.799  45.394  1.00  0.00     0.247 C 
HETATM   33  O   UNL     1      19.517  43.252  46.448  1.00  0.00    -0.271 OA
HETATM   34  H   UNL     1      18.537  45.381  44.267  1.00  0.00     0.171 HD
BRANCH  32  35
HETATM   35  C   UNL     1      19.292  43.039  44.067  1.00  0.00     0.270 C 
BRANCH  35  36
HETATM   36  O   UNL     1      20.240  41.976  44.091  1.00  0.00    -0.387 OA
HETATM   37  C   UNL     1      19.978  41.007  43.080  1.00  0.00     0.202 C 
ENDBRANCH  35  36
ENDBRANCH  32  35
ENDBRANCH   7  31
BRANCH  13  38
HETATM   38  O   UNL     1      18.684  53.205  47.757  1.00  0.00    -0.395 OA
HETATM   39  H   UNL     1      18.225  52.972  46.928  1.00  0.00     0.210 HD
ENDBRANCH  13  38
TORSDOF 10
ENDMDL
MODEL 4
REMARK VINA RESULT:      -7.4     11.300     14.123
REMARK  10 active torsions:
REMARK  status: ('A' for Active; 'I' for Inactive)
REMARK    1  A    between atoms: C_3  and  C_4 
REMARK    2  A    between atoms: C_4  and  C_5 
REMARK       I    between atoms: C_5  and  N_6 
REMARK    3  A    between atoms: N_6  and  C_7 
REMARK    4  A    between atoms: C_7  and  C_8 
REMARK    5  A    between atoms: C_18  and  N_19 
REMARK       I    between atoms: N_19  and  C_20 
REMARK    6  A    between atoms: C_20  and  C_21 
REMARK    7  A    between atoms: C_21  and  O_22 
REMARK    8  A    between atoms: C_28  and  C_29 
REMARK    9  A    between atoms: C_29  and  O_30 
REMARK   10  A    between atoms: C_32  and  O_33 
ROOT
HETATM    1  C   UNL     1      19.256  47.522  45.058  1.00  0.00     0.016 C 
HETATM    2  C   UNL     1      19.156  47.253  46.601  1.00  0.00    -0.030 C 
HETATM    3  C   UNL     1      20.625  46.739  47.023  1.00  0.00     0.056 C 
HETATM    4  C   UNL     1      21.487  47.883  47.522  1.00  0.00     0.056 A 
HETATM    5  C   UNL     1      21.084  49.199  47.562  1.00  0.00     0.012 A 
HETATM    6  S   UNL     1      22.338  50.191  48.140  1.00  0.00    -0.055 SA
HETATM    7  C   UNL     1      23.323  48.816  48.336  1.00  0.00     0.174 A 
HETATM    8  N   UNL     1      22.778  47.670  47.984  1.00  0.00    -0.227 NA
HETATM    9  C   UNL     1      19.756  49.726  47.171  1.00  0.00     0.055 C 
HETATM   10  C   UNL     1      18.677  48.618  47.275  1.00  0.00     0.012 C 
HETATM   11  C   UNL     1      17.987  48.508  48.699  1.00  0.00     0.008 C 
HETATM   12  C   UNL     1      17.236  49.836  49.014  1.00  0.00     0.020 C 
HETATM   13  C   UNL     1      16.903  47.389  48.644  1.00  0.00     0.128 C 
HETATM   14  C   UNL     1      17.445  46.059  48.139  1.00  0.00     0.033 C 
HETATM   15  C   UNL     1      18.032  46.193  46.742  1.00  0.00     0.013 C 
ENDROOT
BRANCH   3  16
HETATM   16  C   UNL     1      20.708  45.514  47.952  1.00  0.00     0.114 C 
BRANCH  16  17
HETATM   17  C   UNL     1      21.889  44.622  47.610  1.00  0.00     0.218 C 
HETATM   18  N   UNL     1      22.950  44.751  48.465  1.00  0.00    -0.357 N 
HETATM   19  H   UNL     1      23.033  45.658  48.920  1.00  0.00     0.162 HD
HETATM   20  O   UNL     1      21.864  43.848  46.659  1.00  0.00    -0.274 OA
BRANCH  18  21
HETATM   21  C   UNL     1      24.168  44.005  48.271  1.00  0.00     0.161 C 
BRANCH  21  22
HETATM   22  C   UNL     1      25.002  44.047  49.523  1.00  0.00    -0.041 A 
HETATM   23  C   UNL     1      26.297  43.508  49.519  1.00  0.00     0.009 A 
HETATM   24  C   UNL     1      27.071  43.506  50.680  1.00  0.00     0.001 A 
HETATM   25  C   UNL     1      26.556  44.042  51.858  1.00  0.00     0.000 A 
HETATM   26  C   UNL     1      25.270  44.581  51.873  1.00  0.00     0.001 A 
HETATM   27  C   UNL     1      24.495  44.584  50.712  1.00  0.00     0.009 A 
ENDBRANCH  21  22
ENDBRANCH  18  21
ENDBRANCH  16  17
ENDBRANCH   3  16
BRANCH  11  28
HETATM   28  C   UNL     1      18.989  48.274  49.861  1.00  0.00     0.176 C 
BRANCH  28  29
HETATM   29  O   UNL     1      18.393  48.410  51.147  1.00  0.00    -0.400 OA
HETATM   30  H   UNL     1      17.668  49.065  51.050  1.00  0.00     0.209 HD
ENDBRANCH  28  29
ENDBRANCH  11  28
BRANCH   7  31
HETATM   31  N   UNL     1      24.597  48.884  48.837  1.00  0.00    -0.304 N 
HETATM   32  C   UNL     1      25.676  49.545  48.290  1.00  0.00     0.247 C 
HETATM   33  O   UNL     1      25.711  50.197  47.251  1.00  0.00    -0.271 OA
HETATM   34  H   UNL     1      24.749  48.370  49.697  1.00  0.00     0.171 HD
BRANCH  32  35
HETATM   35  C   UNL     1      26.919  49.426  49.177  1.00  0.00     0.270 C 
BRANCH  35  36
HETATM   36  O   UNL     1      27.758  48.331  48.821  1.00  0.00    -0.387 OA
HETATM   37  C   UNL     1      27.329  47.113  49.422  1.00  0.00     0.202 C 
ENDBRANCH  35  36
ENDBRANCH  32  35
ENDBRANCH   7  31
BRANCH  13  38
HETATM   38  O   UNL     1      16.329  47.171  49.935  1.00  0.00    -0.395 OA
HETATM   39  H   UNL     1      15.694  46.435  49.852  1.00  0.00     0.210 HD
ENDBRANCH  13  38
TORSDOF 10
ENDMDL
MODEL 5
REMARK VINA RESULT:      -7.1     13.860     17.387
REMARK  10 active torsions:
REMARK  status: ('A' for Active; 'I' for Inactive)
REMARK    1  A    between atoms: C_3  and  C_4 
REMARK    2  A    between atoms: C_4  and  C_5 
REMARK       I    between atoms: C_5  and  N_6 
REMARK    3  A    between atoms: N_6  and  C_7 
REMARK    4  A    between atoms: C_7  and  C_8 
REMARK    5  A    between atoms: C_18  and  N_19 
REMARK       I    between atoms: N_19  and  C_20 
REMARK    6  A    between atoms: C_20  and  C_21 
REMARK    7  A    between atoms: C_21  and  O_22 
REMARK    8  A    between atoms: C_28  and  C_29 
REMARK    9  A    between atoms: C_29  and  O_30 
REMARK   10  A    between atoms: C_32  and  O_33 
ROOT
HETATM    1  C   UNL     1      18.785  50.649  45.349  1.00  0.00     0.016 C 
HETATM    2  C   UNL     1      17.526  49.878  45.884  1.00  0.00    -0.030 C 
HETATM    3  C   UNL     1      17.210  50.553  47.312  1.00  0.00     0.056 C 
HETATM    4  C   UNL     1      16.179  51.658  47.183  1.00  0.00     0.056 A 
HETATM    5  C   UNL     1      15.623  52.067  45.991  1.00  0.00     0.012 A 
HETATM    6  S   UNL     1      14.545  53.357  46.246  1.00  0.00    -0.055 SA
HETATM    7  C   UNL     1      14.851  53.271  47.919  1.00  0.00     0.174 A 
HETATM    8  N   UNL     1      15.716  52.352  48.293  1.00  0.00    -0.227 NA
HETATM    9  C   UNL     1      15.892  51.495  44.652  1.00  0.00     0.055 C 
HETATM   10  C   UNL     1      16.389  50.031  44.774  1.00  0.00     0.012 C 
HETATM   11  C   UNL     1      15.233  48.946  44.782  1.00  0.00     0.008 C 
HETATM   12  C   UNL     1      14.463  49.001  43.428  1.00  0.00     0.020 C 
HETATM   13  C   UNL     1      15.878  47.529  44.866  1.00  0.00     0.128 C 
HETATM   14  C   UNL     1      16.842  47.383  46.035  1.00  0.00     0.033 C 
HETATM   15  C   UNL     1      17.975  48.395  45.952  1.00  0.00     0.013 C 
ENDROOT
BRANCH   3  16
HETATM   16  C   UNL     1      16.892  49.610  48.488  1.00  0.00     0.114 C 
BRANCH  16  17
HETATM   17  C   UNL     1      18.068  49.470  49.437  1.00  0.00     0.218 C 
HETATM   18  N   UNL     1      18.938  50.528  49.406  1.00  0.00    -0.357 N 
HETATM   19  H   UNL     1      18.973  51.034  48.524  1.00  0.00     0.162 HD
HETATM   20  O   UNL     1      18.198  48.497  50.172  1.00  0.00    -0.274 OA
BRANCH  18  21
HETATM   21  C   UNL     1      20.129  50.547  50.218  1.00  0.00     0.161 C 
BRANCH  21  22
HETATM   22  C   UNL     1      21.332  50.230  49.373  1.00  0.00    -0.041 A 
HETATM   23  C   UNL     1      21.698  48.893  49.150  1.00  0.00     0.009 A 
HETATM   24  C   UNL     1      22.831  48.581  48.399  1.00  0.00     0.001 A 
HETATM   25  C   UNL     1      23.612  49.603  47.863  1.00  0.00     0.000 A 
HETATM   26  C   UNL     1      23.258  50.934  48.078  1.00  0.00     0.001 A 
HETATM   27  C   UNL     1      22.124  51.248  48.829  1.00  0.00     0.009 A 
ENDBRANCH  21  22
ENDBRANCH  18  21
ENDBRANCH  16  17
ENDBRANCH   3  16
BRANCH  11  28
HETATM   28  C   UNL     1      14.183  49.162  45.903  1.00  0.00     0.176 C 
BRANCH  28  29
HETATM   29  O   UNL     1      12.883  48.701  45.546  1.00  0.00    -0.400 OA
HETATM   30  H   UNL     1      12.287  48.950  46.285  1.00  0.00     0.209 HD
ENDBRANCH  28  29
ENDBRANCH  11  28
BRANCH   7  31
HETATM   31  N   UNL     1      14.236  54.093  48.827  1.00  0.00    -0.304 N 
HETATM   32  C   UNL     1      13.858  53.780  50.115  1.00  0.00     0.247 C 
HETATM   33  O   UNL     1      13.993  52.710  50.700  1.00  0.00    -0.271 OA
HETATM   34  H   UNL     1      14.027  55.026  48.491  1.00  0.00     0.171 HD
BRANCH  32  35
HETATM   35  C   UNL     1      13.243  54.987  50.831  1.00  0.00     0.270 C 
BRANCH  35  36
HETATM   36  O   UNL     1      13.291  54.881  52.251  1.00  0.00    -0.387 OA
HETATM   37  C   UNL     1      14.449  55.507  52.793  1.00  0.00     0.202 C 
ENDBRANCH  35  36
ENDBRANCH  32  35
ENDBRANCH   7  31
BRANCH  13  38
HETATM   38  O   UNL     1      14.874  46.518  44.990  1.00  0.00    -0.395 OA
HETATM   39  H   UNL     1      15.221  45.835  45.594  1.00  0.00     0.210 HD
ENDBRANCH  13  38
TORSDOF 10
ENDMDL
MODEL 6
REMARK VINA RESULT:      -7.1     25.621     27.963
REMARK  10 active torsions:
REMARK  status: ('A' for Active; 'I' for Inactive)
REMARK    1  A    between atoms: C_3  and  C_4 
REMARK    2  A    between atoms: C_4  and  C_5 
REMARK       I    between atoms: C_5  and  N_6 
REMARK    3  A    between atoms: N_6  and  C_7 
REMARK    4  A    between atoms: C_7  and  C_8 
REMARK    5  A    between atoms: C_18  and  N_19 
REMARK       I    between atoms: N_19  and  C_20 
REMARK    6  A    between atoms: C_20  and  C_21 
REMARK    7  A    between atoms: C_21  and  O_22 
REMARK    8  A    between atoms: C_28  and  C_29 
REMARK    9  A    between atoms: C_29  and  O_30 
REMARK   10  A    between atoms: C_32  and  O_33 
ROOT
HETATM    1  C   UNL     1      36.611  47.747  64.025  1.00  0.00     0.016 C 
HETATM    2  C   UNL     1      37.108  47.695  65.513  1.00  0.00    -0.030 C 
HETATM    3  C   UNL     1      37.773  46.235  65.671  1.00  0.00     0.056 C 
HETATM    4  C   UNL     1      39.269  46.282  65.426  1.00  0.00     0.056 A 
HETATM    5  C   UNL     1      39.962  47.416  65.065  1.00  0.00     0.012 A 
HETATM    6  S   UNL     1      41.610  47.062  64.839  1.00  0.00    -0.055 SA
HETATM    7  C   UNL     1      41.313  45.442  65.267  1.00  0.00     0.174 A 
HETATM    8  N   UNL     1      40.061  45.149  65.553  1.00  0.00    -0.227 NA
HETATM    9  C   UNL     1      39.399  48.774  64.889  1.00  0.00     0.055 C 
HETATM   10  C   UNL     1      38.094  48.934  65.712  1.00  0.00     0.012 C 
HETATM   11  C   UNL     1      38.315  49.439  67.199  1.00  0.00     0.008 C 
HETATM   12  C   UNL     1      38.954  50.860  67.172  1.00  0.00     0.020 C 
HETATM   13  C   UNL     1      36.925  49.593  67.887  1.00  0.00     0.128 C 
HETATM   14  C   UNL     1      36.078  48.330  67.805  1.00  0.00     0.033 C 
HETATM   15  C   UNL     1      35.829  47.920  66.361  1.00  0.00     0.013 C 
ENDROOT
BRANCH   3  16
HETATM   16  C   UNL     1      37.427  45.431  66.938  1.00  0.00     0.114 C 
BRANCH  16  17
HETATM   17  C   UNL     1      36.718  44.129  66.607  1.00  0.00     0.218 C 
HETATM   18  N   UNL     1      37.266  43.448  65.553  1.00  0.00    -0.357 N 
HETATM   19  H   UNL     1      37.748  44.026  64.868  1.00  0.00     0.162 HD
HETATM   20  O   UNL     1      35.754  43.732  67.253  1.00  0.00    -0.274 OA
BRANCH  18  21
HETATM   21  C   UNL     1      36.700  42.210  65.080  1.00  0.00     0.161 C 
BRANCH  21  22
HETATM   22  C   UNL     1      37.760  41.388  64.398  1.00  0.00    -0.041 A 
HETATM   23  C   UNL     1      38.223  41.759  63.127  1.00  0.00     0.009 A 
HETATM   24  C   UNL     1      39.180  40.989  62.465  1.00  0.00     0.001 A 
HETATM   25  C   UNL     1      39.682  39.837  63.068  1.00  0.00     0.000 A 
HETATM   26  C   UNL     1      39.229  39.459  64.331  1.00  0.00     0.001 A 
HETATM   27  C   UNL     1      38.272  40.229  64.994  1.00  0.00     0.009 A 
ENDBRANCH  21  22
ENDBRANCH  18  21
ENDBRANCH  16  17
ENDBRANCH   3  16
BRANCH  11  28
HETATM   28  C   UNL     1      39.265  48.537  68.029  1.00  0.00     0.176 C 
BRANCH  28  29
HETATM   29  O   UNL     1      40.039  49.266  68.977  1.00  0.00    -0.400 OA
HETATM   30  H   UNL     1      39.760  50.204  68.902  1.00  0.00     0.209 HD
ENDBRANCH  28  29
ENDBRANCH  11  28
BRANCH   7  31
HETATM   31  N   UNL     1      42.304  44.497  65.324  1.00  0.00    -0.304 N 
HETATM   32  C   UNL     1      42.877  43.954  66.454  1.00  0.00     0.247 C 
HETATM   33  O   UNL     1      42.618  44.209  67.626  1.00  0.00    -0.271 OA
HETATM   34  H   UNL     1      42.655  44.188  64.425  1.00  0.00     0.171 HD
BRANCH  32  35
HETATM   35  C   UNL     1      43.919  42.889  66.101  1.00  0.00     0.270 C 
BRANCH  35  36
HETATM   36  O   UNL     1      43.615  41.606  66.641  1.00  0.00    -0.387 OA
HETATM   37  C   UNL     1      42.595  40.944  65.900  1.00  0.00     0.202 C 
ENDBRANCH  35  36
ENDBRANCH  32  35
ENDBRANCH   7  31
BRANCH  13  38
HETATM   38  O   UNL     1      37.073  49.938  69.266  1.00  0.00    -0.395 OA
HETATM   39  H   UNL     1      36.205  50.248  69.585  1.00  0.00     0.210 HD
ENDBRANCH  13  38
TORSDOF 10
ENDMDL
MODEL 7
REMARK VINA RESULT:      -7.0     11.236     13.827
REMARK  10 active torsions:
REMARK  status: ('A' for Active; 'I' for Inactive)
REMARK    1  A    between atoms: C_3  and  C_4 
REMARK    2  A    between atoms: C_4  and  C_5 
REMARK       I    between atoms: C_5  and  N_6 
REMARK    3  A    between atoms: N_6  and  C_7 
REMARK    4  A    between atoms: C_7  and  C_8 
REMARK    5  A    between atoms: C_18  and  N_19 
REMARK       I    between atoms: N_19  and  C_20 
REMARK    6  A    between atoms: C_20  and  C_21 
REMARK    7  A    between atoms: C_21  and  O_22 
REMARK    8  A    between atoms: C_28  and  C_29 
REMARK    9  A    between atoms: C_29  and  O_30 
REMARK   10  A    between atoms: C_32  and  O_33 
ROOT
HETATM    1  C   UNL     1      17.192  47.060  48.843  1.00  0.00     0.016 C 
HETATM    2  C   UNL     1      17.828  48.475  48.601  1.00  0.00    -0.030 C 
HETATM    3  C   UNL     1      18.860  48.257  47.382  1.00  0.00     0.056 C 
HETATM    4  C   UNL     1      18.215  48.585  46.049  1.00  0.00     0.056 A 
HETATM    5  C   UNL     1      16.902  48.970  45.895  1.00  0.00     0.012 A 
HETATM    6  S   UNL     1      16.538  49.207  44.251  1.00  0.00    -0.055 SA
HETATM    7  C   UNL     1      18.147  48.821  43.848  1.00  0.00     0.174 A 
HETATM    8  N   UNL     1      18.930  48.514  44.861  1.00  0.00    -0.227 NA
HETATM    9  C   UNL     1      15.910  49.167  46.976  1.00  0.00     0.055 C 
HETATM   10  C   UNL     1      16.619  49.479  48.319  1.00  0.00     0.012 C 
HETATM   11  C   UNL     1      16.898  51.020  48.570  1.00  0.00     0.008 C 
HETATM   12  C   UNL     1      15.542  51.785  48.642  1.00  0.00     0.020 C 
HETATM   13  C   UNL     1      17.572  51.185  49.966  1.00  0.00     0.128 C 
HETATM   14  C   UNL     1      18.814  50.319  50.132  1.00  0.00     0.033 C 
HETATM   15  C   UNL     1      18.490  48.843  49.955  1.00  0.00     0.013 C 
ENDROOT
BRANCH   3  16
HETATM   16  C   UNL     1      20.257  48.893  47.514  1.00  0.00     0.114 C 
BRANCH  16  17
HETATM   17  C   UNL     1      21.262  47.932  48.124  1.00  0.00     0.218 C 
HETATM   18  N   UNL     1      22.271  48.546  48.815  1.00  0.00    -0.357 N 
HETATM   19  H   UNL     1      22.499  49.488  48.505  1.00  0.00     0.162 HD
HETATM   20  O   UNL     1      21.148  46.715  48.011  1.00  0.00    -0.274 OA
BRANCH  18  21
HETATM   21  C   UNL     1      23.332  47.788  49.431  1.00  0.00     0.161 C 
BRANCH  21  22
HETATM   22  C   UNL     1      24.660  48.434  49.142  1.00  0.00    -0.041 A 
HETATM   23  C   UNL     1      25.823  47.943  49.754  1.00  0.00     0.009 A 
HETATM   24  C   UNL     1      27.058  48.552  49.525  1.00  0.00     0.001 A 
HETATM   25  C   UNL     1      27.141  49.658  48.682  1.00  0.00     0.000 A 
HETATM   26  C   UNL     1      25.991  50.153  48.069  1.00  0.00     0.001 A 
HETATM   27  C   UNL     1      24.755  49.545  48.297  1.00  0.00     0.009 A 
ENDBRANCH  21  22
ENDBRANCH  18  21
ENDBRANCH  16  17
ENDBRANCH   3  16
BRANCH  11  28
HETATM   28  C   UNL     1      17.733  51.694  47.450  1.00  0.00     0.176 C 
BRANCH  28  29
HETATM   29  O   UNL     1      17.002  52.677  46.724  1.00  0.00    -0.400 OA
HETATM   30  H   UNL     1      17.647  53.125  46.135  1.00  0.00     0.209 HD
ENDBRANCH  28  29
ENDBRANCH  11  28
BRANCH   7  31
HETATM   31  N   UNL     1      18.610  48.836  42.558  1.00  0.00    -0.304 N 
HETATM   32  C   UNL     1      19.005  49.934  41.824  1.00  0.00     0.247 C 
HETATM   33  O   UNL     1      19.014  51.110  42.175  1.00  0.00    -0.271 OA
HETATM   34  H   UNL     1      18.645  47.931  42.103  1.00  0.00     0.171 HD
BRANCH  32  35
HETATM   35  C   UNL     1      19.509  49.532  40.435  1.00  0.00     0.270 C 
BRANCH  35  36
HETATM   36  O   UNL     1      19.399  50.578  39.474  1.00  0.00    -0.387 OA
HETATM   37  C   UNL     1      20.488  50.575  38.556  1.00  0.00     0.202 C 
ENDBRANCH  35  36
ENDBRANCH  32  35
ENDBRANCH   7  31
BRANCH  13  38
HETATM   38  O   UNL     1      17.948  52.546  50.194  1.00  0.00    -0.395 OA
HETATM   39  H   UNL     1      17.133  53.082  50.168  1.00  0.00     0.210 HD
ENDBRANCH  13  38
TORSDOF 10
ENDMDL
MODEL 8
REMARK VINA RESULT:      -6.9     12.813     16.784
REMARK  10 active torsions:
REMARK  status: ('A' for Active; 'I' for Inactive)
REMARK    1  A    between atoms: C_3  and  C_4 
REMARK    2  A    between atoms: C_4  and  C_5 
REMARK       I    between atoms: C_5  and  N_6 
REMARK    3  A    between atoms: N_6  and  C_7 
REMARK    4  A    between atoms: C_7  and  C_8 
REMARK    5  A    between atoms: C_18  and  N_19 
REMARK       I    between atoms: N_19  and  C_20 
REMARK    6  A    between atoms: C_20  and  C_21 
REMARK    7  A    between atoms: C_21  and  O_22 
REMARK    8  A    between atoms: C_28  and  C_29 
REMARK    9  A    between atoms: C_29  and  O_30 
REMARK   10  A    between atoms: C_32  and  O_33 
ROOT
HETATM    1  C   UNL     1      15.818  48.109  48.093  1.00  0.00     0.016 C 
HETATM    2  C   UNL     1      16.469  49.181  47.149  1.00  0.00    -0.030 C 
HETATM    3  C   UNL     1      17.726  49.749  47.983  1.00  0.00     0.056 C 
HETATM    4  C   UNL     1      19.002  49.011  47.627  1.00  0.00     0.056 A 
HETATM    5  C   UNL     1      19.070  47.957  46.743  1.00  0.00     0.012 A 
HETATM    6  S   UNL     1      20.660  47.365  46.639  1.00  0.00    -0.055 SA
HETATM    7  C   UNL     1      21.169  48.561  47.739  1.00  0.00     0.174 A 
HETATM    8  N   UNL     1      20.223  49.361  48.187  1.00  0.00    -0.227 NA
HETATM    9  C   UNL     1      17.946  47.385  45.967  1.00  0.00     0.055 C 
HETATM   10  C   UNL     1      16.820  48.436  45.781  1.00  0.00     0.012 C 
HETATM   11  C   UNL     1      16.980  49.347  44.493  1.00  0.00     0.008 C 
HETATM   12  C   UNL     1      16.914  48.454  43.218  1.00  0.00     0.020 C 
HETATM   13  C   UNL     1      15.764  50.319  44.415  1.00  0.00     0.128 C 
HETATM   14  C   UNL     1      15.562  51.123  45.692  1.00  0.00     0.033 C 
HETATM   15  C   UNL     1      15.340  50.214  46.892  1.00  0.00     0.013 C 
ENDROOT
BRANCH   3  16
HETATM   16  C   UNL     1      17.934  51.275  48.000  1.00  0.00     0.114 C 
BRANCH  16  17
HETATM   17  C   UNL     1      17.300  51.920  49.219  1.00  0.00     0.218 C 
HETATM   18  N   UNL     1      16.458  52.959  48.926  1.00  0.00    -0.357 N 
HETATM   19  H   UNL     1      16.665  53.455  48.062  1.00  0.00     0.162 HD
HETATM   20  O   UNL     1      17.521  51.516  50.357  1.00  0.00    -0.274 OA
BRANCH  18  21
HETATM   21  C   UNL     1      15.796  53.708  49.964  1.00  0.00     0.161 C 
BRANCH  21  22
HETATM   22  C   UNL     1      14.388  54.035  49.545  1.00  0.00    -0.041 A 
HETATM   23  C   UNL     1      14.124  54.419  48.222  1.00  0.00     0.009 A 
HETATM   24  C   UNL     1      12.830  54.759  47.824  1.00  0.00     0.001 A 
HETATM   25  C   UNL     1      11.788  54.721  48.747  1.00  0.00     0.000 A 
HETATM   26  C   UNL     1      12.039  54.341  50.065  1.00  0.00     0.001 A 
HETATM   27  C   UNL     1      13.332  53.999  50.464  1.00  0.00     0.009 A 
ENDBRANCH  21  22
ENDBRANCH  18  21
ENDBRANCH  16  17
ENDBRANCH   3  16
BRANCH  11  28
HETATM   28  C   UNL     1      18.328  50.113  44.434  1.00  0.00     0.176 C 
BRANCH  28  29
HETATM   29  O   UNL     1      18.666  50.545  43.120  1.00  0.00    -0.400 OA
HETATM   30  H   UNL     1      17.818  50.696  42.650  1.00  0.00     0.209 HD
ENDBRANCH  28  29
ENDBRANCH  11  28
BRANCH   7  31
HETATM   31  N   UNL     1      22.474  48.698  48.132  1.00  0.00    -0.304 N 
HETATM   32  C   UNL     1      23.331  49.737  47.837  1.00  0.00     0.247 C 
HETATM   33  O   UNL     1      23.098  50.736  47.165  1.00  0.00    -0.271 OA
HETATM   34  H   UNL     1      22.839  47.933  48.687  1.00  0.00     0.171 HD
BRANCH  32  35
HETATM   35  C   UNL     1      24.696  49.548  48.505  1.00  0.00     0.270 C 
BRANCH  35  36
HETATM   36  O   UNL     1      25.780  50.022  47.710  1.00  0.00    -0.387 OA
HETATM   37  C   UNL     1      27.018  49.971  48.412  1.00  0.00     0.202 C 
ENDBRANCH  35  36
ENDBRANCH  32  35
ENDBRANCH   7  31
BRANCH  13  38
HETATM   38  O   UNL     1      15.917  51.240  43.332  1.00  0.00    -0.395 OA
HETATM   39  H   UNL     1      15.091  51.755  43.268  1.00  0.00     0.210 HD
ENDBRANCH  13  38
TORSDOF 10
ENDMDL
MODEL 9
REMARK VINA RESULT:      -6.9     12.702     14.681
REMARK  10 active torsions:
REMARK  status: ('A' for Active; 'I' for Inactive)
REMARK    1  A    between atoms: C_3  and  C_4 
REMARK    2  A    between atoms: C_4  and  C_5 
REMARK       I    between atoms: C_5  and  N_6 
REMARK    3  A    between atoms: N_6  and  C_7 
REMARK    4  A    between atoms: C_7  and  C_8 
REMARK    5  A    between atoms: C_18  and  N_19 
REMARK       I    between atoms: N_19  and  C_20 
REMARK    6  A    between atoms: C_20  and  C_21 
REMARK    7  A    between atoms: C_21  and  O_22 
REMARK    8  A    between atoms: C_28  and  C_29 
REMARK    9  A    between atoms: C_29  and  O_30 
REMARK   10  A    between atoms: C_32  and  O_33 
ROOT
HETATM    1  C   UNL     1      22.286  45.374  45.550  1.00  0.00     0.016 C 
HETATM    2  C   UNL     1      21.433  45.332  46.868  1.00  0.00    -0.030 C 
HETATM    3  C   UNL     1      22.482  44.922  48.021  1.00  0.00     0.056 C 
HETATM    4  C   UNL     1      23.048  46.148  48.712  1.00  0.00     0.056 A 
HETATM    5  C   UNL     1      22.743  47.446  48.365  1.00  0.00     0.012 A 
HETATM    6  S   UNL     1      23.605  48.542  49.338  1.00  0.00    -0.055 SA
HETATM    7  C   UNL     1      24.299  47.236  50.181  1.00  0.00     0.174 A 
HETATM    8  N   UNL     1      23.938  46.037  49.772  1.00  0.00    -0.227 NA
HETATM    9  C   UNL     1      21.804  47.876  47.304  1.00  0.00     0.055 C 
HETATM   10  C   UNL     1      20.755  46.769  47.022  1.00  0.00     0.012 C 
HETATM   11  C   UNL     1      19.455  46.852  47.925  1.00  0.00     0.008 C 
HETATM   12  C   UNL     1      18.714  48.193  47.642  1.00  0.00     0.020 C 
HETATM   13  C   UNL     1      18.480  45.711  47.504  1.00  0.00     0.128 C 
HETATM   14  C   UNL     1      19.132  44.335  47.521  1.00  0.00     0.033 C 
HETATM   15  C   UNL     1      20.331  44.277  46.587  1.00  0.00     0.013 C 
ENDROOT
BRANCH   3  16
HETATM   16  C   UNL     1      22.040  43.849  49.033  1.00  0.00     0.114 C 
BRANCH  16  17
HETATM   17  C   UNL     1      22.939  42.626  48.992  1.00  0.00     0.218 C 
HETATM   18  N   UNL     1      24.190  42.837  49.508  1.00  0.00    -0.357 N 
HETATM   19  H   UNL     1      24.527  43.795  49.450  1.00  0.00     0.162 HD
HETATM   20  O   UNL     1      22.552  41.549  48.549  1.00  0.00    -0.274 OA
BRANCH  18  21
HETATM   21  C   UNL     1      25.185  41.795  49.518  1.00  0.00     0.161 C 
BRANCH  21  22
HETATM   22  C   UNL     1      26.299  42.157  50.463  1.00  0.00    -0.041 A 
HETATM   23  C   UNL     1      26.755  43.482  50.531  1.00  0.00     0.009 A 
HETATM   24  C   UNL     1      27.810  43.828  51.376  1.00  0.00     0.001 A 
HETATM   25  C   UNL     1      28.421  42.852  52.160  1.00  0.00     0.000 A 
HETATM   26  C   UNL     1      27.976  41.533  52.100  1.00  0.00     0.001 A 
HETATM   27  C   UNL     1      26.920  41.185  51.256  1.00  0.00     0.009 A 
ENDBRANCH  21  22
ENDBRANCH  18  21
ENDBRANCH  16  17
ENDBRANCH   3  16
BRANCH  11  28
HETATM   28  C   UNL     1      19.750  46.817  49.448  1.00  0.00     0.176 C 
BRANCH  28  29
HETATM   29  O   UNL     1      18.830  47.589  50.212  1.00  0.00    -0.400 OA
HETATM   30  H   UNL     1      18.457  46.986  50.891  1.00  0.00     0.209 HD
ENDBRANCH  28  29
ENDBRANCH  11  28
BRANCH   7  31
HETATM   31  N   UNL     1      25.169  47.408  51.226  1.00  0.00    -0.304 N 
HETATM   32  C   UNL     1      25.372  46.559  52.293  1.00  0.00     0.247 C 
HETATM   33  O   UNL     1      24.815  45.489  52.520  1.00  0.00    -0.271 OA
HETATM   34  H   UNL     1      25.702  48.269  51.204  1.00  0.00     0.171 HD
BRANCH  32  35
HETATM   35  C   UNL     1      26.468  47.080  53.227  1.00  0.00     0.270 C 
BRANCH  35  36
HETATM   36  O   UNL     1      25.978  47.972  54.224  1.00  0.00    -0.387 OA
HETATM   37  C   UNL     1      26.852  48.049  55.345  1.00  0.00     0.202 C 
ENDBRANCH  35  36
ENDBRANCH  32  35
ENDBRANCH   7  31
BRANCH  13  38
HETATM   38  O   UNL     1      17.339  45.671  48.365  1.00  0.00    -0.395 OA
HETATM   39  H   UNL     1      16.550  45.815  47.811  1.00  0.00     0.210 HD
ENDBRANCH  13  38
TORSDOF 10
ENDMDL
MODEL 10
REMARK VINA RESULT:      -6.9     12.206     14.536
REMARK  10 active torsions:
REMARK  status: ('A' for Active; 'I' for Inactive)
REMARK    1  A    between atoms: C_3  and  C_4 
REMARK    2  A    between atoms: C_4  and  C_5 
REMARK       I    between atoms: C_5  and  N_6 
REMARK    3  A    between atoms: N_6  and  C_7 
REMARK    4  A    between atoms: C_7  and  C_8 
REMARK    5  A    between atoms: C_18  and  N_19 
REMARK       I    between atoms: N_19  and  C_20 
REMARK    6  A    between atoms: C_20  and  C_21 
REMARK    7  A    between atoms: C_21  and  O_22 
REMARK    8  A    between atoms: C_28  and  C_29 
REMARK    9  A    between atoms: C_29  and  O_30 
REMARK   10  A    between atoms: C_32  and  O_33 
ROOT
HETATM    1  C   UNL     1      28.697  41.205  46.555  1.00  0.00     0.016 C 
HETATM    2  C   UNL     1      27.878  40.303  47.545  1.00  0.00    -0.030 C 
HETATM    3  C   UNL     1      26.588  41.189  47.933  1.00  0.00     0.056 C 
HETATM    4  C   UNL     1      25.408  40.862  47.039  1.00  0.00     0.056 A 
HETATM    5  C   UNL     1      25.447  39.962  45.997  1.00  0.00     0.012 A 
HETATM    6  S   UNL     1      23.945  39.901  45.203  1.00  0.00    -0.055 SA
HETATM    7  C   UNL     1      23.324  41.039  46.307  1.00  0.00     0.174 A 
HETATM    8  N   UNL     1      24.172  41.470  47.218  1.00  0.00    -0.227 NA
HETATM    9  C   UNL     1      26.608  39.139  45.588  1.00  0.00     0.055 C 
HETATM   10  C   UNL     1      27.579  38.935  46.779  1.00  0.00     0.012 C 
HETATM   11  C   UNL     1      27.256  37.669  47.678  1.00  0.00     0.008 C 
HETATM   12  C   UNL     1      27.393  36.377  46.819  1.00  0.00     0.020 C 
HETATM   13  C   UNL     1      28.331  37.568  48.803  1.00  0.00     0.128 C 
HETATM   14  C   UNL     1      28.472  38.852  49.609  1.00  0.00     0.033 C 
HETATM   15  C   UNL     1      28.853  40.027  48.720  1.00  0.00     0.013 C 
ENDROOT
BRANCH   3  16
HETATM   16  C   UNL     1      26.184  41.240  49.418  1.00  0.00     0.114 C 
BRANCH  16  17
HETATM   17  C   UNL     1      26.574  42.556  50.067  1.00  0.00     0.218 C 
HETATM   18  N   UNL     1      26.434  42.570  51.429  1.00  0.00    -0.357 N 
HETATM   19  H   UNL     1      25.725  41.940  51.797  1.00  0.00     0.162 HD
HETATM   20  O   UNL     1      26.995  43.504  49.411  1.00  0.00    -0.274 OA
BRANCH  18  21
HETATM   21  C   UNL     1      26.728  43.748  52.204  1.00  0.00     0.161 C 
BRANCH  21  22
HETATM   22  C   UNL     1      28.003  43.551  52.978  1.00  0.00    -0.041 A 
HETATM   23  C   UNL     1      28.182  44.201  54.208  1.00  0.00     0.009 A 
HETATM   24  C   UNL     1      29.372  44.057  54.922  1.00  0.00     0.001 A 
HETATM   25  C   UNL     1      30.396  43.262  54.412  1.00  0.00     0.000 A 
HETATM   26  C   UNL     1      30.229  42.612  53.191  1.00  0.00     0.001 A 
HETATM   27  C   UNL     1      29.038  42.754  52.475  1.00  0.00     0.009 A 
ENDBRANCH  21  22
ENDBRANCH  18  21
ENDBRANCH  16  17
ENDBRANCH   3  16
BRANCH  11  28
HETATM   28  C   UNL     1      25.819  37.669  48.262  1.00  0.00     0.176 C 
BRANCH  28  29
HETATM   29  O   UNL     1      25.231  36.372  48.294  1.00  0.00    -0.400 OA
HETATM   30  H   UNL     1      25.462  35.984  49.166  1.00  0.00     0.209 HD
ENDBRANCH  28  29
ENDBRANCH  11  28
BRANCH   7  31
HETATM   31  N   UNL     1      22.027  41.478  46.266  1.00  0.00    -0.304 N 
HETATM   32  C   UNL     1      21.513  42.497  45.493  1.00  0.00     0.247 C 
HETATM   33  O   UNL     1      22.112  43.212  44.696  1.00  0.00    -0.271 OA
HETATM   34  H   UNL     1      21.391  41.000  46.894  1.00  0.00     0.171 HD
BRANCH  32  35
HETATM   35  C   UNL     1      20.002  42.651  45.695  1.00  0.00     0.270 C 
BRANCH  35  36
HETATM   36  O   UNL     1      19.666  43.428  46.841  1.00  0.00    -0.387 OA
HETATM   37  C   UNL     1      18.652  44.386  46.556  1.00  0.00     0.202 C 
ENDBRANCH  35  36
ENDBRANCH  32  35
ENDBRANCH   7  31
BRANCH  13  38
HETATM   38  O   UNL     1      28.021  36.507  49.711  1.00  0.00    -0.395 OA
HETATM   39  H   UNL     1      28.507  35.716  49.412  1.00  0.00     0.210 HD
ENDBRANCH  13  38
TORSDOF 10
ENDMDL
