MODEL 1
REMARK VINA RESULT:     -10.0      0.000      0.000
REMARK  6 active torsions:
REMARK  status: ('A' for Active; 'I' for Inactive)
REMARK    1  A    between atoms: O_2  and  C_3 
REMARK    2  A    between atoms: C_6  and  C_7 
REMARK    3  A    between atoms: C_11  and  C_12 
REMARK       I    between atoms: C_12  and  N_13 
REMARK    4  A    between atoms: N_13  and  N_14 
REMARK       I    between atoms: N_14  and  C_15 
REMARK    5  A    between atoms: C_15  and  C_16 
REMARK    6  A    between atoms: C_17  and  C_18 
ROOT
HETATM    1  C   UNL     1      26.111  46.274  50.429  1.00  0.00     0.288 C 
HETATM    2  N   UNL     1      25.830  45.898  51.726  1.00  0.00    -0.262 N 
HETATM    3  O   UNL     1      27.017  45.747  49.783  1.00  0.00    -0.264 OA
HETATM    4  H   UNL     1      25.224  46.443  52.335  1.00  0.00     0.190 HD
ENDROOT
BRANCH   1   5
HETATM    5  C   UNL     1      25.289  47.322  49.891  1.00  0.00     0.121 A 
HETATM    6  N   UNL     1      25.828  48.493  49.439  1.00  0.00    -0.272 N 
HETATM    7  N   UNL     1      24.928  49.374  48.981  1.00  0.00    -0.174 NA
HETATM    8  H   UNL     1      26.811  48.746  49.427  1.00  0.00     0.189 HD
HETATM    9  C   UNL     1      23.744  48.753  49.113  1.00  0.00     0.089 A 
HETATM   10  C   UNL     1      23.930  47.461  49.685  1.00  0.00     0.071 A 
BRANCH   9  11
HETATM   11  C   UNL     1      22.489  49.397  48.709  1.00  0.00    -0.005 A 
HETATM   12  C   UNL     1      22.286  50.772  48.880  1.00  0.00     0.016 A 
HETATM   13  C   UNL     1      21.085  51.369  48.479  1.00  0.00     0.037 A 
HETATM   14  C   UNL     1      20.067  50.610  47.898  1.00  0.00     0.068 A 
HETATM   15  C   UNL     1      20.255  49.240  47.731  1.00  0.00     0.037 A 
HETATM   16  C   UNL     1      21.456  48.641  48.135  1.00  0.00     0.016 A 
BRANCH  14  17
HETATM   17  O   UNL     1      18.953  51.320  47.546  1.00  0.00    -0.356 OA
HETATM   18  C   UNL     1      18.775  52.585  48.169  1.00  0.00     0.210 C 
ENDBRANCH  14  17
ENDBRANCH   9  11
ENDBRANCH   1   5
BRANCH   2  19
HETATM   19  N   UNL     1      26.714  45.017  52.368  1.00  0.00    -0.267 N 
HETATM   20  C   UNL     1      26.495  44.738  53.698  1.00  0.00     0.240 C 
HETATM   21  O   UNL     1      25.491  45.095  54.307  1.00  0.00    -0.271 OA
HETATM   22  H   UNL     1      27.613  44.867  51.914  1.00  0.00     0.190 HD
BRANCH  20  23
HETATM   23  C   UNL     1      27.597  43.992  54.363  1.00  0.00     0.089 A 
HETATM   24  C   UNL     1      29.008  44.555  54.348  1.00  0.00     0.036 A 
HETATM   25  C   UNL     1      28.664  43.331  53.531  1.00  0.00     0.025 A 
BRANCH  24  26
HETATM   26  C   UNL     1      29.875  44.429  55.579  1.00  0.00    -0.015 A 
HETATM   27  C   UNL     1      29.852  45.395  56.597  1.00  0.00     0.123 A 
HETATM   28  F   UNL     1      29.025  46.446  56.489  1.00  0.00    -0.206 F 
HETATM   29  C   UNL     1      30.656  45.298  57.732  1.00  0.00     0.043 A 
HETATM   30  C   UNL     1      31.521  44.218  57.874  1.00  0.00     0.003 A 
HETATM   31  C   UNL     1      31.577  43.245  56.878  1.00  0.00     0.001 A 
HETATM   32  C   UNL     1      30.768  43.355  55.743  1.00  0.00     0.011 A 
ENDBRANCH  24  26
ENDBRANCH  20  23
ENDBRANCH   2  19
TORSDOF 6
ENDMDL
MODEL 2
REMARK VINA RESULT:      -9.9      1.958      2.685
REMARK  6 active torsions:
REMARK  status: ('A' for Active; 'I' for Inactive)
REMARK    1  A    between atoms: O_2  and  C_3 
REMARK    2  A    between atoms: C_6  and  C_7 
REMARK    3  A    between atoms: C_11  and  C_12 
REMARK       I    between atoms: C_12  and  N_13 
REMARK    4  A    between atoms: N_13  and  N_14 
REMARK       I    between atoms: N_14  and  C_15 
REMARK    5  A    between atoms: C_15  and  C_16 
REMARK    6  A    between atoms: C_17  and  C_18 
ROOT
HETATM    1  C   UNL     1      24.798  47.508  50.275  1.00  0.00     0.288 C 
HETATM    2  N   UNL     1      24.675  46.623  51.326  1.00  0.00    -0.262 N 
HETATM    3  O   UNL     1      25.896  47.929  49.909  1.00  0.00    -0.264 OA
HETATM    4  H   UNL     1      23.781  46.415  51.764  1.00  0.00     0.190 HD
ENDROOT
BRANCH   1   5
HETATM    5  C   UNL     1      23.570  47.910  49.650  1.00  0.00     0.121 A 
HETATM    6  N   UNL     1      22.715  46.997  49.100  1.00  0.00    -0.272 N 
HETATM    7  N   UNL     1      21.620  47.533  48.543  1.00  0.00    -0.174 NA
HETATM    8  H   UNL     1      22.836  45.989  49.072  1.00  0.00     0.189 HD
HETATM    9  C   UNL     1      21.742  48.854  48.751  1.00  0.00     0.089 A 
HETATM   10  C   UNL     1      22.957  49.130  49.442  1.00  0.00     0.071 A 
BRANCH   9  11
HETATM   11  C   UNL     1      20.722  49.802  48.288  1.00  0.00    -0.005 A 
HETATM   12  C   UNL     1      19.796  49.452  47.298  1.00  0.00     0.016 A 
HETATM   13  C   UNL     1      18.825  50.368  46.876  1.00  0.00     0.037 A 
HETATM   14  C   UNL     1      18.757  51.646  47.433  1.00  0.00     0.068 A 
HETATM   15  C   UNL     1      19.679  52.009  48.412  1.00  0.00     0.037 A 
HETATM   16  C   UNL     1      20.653  51.093  48.833  1.00  0.00     0.016 A 
BRANCH  14  17
HETATM   17  O   UNL     1      17.757  52.436  46.936  1.00  0.00    -0.356 OA
HETATM   18  C   UNL     1      16.423  52.006  47.172  1.00  0.00     0.210 C 
ENDBRANCH  14  17
ENDBRANCH   9  11
ENDBRANCH   1   5
BRANCH   2  19
HETATM   19  N   UNL     1      25.815  46.340  52.094  1.00  0.00    -0.267 N 
HETATM   20  C   UNL     1      26.033  47.092  53.226  1.00  0.00     0.240 C 
HETATM   21  O   UNL     1      25.214  47.886  53.679  1.00  0.00    -0.271 OA
HETATM   22  H   UNL     1      26.553  45.813  51.632  1.00  0.00     0.190 HD
BRANCH  20  23
HETATM   23  C   UNL     1      27.369  46.896  53.851  1.00  0.00     0.089 A 
HETATM   24  C   UNL     1      27.503  46.029  55.092  1.00  0.00     0.036 A 
HETATM   25  C   UNL     1      27.675  47.528  55.183  1.00  0.00     0.025 A 
BRANCH  24  26
HETATM   26  C   UNL     1      28.698  45.116  55.239  1.00  0.00    -0.015 A 
HETATM   27  C   UNL     1      28.786  43.900  54.543  1.00  0.00     0.123 A 
HETATM   28  F   UNL     1      27.796  43.546  53.709  1.00  0.00    -0.206 F 
HETATM   29  C   UNL     1      29.876  43.042  54.680  1.00  0.00     0.043 A 
HETATM   30  C   UNL     1      30.919  43.383  55.534  1.00  0.00     0.003 A 
HETATM   31  C   UNL     1      30.861  44.578  56.248  1.00  0.00     0.001 A 
HETATM   32  C   UNL     1      29.761  45.429  56.105  1.00  0.00     0.011 A 
ENDBRANCH  24  26
ENDBRANCH  20  23
ENDBRANCH   2  19
TORSDOF 6
ENDMDL
MODEL 3
REMARK VINA RESULT:      -9.7      3.156     11.230
REMARK  6 active torsions:
REMARK  status: ('A' for Active; 'I' for Inactive)
REMARK    1  A    between atoms: O_2  and  C_3 
REMARK    2  A    between atoms: C_6  and  C_7 
REMARK    3  A    between atoms: C_11  and  C_12 
REMARK       I    between atoms: C_12  and  N_13 
REMARK    4  A    between atoms: N_13  and  N_14 
REMARK       I    between atoms: N_14  and  C_15 
REMARK    5  A    between atoms: C_15  and  C_16 
REMARK    6  A    between atoms: C_17  and  C_18 
ROOT
HETATM    1  C   UNL     1      24.245  44.973  50.551  1.00  0.00     0.288 C 
HETATM    2  N   UNL     1      24.403  46.260  50.078  1.00  0.00    -0.262 N 
HETATM    3  O   UNL     1      23.275  44.283  50.237  1.00  0.00    -0.264 OA
HETATM    4  H   UNL     1      25.082  46.907  50.469  1.00  0.00     0.190 HD
ENDROOT
BRANCH   1   5
HETATM    5  C   UNL     1      25.273  44.503  51.437  1.00  0.00     0.121 A 
HETATM    6  N   UNL     1      25.496  43.169  51.628  1.00  0.00    -0.272 N 
HETATM    7  N   UNL     1      26.480  42.894  52.495  1.00  0.00    -0.174 NA
HETATM    8  H   UNL     1      24.997  42.399  51.193  1.00  0.00     0.189 HD
HETATM    9  C   UNL     1      26.944  44.094  52.879  1.00  0.00     0.089 A 
HETATM   10  C   UNL     1      26.207  45.131  52.236  1.00  0.00     0.071 A 
BRANCH   9  11
HETATM   11  C   UNL     1      28.049  44.221  53.836  1.00  0.00    -0.005 A 
HETATM   12  C   UNL     1      28.178  45.347  54.658  1.00  0.00     0.016 A 
HETATM   13  C   UNL     1      29.235  45.444  55.571  1.00  0.00     0.037 A 
HETATM   14  C   UNL     1      30.180  44.423  55.683  1.00  0.00     0.068 A 
HETATM   15  C   UNL     1      30.067  43.302  54.864  1.00  0.00     0.037 A 
HETATM   16  C   UNL     1      29.011  43.205  53.948  1.00  0.00     0.016 A 
BRANCH  14  17
HETATM   17  O   UNL     1      31.153  44.643  56.618  1.00  0.00    -0.356 OA
HETATM   18  C   UNL     1      31.744  43.494  57.211  1.00  0.00     0.210 C 
ENDBRANCH  14  17
ENDBRANCH   9  11
ENDBRANCH   1   5
BRANCH   2  19
HETATM   19  N   UNL     1      23.343  46.839  49.364  1.00  0.00    -0.267 N 
HETATM   20  C   UNL     1      23.308  48.212  49.262  1.00  0.00     0.240 C 
HETATM   21  O   UNL     1      24.225  48.940  49.628  1.00  0.00    -0.271 OA
HETATM   22  H   UNL     1      22.523  46.255  49.215  1.00  0.00     0.190 HD
BRANCH  20  23
HETATM   23  C   UNL     1      22.044  48.758  48.699  1.00  0.00     0.089 A 
HETATM   24  C   UNL     1      20.854  49.004  49.612  1.00  0.00     0.036 A 
HETATM   25  C   UNL     1      20.825  47.879  48.602  1.00  0.00     0.025 A 
BRANCH  24  26
HETATM   26  C   UNL     1      19.998  50.232  49.409  1.00  0.00    -0.015 A 
HETATM   27  C   UNL     1      18.787  50.406  50.097  1.00  0.00     0.123 A 
HETATM   28  F   UNL     1      18.387  49.473  50.974  1.00  0.00    -0.206 F 
HETATM   29  C   UNL     1      17.979  51.528  49.909  1.00  0.00     0.043 A 
HETATM   30  C   UNL     1      18.369  52.514  49.009  1.00  0.00     0.003 A 
HETATM   31  C   UNL     1      19.561  52.370  48.302  1.00  0.00     0.001 A 
HETATM   32  C   UNL     1      20.360  51.238  48.497  1.00  0.00     0.011 A 
ENDBRANCH  24  26
ENDBRANCH  20  23
ENDBRANCH   2  19
TORSDOF 6
ENDMDL
MODEL 4
REMARK VINA RESULT:      -9.1      3.011     11.394
REMARK  6 active torsions:
REMARK  status: ('A' for Active; 'I' for Inactive)
REMARK    1  A    between atoms: O_2  and  C_3 
REMARK    2  A    between atoms: C_6  and  C_7 
REMARK    3  A    between atoms: C_11  and  C_12 
REMARK       I    between atoms: C_12  and  N_13 
REMARK    4  A    between atoms: N_13  and  N_14 
REMARK       I    between atoms: N_14  and  C_15 
REMARK    5  A    between atoms: C_15  and  C_16 
REMARK    6  A    between atoms: C_17  and  C_18 
ROOT
HETATM    1  C   UNL     1      24.602  45.797  50.557  1.00  0.00     0.288 C 
HETATM    2  N   UNL     1      24.488  47.158  50.755  1.00  0.00    -0.262 N 
HETATM    3  O   UNL     1      23.916  45.205  49.723  1.00  0.00    -0.264 OA
HETATM    4  H   UNL     1      24.897  47.630  51.558  1.00  0.00     0.190 HD
ENDROOT
BRANCH   1   5
HETATM    5  C   UNL     1      25.557  45.122  51.390  1.00  0.00     0.121 A 
HETATM    6  N   UNL     1      25.572  43.760  51.500  1.00  0.00    -0.272 N 
HETATM    7  N   UNL     1      26.514  43.285  52.327  1.00  0.00    -0.174 NA
HETATM    8  H   UNL     1      24.953  43.104  51.034  1.00  0.00     0.189 HD
HETATM    9  C   UNL     1      27.165  44.375  52.767  1.00  0.00     0.089 A 
HETATM   10  C   UNL     1      26.589  45.549  52.201  1.00  0.00     0.071 A 
BRANCH   9  11
HETATM   11  C   UNL     1      28.290  44.272  53.703  1.00  0.00    -0.005 A 
HETATM   12  C   UNL     1      29.254  43.264  53.578  1.00  0.00     0.016 A 
HETATM   13  C   UNL     1      30.325  43.188  54.477  1.00  0.00     0.037 A 
HETATM   14  C   UNL     1      30.457  44.116  55.512  1.00  0.00     0.068 A 
HETATM   15  C   UNL     1      29.499  45.117  55.652  1.00  0.00     0.037 A 
HETATM   16  C   UNL     1      28.425  45.191  54.754  1.00  0.00     0.016 A 
BRANCH  14  17
HETATM   17  O   UNL     1      31.552  43.931  56.310  1.00  0.00    -0.356 OA
HETATM   18  C   UNL     1      31.422  42.992  57.370  1.00  0.00     0.210 C 
ENDBRANCH  14  17
ENDBRANCH   9  11
ENDBRANCH   1   5
BRANCH   2  19
HETATM   19  N   UNL     1      23.446  47.839  50.108  1.00  0.00    -0.267 N 
HETATM   20  C   UNL     1      23.766  48.954  49.366  1.00  0.00     0.240 C 
HETATM   21  O   UNL     1      24.919  49.294  49.120  1.00  0.00    -0.271 OA
HETATM   22  H   UNL     1      22.504  47.655  50.448  1.00  0.00     0.190 HD
BRANCH  20  23
HETATM   23  C   UNL     1      22.595  49.749  48.910  1.00  0.00     0.089 A 
HETATM   24  C   UNL     1      21.749  49.252  47.749  1.00  0.00     0.036 A 
HETATM   25  C   UNL     1      22.642  50.461  47.584  1.00  0.00     0.025 A 
BRANCH  24  26
HETATM   26  C   UNL     1      20.248  49.416  47.794  1.00  0.00    -0.015 A 
HETATM   27  C   UNL     1      19.440  48.575  48.576  1.00  0.00     0.123 A 
HETATM   28  F   UNL     1      20.013  47.616  49.319  1.00  0.00    -0.206 F 
HETATM   29  C   UNL     1      18.052  48.706  48.617  1.00  0.00     0.043 A 
HETATM   30  C   UNL     1      17.430  49.693  47.861  1.00  0.00     0.003 A 
HETATM   31  C   UNL     1      18.200  50.540  47.066  1.00  0.00     0.001 A 
HETATM   32  C   UNL     1      19.592  50.397  47.031  1.00  0.00     0.011 A 
ENDBRANCH  24  26
ENDBRANCH  20  23
ENDBRANCH   2  19
TORSDOF 6
ENDMDL
MODEL 5
REMARK VINA RESULT:      -8.9      3.027     11.421
REMARK  6 active torsions:
REMARK  status: ('A' for Active; 'I' for Inactive)
REMARK    1  A    between atoms: O_2  and  C_3 
REMARK    2  A    between atoms: C_6  and  C_7 
REMARK    3  A    between atoms: C_11  and  C_12 
REMARK       I    between atoms: C_12  and  N_13 
REMARK    4  A    between atoms: N_13  and  N_14 
REMARK       I    between atoms: N_14  and  C_15 
REMARK    5  A    between atoms: C_15  and  C_16 
REMARK    6  A    between atoms: C_17  and  C_18 
ROOT
HETATM    1  C   UNL     1      24.796  46.671  50.967  1.00  0.00     0.288 C 
HETATM    2  N   UNL     1      23.868  46.067  50.144  1.00  0.00    -0.262 N 
HETATM    3  O   UNL     1      24.753  47.876  51.217  1.00  0.00    -0.264 OA
HETATM    4  H   UNL     1      23.994  45.128  49.774  1.00  0.00     0.190 HD
ENDROOT
BRANCH   1   5
HETATM    5  C   UNL     1      25.814  45.809  51.498  1.00  0.00     0.121 A 
HETATM    6  N   UNL     1      26.153  44.638  50.882  1.00  0.00    -0.272 N 
HETATM    7  N   UNL     1      27.110  43.941  51.510  1.00  0.00    -0.174 NA
HETATM    8  H   UNL     1      25.754  44.262  50.028  1.00  0.00     0.189 HD
HETATM    9  C   UNL     1      27.436  44.691  52.575  1.00  0.00     0.089 A 
HETATM   10  C   UNL     1      26.640  45.873  52.603  1.00  0.00     0.071 A 
BRANCH   9  11
HETATM   11  C   UNL     1      28.471  44.267  53.525  1.00  0.00    -0.005 A 
HETATM   12  C   UNL     1      29.296  43.167  53.263  1.00  0.00     0.016 A 
HETATM   13  C   UNL     1      30.284  42.783  54.179  1.00  0.00     0.037 A 
HETATM   14  C   UNL     1      30.469  43.489  55.369  1.00  0.00     0.068 A 
HETATM   15  C   UNL     1      29.648  44.580  55.645  1.00  0.00     0.037 A 
HETATM   16  C   UNL     1      28.657  44.962  54.730  1.00  0.00     0.016 A 
BRANCH  14  17
HETATM   17  O   UNL     1      31.471  43.014  56.167  1.00  0.00    -0.356 OA
HETATM   18  C   UNL     1      31.695  43.699  57.393  1.00  0.00     0.210 C 
ENDBRANCH  14  17
ENDBRANCH   9  11
ENDBRANCH   1   5
BRANCH   2  19
HETATM   19  N   UNL     1      22.966  46.886  49.448  1.00  0.00    -0.267 N 
HETATM   20  C   UNL     1      22.475  46.429  48.245  1.00  0.00     0.240 C 
HETATM   21  O   UNL     1      22.665  45.291  47.827  1.00  0.00    -0.271 OA
HETATM   22  H   UNL     1      22.948  47.869  49.712  1.00  0.00     0.190 HD
BRANCH  20  23
HETATM   23  C   UNL     1      21.717  47.441  47.462  1.00  0.00     0.089 A 
HETATM   24  C   UNL     1      20.301  47.809  47.872  1.00  0.00     0.036 A 
HETATM   25  C   UNL     1      20.551  47.013  46.612  1.00  0.00     0.025 A 
BRANCH  24  26
HETATM   26  C   UNL     1      19.848  49.247  47.786  1.00  0.00    -0.015 A 
HETATM   27  C   UNL     1      20.272  50.209  48.716  1.00  0.00     0.123 A 
HETATM   28  F   UNL     1      21.117  49.851  49.695  1.00  0.00    -0.206 F 
HETATM   29  C   UNL     1      19.852  51.538  48.657  1.00  0.00     0.043 A 
HETATM   30  C   UNL     1      18.979  51.940  47.652  1.00  0.00     0.003 A 
HETATM   31  C   UNL     1      18.530  51.010  46.716  1.00  0.00     0.001 A 
HETATM   32  C   UNL     1      18.956  49.679  46.788  1.00  0.00     0.011 A 
ENDBRANCH  24  26
ENDBRANCH  20  23
ENDBRANCH   2  19
TORSDOF 6
ENDMDL
MODEL 6
REMARK VINA RESULT:      -8.8      3.711      4.317
REMARK  6 active torsions:
REMARK  status: ('A' for Active; 'I' for Inactive)
REMARK    1  A    between atoms: O_2  and  C_3 
REMARK    2  A    between atoms: C_6  and  C_7 
REMARK    3  A    between atoms: C_11  and  C_12 
REMARK       I    between atoms: C_12  and  N_13 
REMARK    4  A    between atoms: N_13  and  N_14 
REMARK       I    between atoms: N_14  and  C_15 
REMARK    5  A    between atoms: C_15  and  C_16 
REMARK    6  A    between atoms: C_17  and  C_18 
ROOT
HETATM    1  C   UNL     1      24.823  44.714  51.749  1.00  0.00     0.288 C 
HETATM    2  N   UNL     1      26.173  44.874  51.509  1.00  0.00    -0.262 N 
HETATM    3  O   UNL     1      24.391  44.461  52.874  1.00  0.00    -0.264 OA
HETATM    4  H   UNL     1      26.563  44.891  50.570  1.00  0.00     0.190 HD
ENDROOT
BRANCH   1   5
HETATM    5  C   UNL     1      23.965  44.849  50.606  1.00  0.00     0.121 A 
HETATM    6  N   UNL     1      23.816  46.044  49.961  1.00  0.00    -0.272 N 
HETATM    7  N   UNL     1      22.970  46.008  48.922  1.00  0.00    -0.174 NA
HETATM    8  H   UNL     1      24.266  46.923  50.195  1.00  0.00     0.189 HD
HETATM    9  C   UNL     1      22.557  44.731  48.861  1.00  0.00     0.089 A 
HETATM   10  C   UNL     1      23.160  43.972  49.905  1.00  0.00     0.071 A 
BRANCH   9  11
HETATM   11  C   UNL     1      21.612  44.278  47.834  1.00  0.00    -0.005 A 
HETATM   12  C   UNL     1      20.375  44.908  47.651  1.00  0.00     0.016 A 
HETATM   13  C   UNL     1      19.490  44.466  46.661  1.00  0.00     0.037 A 
HETATM   14  C   UNL     1      19.822  43.392  45.833  1.00  0.00     0.068 A 
HETATM   15  C   UNL     1      21.046  42.751  46.011  1.00  0.00     0.037 A 
HETATM   16  C   UNL     1      21.931  43.191  47.006  1.00  0.00     0.016 A 
BRANCH  14  17
HETATM   17  O   UNL     1      18.872  43.069  44.904  1.00  0.00    -0.356 OA
HETATM   18  C   UNL     1      17.862  44.039  44.656  1.00  0.00     0.210 C 
ENDBRANCH  14  17
ENDBRANCH   9  11
ENDBRANCH   1   5
BRANCH   2  19
HETATM   19  N   UNL     1      27.071  44.570  52.543  1.00  0.00    -0.267 N 
HETATM   20  C   UNL     1      27.771  43.387  52.462  1.00  0.00     0.240 C 
HETATM   21  O   UNL     1      27.764  42.664  51.471  1.00  0.00    -0.271 OA
HETATM   22  H   UNL     1      26.947  45.078  53.416  1.00  0.00     0.190 HD
BRANCH  20  23
HETATM   23  C   UNL     1      28.520  43.027  53.696  1.00  0.00     0.089 A 
HETATM   24  C   UNL     1      29.878  43.652  53.966  1.00  0.00     0.036 A 
HETATM   25  C   UNL     1      29.768  42.190  53.599  1.00  0.00     0.025 A 
BRANCH  24  26
HETATM   26  C   UNL     1      30.247  44.057  55.374  1.00  0.00    -0.015 A 
HETATM   27  C   UNL     1      29.763  45.242  55.950  1.00  0.00     0.123 A 
HETATM   28  F   UNL     1      28.934  46.027  55.243  1.00  0.00    -0.206 F 
HETATM   29  C   UNL     1      30.105  45.635  57.243  1.00  0.00     0.043 A 
HETATM   30  C   UNL     1      30.959  44.840  58.001  1.00  0.00     0.003 A 
HETATM   31  C   UNL     1      31.466  43.662  57.459  1.00  0.00     0.001 A 
HETATM   32  C   UNL     1      31.117  43.280  56.159  1.00  0.00     0.011 A 
ENDBRANCH  24  26
ENDBRANCH  20  23
ENDBRANCH   2  19
TORSDOF 6
ENDMDL
MODEL 7
REMARK VINA RESULT:      -8.8      1.928      2.297
REMARK  6 active torsions:
REMARK  status: ('A' for Active; 'I' for Inactive)
REMARK    1  A    between atoms: O_2  and  C_3 
REMARK    2  A    between atoms: C_6  and  C_7 
REMARK    3  A    between atoms: C_11  and  C_12 
REMARK       I    between atoms: C_12  and  N_13 
REMARK    4  A    between atoms: N_13  and  N_14 
REMARK       I    between atoms: N_14  and  C_15 
REMARK    5  A    between atoms: C_15  and  C_16 
REMARK    6  A    between atoms: C_17  and  C_18 
ROOT
HETATM    1  C   UNL     1      25.190  44.794  50.461  1.00  0.00     0.288 C 
HETATM    2  N   UNL     1      24.892  44.479  51.771  1.00  0.00    -0.262 N 
HETATM    3  O   UNL     1      26.209  44.375  49.910  1.00  0.00    -0.264 OA
HETATM    4  H   UNL     1      24.170  44.962  52.299  1.00  0.00     0.190 HD
ENDROOT
BRANCH   1   5
HETATM    5  C   UNL     1      24.247  45.646  49.793  1.00  0.00     0.121 A 
HETATM    6  N   UNL     1      24.270  47.003  49.956  1.00  0.00    -0.272 N 
HETATM    7  N   UNL     1      23.316  47.655  49.277  1.00  0.00    -0.174 NA
HETATM    8  H   UNL     1      24.916  47.537  50.528  1.00  0.00     0.189 HD
HETATM    9  C   UNL     1      22.646  46.694  48.619  1.00  0.00     0.089 A 
HETATM   10  C   UNL     1      23.202  45.417  48.921  1.00  0.00     0.071 A 
BRANCH   9  11
HETATM   11  C   UNL     1      21.512  47.010  47.744  1.00  0.00    -0.005 A 
HETATM   12  C   UNL     1      20.624  48.050  48.046  1.00  0.00     0.016 A 
HETATM   13  C   UNL     1      19.553  48.341  47.193  1.00  0.00     0.037 A 
HETATM   14  C   UNL     1      19.348  47.606  46.025  1.00  0.00     0.068 A 
HETATM   15  C   UNL     1      20.219  46.563  45.718  1.00  0.00     0.037 A 
HETATM   16  C   UNL     1      21.290  46.269  46.574  1.00  0.00     0.016 A 
BRANCH  14  17
HETATM   17  O   UNL     1      18.271  48.000  45.281  1.00  0.00    -0.356 OA
HETATM   18  C   UNL     1      17.002  47.488  45.667  1.00  0.00     0.210 C 
ENDBRANCH  14  17
ENDBRANCH   9  11
ENDBRANCH   1   5
BRANCH   2  19
HETATM   19  N   UNL     1      25.863  43.809  52.530  1.00  0.00    -0.267 N 
HETATM   20  C   UNL     1      26.227  44.356  53.741  1.00  0.00     0.240 C 
HETATM   21  O   UNL     1      25.645  45.306  54.255  1.00  0.00    -0.271 OA
HETATM   22  H   UNL     1      26.444  43.137  52.033  1.00  0.00     0.190 HD
BRANCH  20  23
HETATM   23  C   UNL     1      27.417  43.724  54.371  1.00  0.00     0.089 A 
HETATM   24  C   UNL     1      28.768  44.417  54.299  1.00  0.00     0.036 A 
HETATM   25  C   UNL     1      28.511  43.155  53.507  1.00  0.00     0.025 A 
BRANCH  24  26
HETATM   26  C   UNL     1      29.687  44.389  55.498  1.00  0.00    -0.015 A 
HETATM   27  C   UNL     1      29.674  45.412  56.459  1.00  0.00     0.123 A 
HETATM   28  F   UNL     1      28.811  46.431  56.325  1.00  0.00    -0.206 F 
HETATM   29  C   UNL     1      30.525  45.406  57.564  1.00  0.00     0.043 A 
HETATM   30  C   UNL     1      31.428  44.361  57.732  1.00  0.00     0.003 A 
HETATM   31  C   UNL     1      31.475  43.333  56.793  1.00  0.00     0.001 A 
HETATM   32  C   UNL     1      30.618  43.352  55.687  1.00  0.00     0.011 A 
ENDBRANCH  24  26
ENDBRANCH  20  23
ENDBRANCH   2  19
TORSDOF 6
ENDMDL
MODEL 8
REMARK VINA RESULT:      -8.8      1.584      2.217
REMARK  6 active torsions:
REMARK  status: ('A' for Active; 'I' for Inactive)
REMARK    1  A    between atoms: O_2  and  C_3 
REMARK    2  A    between atoms: C_6  and  C_7 
REMARK    3  A    between atoms: C_11  and  C_12 
REMARK       I    between atoms: C_12  and  N_13 
REMARK    4  A    between atoms: N_13  and  N_14 
REMARK       I    between atoms: N_14  and  C_15 
REMARK    5  A    between atoms: C_15  and  C_16 
REMARK    6  A    between atoms: C_17  and  C_18 
ROOT
HETATM    1  C   UNL     1      25.362  47.075  50.200  1.00  0.00     0.288 C 
HETATM    2  N   UNL     1      24.921  46.440  51.343  1.00  0.00    -0.262 N 
HETATM    3  O   UNL     1      26.528  46.980  49.816  1.00  0.00    -0.264 OA
HETATM    4  H   UNL     1      24.028  46.657  51.779  1.00  0.00     0.190 HD
ENDROOT
BRANCH   1   5
HETATM    5  C   UNL     1      24.381  47.858  49.503  1.00  0.00     0.121 A 
HETATM    6  N   UNL     1      24.678  49.095  49.002  1.00  0.00    -0.272 N 
HETATM    7  N   UNL     1      23.651  49.702  48.391  1.00  0.00    -0.174 NA
HETATM    8  H   UNL     1      25.570  49.576  49.056  1.00  0.00     0.189 HD
HETATM    9  C   UNL     1      22.637  48.825  48.470  1.00  0.00     0.089 A 
HETATM   10  C   UNL     1      23.058  47.654  49.165  1.00  0.00     0.071 A 
BRANCH   9  11
HETATM   11  C   UNL     1      21.318  49.122  47.901  1.00  0.00    -0.005 A 
HETATM   12  C   UNL     1      20.413  48.101  47.583  1.00  0.00     0.016 A 
HETATM   13  C   UNL     1      19.155  48.406  47.049  1.00  0.00     0.037 A 
HETATM   14  C   UNL     1      18.775  49.730  46.824  1.00  0.00     0.068 A 
HETATM   15  C   UNL     1      19.670  50.754  47.128  1.00  0.00     0.037 A 
HETATM   16  C   UNL     1      20.931  50.449  47.660  1.00  0.00     0.016 A 
BRANCH  14  17
HETATM   17  O   UNL     1      17.519  49.886  46.307  1.00  0.00    -0.356 OA
HETATM   18  C   UNL     1      17.288  51.051  45.526  1.00  0.00     0.210 C 
ENDBRANCH  14  17
ENDBRANCH   9  11
ENDBRANCH   1   5
BRANCH   2  19
HETATM   19  N   UNL     1      25.872  45.817  52.165  1.00  0.00    -0.267 N 
HETATM   20  C   UNL     1      25.629  44.523  52.567  1.00  0.00     0.240 C 
HETATM   21  O   UNL     1      24.711  43.839  52.126  1.00  0.00    -0.271 OA
HETATM   22  H   UNL     1      26.524  46.431  52.649  1.00  0.00     0.190 HD
BRANCH  20  23
HETATM   23  C   UNL     1      26.554  44.018  53.617  1.00  0.00     0.089 A 
HETATM   24  C   UNL     1      28.057  44.128  53.417  1.00  0.00     0.036 A 
HETATM   25  C   UNL     1      27.374  42.781  53.362  1.00  0.00     0.025 A 
BRANCH  24  26
HETATM   26  C   UNL     1      28.941  44.486  54.589  1.00  0.00    -0.015 A 
HETATM   27  C   UNL     1      30.092  43.744  54.895  1.00  0.00     0.123 A 
HETATM   28  F   UNL     1      30.432  42.703  54.118  1.00  0.00    -0.206 F 
HETATM   29  C   UNL     1      30.910  44.053  55.981  1.00  0.00     0.043 A 
HETATM   30  C   UNL     1      30.587  45.128  56.803  1.00  0.00     0.003 A 
HETATM   31  C   UNL     1      29.446  45.882  56.534  1.00  0.00     0.001 A 
HETATM   32  C   UNL     1      28.632  45.559  55.443  1.00  0.00     0.011 A 
ENDBRANCH  24  26
ENDBRANCH  20  23
ENDBRANCH   2  19
TORSDOF 6
ENDMDL
MODEL 9
REMARK VINA RESULT:      -8.6      4.318     11.282
REMARK  6 active torsions:
REMARK  status: ('A' for Active; 'I' for Inactive)
REMARK    1  A    between atoms: O_2  and  C_3 
REMARK    2  A    between atoms: C_6  and  C_7 
REMARK    3  A    between atoms: C_11  and  C_12 
REMARK       I    between atoms: C_12  and  N_13 
REMARK    4  A    between atoms: N_13  and  N_14 
REMARK       I    between atoms: N_14  and  C_15 
REMARK    5  A    between atoms: C_15  and  C_16 
REMARK    6  A    between atoms: C_17  and  C_18 
ROOT
HETATM    1  C   UNL     1      24.269  45.878  49.940  1.00  0.00     0.288 C 
HETATM    2  N   UNL     1      24.604  47.198  50.162  1.00  0.00    -0.262 N 
HETATM    3  O   UNL     1      23.194  45.559  49.432  1.00  0.00    -0.264 OA
HETATM    4  H   UNL     1      25.388  47.473  50.747  1.00  0.00     0.190 HD
ENDROOT
BRANCH   1   5
HETATM    5  C   UNL     1      25.246  44.909  50.351  1.00  0.00     0.121 A 
HETATM    6  N   UNL     1      26.073  45.134  51.416  1.00  0.00    -0.272 N 
HETATM    7  N   UNL     1      26.937  44.140  51.662  1.00  0.00    -0.174 NA
HETATM    8  H   UNL     1      26.093  45.959  52.008  1.00  0.00     0.189 HD
HETATM    9  C   UNL     1      26.659  43.207  50.737  1.00  0.00     0.089 A 
HETATM   10  C   UNL     1      25.602  43.656  49.893  1.00  0.00     0.071 A 
BRANCH   9  11
HETATM   11  C   UNL     1      27.397  41.940  50.677  1.00  0.00    -0.005 A 
HETATM   12  C   UNL     1      27.467  41.191  49.497  1.00  0.00     0.016 A 
HETATM   13  C   UNL     1      28.184  39.989  49.458  1.00  0.00     0.037 A 
HETATM   14  C   UNL     1      28.846  39.514  50.591  1.00  0.00     0.068 A 
HETATM   15  C   UNL     1      28.776  40.246  51.774  1.00  0.00     0.037 A 
HETATM   16  C   UNL     1      28.056  41.448  51.814  1.00  0.00     0.016 A 
BRANCH  14  17
HETATM   17  O   UNL     1      29.514  38.334  50.412  1.00  0.00    -0.356 OA
HETATM   18  C   UNL     1      30.067  38.099  49.124  1.00  0.00     0.210 C 
ENDBRANCH  14  17
ENDBRANCH   9  11
ENDBRANCH   1   5
BRANCH   2  19
HETATM   19  N   UNL     1      23.619  48.176  49.956  1.00  0.00    -0.267 N 
HETATM   20  C   UNL     1      23.941  49.262  49.173  1.00  0.00     0.240 C 
HETATM   21  O   UNL     1      24.981  49.345  48.528  1.00  0.00    -0.271 OA
HETATM   22  H   UNL     1      22.842  48.182  50.614  1.00  0.00     0.190 HD
BRANCH  20  23
HETATM   23  C   UNL     1      22.936  50.359  49.194  1.00  0.00     0.089 A 
HETATM   24  C   UNL     1      21.721  50.289  48.284  1.00  0.00     0.036 A 
HETATM   25  C   UNL     1      22.820  51.292  48.019  1.00  0.00     0.025 A 
BRANCH  24  26
HETATM   26  C   UNL     1      20.377  50.750  48.796  1.00  0.00    -0.015 A 
HETATM   27  C   UNL     1      19.573  49.926  49.599  1.00  0.00     0.123 A 
HETATM   28  F   UNL     1      20.014  48.705  49.939  1.00  0.00    -0.206 F 
HETATM   29  C   UNL     1      18.324  50.333  50.068  1.00  0.00     0.043 A 
HETATM   30  C   UNL     1      17.841  51.594  49.735  1.00  0.00     0.003 A 
HETATM   31  C   UNL     1      18.608  52.436  48.933  1.00  0.00     0.001 A 
HETATM   32  C   UNL     1      19.858  52.015  48.466  1.00  0.00     0.011 A 
ENDBRANCH  24  26
ENDBRANCH  20  23
ENDBRANCH   2  19
TORSDOF 6
ENDMDL
MODEL 10
REMARK VINA RESULT:      -8.5      5.576      6.408
REMARK  6 active torsions:
REMARK  status: ('A' for Active; 'I' for Inactive)
REMARK    1  A    between atoms: O_2  and  C_3 
REMARK    2  A    between atoms: C_6  and  C_7 
REMARK    3  A    between atoms: C_11  and  C_12 
REMARK       I    between atoms: C_12  and  N_13 
REMARK    4  A    between atoms: N_13  and  N_14 
REMARK       I    between atoms: N_14  and  C_15 
REMARK    5  A    between atoms: C_15  and  C_16 
REMARK    6  A    between atoms: C_17  and  C_18 
ROOT
HETATM    1  C   UNL     1      26.979  40.154  50.384  1.00  0.00     0.288 C 
HETATM    2  N   UNL     1      26.550  40.712  51.571  1.00  0.00    -0.262 N 
HETATM    3  O   UNL     1      28.118  39.705  50.254  1.00  0.00    -0.264 OA
HETATM    4  H   UNL     1      25.694  41.256  51.642  1.00  0.00     0.190 HD
ENDROOT
BRANCH   1   5
HETATM    5  C   UNL     1      26.019  40.145  49.316  1.00  0.00     0.121 A 
HETATM    6  N   UNL     1      25.968  39.123  48.410  1.00  0.00    -0.272 N 
HETATM    7  N   UNL     1      25.027  39.270  47.467  1.00  0.00    -0.174 NA
HETATM    8  H   UNL     1      26.561  38.300  48.386  1.00  0.00     0.189 HD
HETATM    9  C   UNL     1      24.413  40.425  47.772  1.00  0.00     0.089 A 
HETATM   10  C   UNL     1      25.012  41.006  48.928  1.00  0.00     0.071 A 
BRANCH   9  11
HETATM   11  C   UNL     1      23.301  40.940  46.966  1.00  0.00    -0.005 A 
HETATM   12  C   UNL     1      22.743  40.188  45.925  1.00  0.00     0.016 A 
HETATM   13  C   UNL     1      21.676  40.694  45.173  1.00  0.00     0.037 A 
HETATM   14  C   UNL     1      21.143  41.955  45.446  1.00  0.00     0.068 A 
HETATM   15  C   UNL     1      21.695  42.716  46.474  1.00  0.00     0.037 A 
HETATM   16  C   UNL     1      22.766  42.211  47.225  1.00  0.00     0.016 A 
BRANCH  14  17
HETATM   17  O   UNL     1      20.100  42.322  44.643  1.00  0.00    -0.356 OA
HETATM   18  C   UNL     1      19.749  43.700  44.637  1.00  0.00     0.210 C 
ENDBRANCH  14  17
ENDBRANCH   9  11
ENDBRANCH   1   5
BRANCH   2  19
HETATM   19  N   UNL     1      27.496  40.920  52.587  1.00  0.00    -0.267 N 
HETATM   20  C   UNL     1      27.799  42.218  52.931  1.00  0.00     0.240 C 
HETATM   21  O   UNL     1      27.182  43.191  52.507  1.00  0.00    -0.271 OA
HETATM   22  H   UNL     1      28.107  40.136  52.805  1.00  0.00     0.190 HD
BRANCH  20  23
HETATM   23  C   UNL     1      28.968  42.361  53.839  1.00  0.00     0.089 A 
HETATM   24  C   UNL     1      29.634  43.716  54.007  1.00  0.00     0.036 A 
HETATM   25  C   UNL     1      30.338  42.603  53.265  1.00  0.00     0.025 A 
BRANCH  24  26
HETATM   26  C   UNL     1      30.119  44.146  55.372  1.00  0.00    -0.015 A 
HETATM   27  C   UNL     1      29.754  45.382  55.927  1.00  0.00     0.123 A 
HETATM   28  F   UNL     1      28.937  46.197  55.241  1.00  0.00    -0.206 F 
HETATM   29  C   UNL     1      30.204  45.798  57.179  1.00  0.00     0.043 A 
HETATM   30  C   UNL     1      31.049  44.974  57.916  1.00  0.00     0.003 A 
HETATM   31  C   UNL     1      31.439  43.743  57.392  1.00  0.00     0.001 A 
HETATM   32  C   UNL     1      30.983  43.339  56.133  1.00  0.00     0.011 A 
ENDBRANCH  24  26
ENDBRANCH  20  23
ENDBRANCH   2  19
TORSDOF 6
ENDMDL
