MODEL 1
REMARK VINA RESULT:      -9.9      0.000      0.000
REMARK  5 active torsions:
REMARK  status: ('A' for Active; 'I' for Inactive)
REMARK    1  A    between atoms: C_3  and  C_4 
REMARK    2  A    between atoms: C_4  and  N_5 
REMARK    3  A    between atoms: C_9  and  C_10 
REMARK    4  A    between atoms: C_13  and  C_14 
REMARK    5  A    between atoms: C_14  and  N_15 
ROOT
HETATM    1  N   UNL     1      27.711  44.832  54.451  1.00  0.00    -0.067 N 
HETATM    2  H   UNL     1      27.801  44.007  55.057  1.00  0.00     0.280 HD
HETATM    3  C   UNL     1      26.408  45.511  54.805  1.00  0.00     0.236 C 
HETATM    4  C   UNL     1      25.218  44.648  54.402  1.00  0.00     0.040 C 
HETATM    5  C   UNL     1      25.242  44.237  52.927  1.00  0.00     0.060 C 
HETATM    6  C   UNL     1      26.582  43.561  52.611  1.00  0.00     0.040 C 
HETATM    7  C   UNL     1      27.798  44.388  53.014  1.00  0.00     0.236 C 
ENDROOT
BRANCH   5   8
HETATM    8  C   UNL     1      24.986  45.418  52.031  1.00  0.00     0.134 A 
HETATM    9  N   UNL     1      24.314  45.409  50.828  1.00  0.00    -0.323 N 
HETATM   10  C   UNL     1      23.714  44.266  50.182  1.00  0.00     0.159 C 
HETATM   11  C   UNL     1      24.330  46.708  50.379  1.00  0.00     0.155 A 
HETATM   12  N   UNL     1      24.945  47.458  51.272  1.00  0.00    -0.133 NA
HETATM   13  N   UNL     1      25.356  46.654  52.291  1.00  0.00    -0.134 NA
BRANCH  11  14
HETATM   14  C   UNL     1      23.757  47.230  49.105  1.00  0.00     0.315 C 
BRANCH  14  15
HETATM   15  N   UNL     1      23.036  48.548  49.332  1.00  0.00    -0.064 N 
HETATM   16  H   UNL     1      23.132  48.718  50.347  1.00  0.00     0.280 HD
HETATM   17  C   UNL     1      23.719  49.709  48.647  1.00  0.00     0.235 C 
HETATM   18  C   UNL     1      23.065  51.010  49.085  1.00  0.00     0.028 C 
HETATM   19  C   UNL     1      21.564  51.002  48.816  1.00  0.00     0.003 C 
HETATM   20  C   UNL     1      20.897  49.784  49.446  1.00  0.00     0.028 C 
HETATM   21  C   UNL     1      21.564  48.484  49.018  1.00  0.00     0.235 C 
ENDBRANCH  14  15
ENDBRANCH  11  14
ENDBRANCH   5   8
BRANCH   1  22
HETATM   22  C   UNL     1      28.912  45.717  54.780  1.00  0.00     0.273 C 
BRANCH  22  23
HETATM   23  C   UNL     1      29.782  45.185  55.888  1.00  0.00    -0.027 A 
HETATM   24  C   UNL     1      30.558  44.014  55.763  1.00  0.00    -0.054 A 
HETATM   25  C   UNL     1      30.637  43.183  54.510  1.00  0.00     0.049 C 
HETATM   26  C   UNL     1      31.300  43.568  56.871  1.00  0.00     0.007 A 
HETATM   27  C   UNL     1      31.295  44.271  58.074  1.00  0.00     0.001 A 
HETATM   28  C   UNL     1      30.548  45.434  58.194  1.00  0.00     0.001 A 
HETATM   29  C   UNL     1      29.798  45.889  57.111  1.00  0.00     0.009 A 
ENDBRANCH  22  23
ENDBRANCH   1  22
TORSDOF 5
ENDMDL
MODEL 2
REMARK VINA RESULT:      -9.3      1.666      3.181
REMARK  5 active torsions:
REMARK  status: ('A' for Active; 'I' for Inactive)
REMARK    1  A    between atoms: C_3  and  C_4 
REMARK    2  A    between atoms: C_4  and  N_5 
REMARK    3  A    between atoms: C_9  and  C_10 
REMARK    4  A    between atoms: C_13  and  C_14 
REMARK    5  A    between atoms: C_14  and  N_15 
ROOT
HETATM    1  N   UNL     1      26.193  44.893  52.111  1.00  0.00    -0.067 N 
HETATM    2  H   UNL     1      26.447  43.897  52.111  1.00  0.00     0.280 HD
HETATM    3  C   UNL     1      24.686  44.975  52.181  1.00  0.00     0.236 C 
HETATM    4  C   UNL     1      24.053  44.450  50.897  1.00  0.00     0.040 C 
HETATM    5  C   UNL     1      24.584  45.139  49.636  1.00  0.00     0.060 C 
HETATM    6  C   UNL     1      26.114  45.039  49.611  1.00  0.00     0.040 C 
HETATM    7  C   UNL     1      26.784  45.541  50.886  1.00  0.00     0.236 C 
ENDROOT
BRANCH   5   8
HETATM    8  C   UNL     1      24.116  46.567  49.560  1.00  0.00     0.134 A 
HETATM    9  N   UNL     1      23.157  47.075  48.711  1.00  0.00    -0.323 N 
HETATM   10  C   UNL     1      22.402  46.342  47.723  1.00  0.00     0.159 C 
HETATM   11  C   UNL     1      23.067  48.415  49.005  1.00  0.00     0.155 A 
HETATM   12  N   UNL     1      23.896  48.689  49.992  1.00  0.00    -0.133 NA
HETATM   13  N   UNL     1      24.549  47.543  50.330  1.00  0.00    -0.134 NA
BRANCH  11  14
HETATM   14  C   UNL     1      22.189  49.426  48.348  1.00  0.00     0.315 C 
BRANCH  14  15
HETATM   15  N   UNL     1      21.031  49.811  49.253  1.00  0.00    -0.064 N 
HETATM   16  H   UNL     1      21.470  49.966  50.175  1.00  0.00     0.280 HD
HETATM   17  C   UNL     1      20.402  51.129  48.861  1.00  0.00     0.235 C 
HETATM   18  C   UNL     1      19.396  51.543  49.925  1.00  0.00     0.028 C 
HETATM   19  C   UNL     1      18.345  50.463  50.153  1.00  0.00     0.003 C 
HETATM   20  C   UNL     1      18.992  49.119  50.470  1.00  0.00     0.028 C 
HETATM   21  C   UNL     1      20.010  48.715  49.412  1.00  0.00     0.235 C 
ENDBRANCH  14  15
ENDBRANCH  11  14
ENDBRANCH   5   8
BRANCH   1  22
HETATM   22  C   UNL     1      26.846  45.484  53.359  1.00  0.00     0.273 C 
BRANCH  22  23
HETATM   23  C   UNL     1      27.983  44.663  53.906  1.00  0.00    -0.027 A 
HETATM   24  C   UNL     1      28.842  45.121  54.927  1.00  0.00    -0.054 A 
HETATM   25  C   UNL     1      28.706  46.456  55.610  1.00  0.00     0.049 C 
HETATM   26  C   UNL     1      29.909  44.301  55.336  1.00  0.00     0.007 A 
HETATM   27  C   UNL     1      30.117  43.047  54.767  1.00  0.00     0.001 A 
HETATM   28  C   UNL     1      29.262  42.585  53.776  1.00  0.00     0.001 A 
HETATM   29  C   UNL     1      28.204  43.385  53.348  1.00  0.00     0.009 A 
ENDBRANCH  22  23
ENDBRANCH   1  22
TORSDOF 5
ENDMDL
MODEL 3
REMARK VINA RESULT:      -8.5      1.763      3.487
REMARK  5 active torsions:
REMARK  status: ('A' for Active; 'I' for Inactive)
REMARK    1  A    between atoms: C_3  and  C_4 
REMARK    2  A    between atoms: C_4  and  N_5 
REMARK    3  A    between atoms: C_9  and  C_10 
REMARK    4  A    between atoms: C_13  and  C_14 
REMARK    5  A    between atoms: C_14  and  N_15 
ROOT
HETATM    1  N   UNL     1      26.919  45.647  52.117  1.00  0.00    -0.067 N 
HETATM    2  H   UNL     1      27.913  45.901  52.185  1.00  0.00     0.280 HD
HETATM    3  C   UNL     1      26.736  44.888  50.823  1.00  0.00     0.236 C 
HETATM    4  C   UNL     1      26.949  45.801  49.621  1.00  0.00     0.040 C 
HETATM    5  C   UNL     1      26.071  47.055  49.653  1.00  0.00     0.060 C 
HETATM    6  C   UNL     1      26.282  47.788  50.984  1.00  0.00     0.040 C 
HETATM    7  C   UNL     1      26.092  46.903  52.210  1.00  0.00     0.236 C 
ENDROOT
BRANCH   5   8
HETATM    8  C   UNL     1      24.624  46.710  49.428  1.00  0.00     0.134 A 
HETATM    9  N   UNL     1      23.654  47.531  48.895  1.00  0.00    -0.323 N 
HETATM   10  C   UNL     1      23.827  48.889  48.439  1.00  0.00     0.159 C 
HETATM   11  C   UNL     1      22.498  46.786  48.884  1.00  0.00     0.155 A 
HETATM   12  N   UNL     1      22.763  45.583  49.350  1.00  0.00    -0.133 NA
HETATM   13  N   UNL     1      24.080  45.540  49.693  1.00  0.00    -0.134 NA
BRANCH  11  14
HETATM   14  C   UNL     1      21.148  47.225  48.425  1.00  0.00     0.315 C 
BRANCH  14  15
HETATM   15  N   UNL     1      20.537  48.217  49.401  1.00  0.00    -0.064 N 
HETATM   16  H   UNL     1      21.138  48.149  50.239  1.00  0.00     0.280 HD
HETATM   17  C   UNL     1      20.647  49.646  48.920  1.00  0.00     0.235 C 
HETATM   18  C   UNL     1      20.205  50.587  50.031  1.00  0.00     0.028 C 
HETATM   19  C   UNL     1      18.796  50.261  50.514  1.00  0.00     0.003 C 
HETATM   20  C   UNL     1      18.676  48.797  50.922  1.00  0.00     0.028 C 
HETATM   21  C   UNL     1      19.134  47.858  49.814  1.00  0.00     0.235 C 
ENDBRANCH  14  15
ENDBRANCH  11  14
ENDBRANCH   5   8
BRANCH   1  22
HETATM   22  C   UNL     1      26.635  44.764  53.330  1.00  0.00     0.273 C 
BRANCH  22  23
HETATM   23  C   UNL     1      27.871  44.286  54.046  1.00  0.00    -0.027 A 
HETATM   24  C   UNL     1      28.588  45.086  54.960  1.00  0.00    -0.054 A 
HETATM   25  C   UNL     1      28.190  46.484  55.353  1.00  0.00     0.049 C 
HETATM   26  C   UNL     1      29.761  44.570  55.540  1.00  0.00     0.007 A 
HETATM   27  C   UNL     1      30.209  43.285  55.243  1.00  0.00     0.001 A 
HETATM   28  C   UNL     1      29.495  42.489  54.359  1.00  0.00     0.001 A 
HETATM   29  C   UNL     1      28.336  42.984  53.765  1.00  0.00     0.009 A 
ENDBRANCH  22  23
ENDBRANCH   1  22
TORSDOF 5
ENDMDL
MODEL 4
REMARK VINA RESULT:      -8.4      2.918     10.698
REMARK  5 active torsions:
REMARK  status: ('A' for Active; 'I' for Inactive)
REMARK    1  A    between atoms: C_3  and  C_4 
REMARK    2  A    between atoms: C_4  and  N_5 
REMARK    3  A    between atoms: C_9  and  C_10 
REMARK    4  A    between atoms: C_13  and  C_14 
REMARK    5  A    between atoms: C_14  and  N_15 
ROOT
HETATM    1  N   UNL     1      20.583  50.656  49.249  1.00  0.00    -0.067 N 
HETATM    2  H   UNL     1      20.332  51.550  48.809  1.00  0.00     0.280 HD
HETATM    3  C   UNL     1      21.795  50.905  50.116  1.00  0.00     0.236 C 
HETATM    4  C   UNL     1      23.016  51.233  49.264  1.00  0.00     0.040 C 
HETATM    5  C   UNL     1      23.310  50.173  48.198  1.00  0.00     0.060 C 
HETATM    6  C   UNL     1      22.053  49.947  47.349  1.00  0.00     0.040 C 
HETATM    7  C   UNL     1      20.807  49.631  48.168  1.00  0.00     0.236 C 
ENDROOT
BRANCH   5   8
HETATM    8  C   UNL     1      23.800  48.896  48.824  1.00  0.00     0.134 A 
HETATM    9  N   UNL     1      25.108  48.561  49.096  1.00  0.00    -0.323 N 
HETATM   10  C   UNL     1      26.278  49.367  48.841  1.00  0.00     0.159 C 
HETATM   11  C   UNL     1      25.064  47.309  49.663  1.00  0.00     0.155 A 
HETATM   12  N   UNL     1      23.806  46.929  49.756  1.00  0.00    -0.133 NA
HETATM   13  N   UNL     1      23.025  47.911  49.230  1.00  0.00    -0.134 NA
BRANCH  11  14
HETATM   14  C   UNL     1      26.221  46.483  50.117  1.00  0.00     0.315 C 
BRANCH  14  15
HETATM   15  N   UNL     1      26.031  46.023  51.553  1.00  0.00    -0.064 N 
HETATM   16  H   UNL     1      25.039  45.734  51.597  1.00  0.00     0.280 HD
HETATM   17  C   UNL     1      26.841  44.789  51.879  1.00  0.00     0.235 C 
HETATM   18  C   UNL     1      26.444  44.273  53.254  1.00  0.00     0.028 C 
HETATM   19  C   UNL     1      26.601  45.349  54.323  1.00  0.00     0.003 C 
HETATM   20  C   UNL     1      25.844  46.618  53.946  1.00  0.00     0.028 C 
HETATM   21  C   UNL     1      26.231  47.122  52.562  1.00  0.00     0.235 C 
ENDBRANCH  14  15
ENDBRANCH  11  14
ENDBRANCH   5   8
BRANCH   1  22
HETATM   22  C   UNL     1      19.369  50.253  50.084  1.00  0.00     0.273 C 
BRANCH  22  23
HETATM   23  C   UNL     1      18.082  50.906  49.653  1.00  0.00    -0.027 A 
HETATM   24  C   UNL     1      17.084  50.230  48.921  1.00  0.00    -0.054 A 
HETATM   25  C   UNL     1      17.168  48.782  48.515  1.00  0.00     0.049 C 
HETATM   26  C   UNL     1      15.938  50.940  48.519  1.00  0.00     0.007 A 
HETATM   27  C   UNL     1      15.767  52.282  48.848  1.00  0.00     0.001 A 
HETATM   28  C   UNL     1      16.738  52.945  49.586  1.00  0.00     0.001 A 
HETATM   29  C   UNL     1      17.886  52.263  49.985  1.00  0.00     0.009 A 
ENDBRANCH  22  23
ENDBRANCH   1  22
TORSDOF 5
ENDMDL
MODEL 5
REMARK VINA RESULT:      -8.3      2.023      3.493
REMARK  5 active torsions:
REMARK  status: ('A' for Active; 'I' for Inactive)
REMARK    1  A    between atoms: C_3  and  C_4 
REMARK    2  A    between atoms: C_4  and  N_5 
REMARK    3  A    between atoms: C_9  and  C_10 
REMARK    4  A    between atoms: C_13  and  C_14 
REMARK    5  A    between atoms: C_14  and  N_15 
ROOT
HETATM    1  N   UNL     1      25.841  43.766  52.199  1.00  0.00    -0.067 N 
HETATM    2  H   UNL     1      26.193  42.817  52.022  1.00  0.00     0.280 HD
HETATM    3  C   UNL     1      24.409  43.814  51.720  1.00  0.00     0.236 C 
HETATM    4  C   UNL     1      24.339  43.690  50.202  1.00  0.00     0.040 C 
HETATM    5  C   UNL     1      25.198  44.725  49.471  1.00  0.00     0.060 C 
HETATM    6  C   UNL     1      26.638  44.648  49.993  1.00  0.00     0.040 C 
HETATM    7  C   UNL     1      26.748  44.753  51.510  1.00  0.00     0.236 C 
ENDROOT
BRANCH   5   8
HETATM    8  C   UNL     1      24.624  46.108  49.618  1.00  0.00     0.134 A 
HETATM    9  N   UNL     1      23.578  46.646  48.899  1.00  0.00    -0.323 N 
HETATM   10  C   UNL     1      22.817  45.994  47.861  1.00  0.00     0.159 C 
HETATM   11  C   UNL     1      23.411  47.924  49.381  1.00  0.00     0.155 A 
HETATM   12  N   UNL     1      24.279  48.129  50.350  1.00  0.00    -0.133 NA
HETATM   13  N   UNL     1      25.034  47.005  50.491  1.00  0.00    -0.134 NA
BRANCH  11  14
HETATM   14  C   UNL     1      22.422  48.940  48.917  1.00  0.00     0.315 C 
BRANCH  14  15
HETATM   15  N   UNL     1      21.047  48.667  49.503  1.00  0.00    -0.064 N 
HETATM   16  H   UNL     1      21.238  48.092  50.341  1.00  0.00     0.280 HD
HETATM   17  C   UNL     1      20.369  49.923  50.003  1.00  0.00     0.235 C 
HETATM   18  C   UNL     1      19.101  49.547  50.754  1.00  0.00     0.028 C 
HETATM   19  C   UNL     1      18.166  48.708  49.891  1.00  0.00     0.003 C 
HETATM   20  C   UNL     1      18.882  47.485  49.328  1.00  0.00     0.028 C 
HETATM   21  C   UNL     1      20.159  47.863  48.590  1.00  0.00     0.235 C 
ENDBRANCH  14  15
ENDBRANCH  11  14
ENDBRANCH   5   8
BRANCH   1  22
HETATM   22  C   UNL     1      25.935  43.965  53.710  1.00  0.00     0.273 C 
BRANCH  22  23
HETATM   23  C   UNL     1      26.596  45.255  54.121  1.00  0.00    -0.027 A 
HETATM   24  C   UNL     1      27.929  45.325  54.576  1.00  0.00    -0.054 A 
HETATM   25  C   UNL     1      28.853  44.140  54.672  1.00  0.00     0.049 C 
HETATM   26  C   UNL     1      28.443  46.568  54.986  1.00  0.00     0.007 A 
HETATM   27  C   UNL     1      27.668  47.724  54.931  1.00  0.00     0.001 A 
HETATM   28  C   UNL     1      26.362  47.662  54.466  1.00  0.00     0.001 A 
HETATM   29  C   UNL     1      25.830  46.439  54.064  1.00  0.00     0.009 A 
ENDBRANCH  22  23
ENDBRANCH   1  22
TORSDOF 5
ENDMDL
MODEL 6
REMARK VINA RESULT:      -8.3      3.606      6.447
REMARK  5 active torsions:
REMARK  status: ('A' for Active; 'I' for Inactive)
REMARK    1  A    between atoms: C_3  and  C_4 
REMARK    2  A    between atoms: C_4  and  N_5 
REMARK    3  A    between atoms: C_9  and  C_10 
REMARK    4  A    between atoms: C_13  and  C_14 
REMARK    5  A    between atoms: C_14  and  N_15 
ROOT
HETATM    1  N   UNL     1      27.289  45.982  54.885  1.00  0.00    -0.067 N 
HETATM    2  H   UNL     1      26.658  46.526  55.486  1.00  0.00     0.280 HD
HETATM    3  C   UNL     1      26.971  46.345  53.453  1.00  0.00     0.236 C 
HETATM    4  C   UNL     1      25.588  45.840  53.058  1.00  0.00     0.040 C 
HETATM    5  C   UNL     1      25.401  44.340  53.301  1.00  0.00     0.060 C 
HETATM    6  C   UNL     1      25.741  44.016  54.761  1.00  0.00     0.040 C 
HETATM    7  C   UNL     1      27.112  44.519  55.198  1.00  0.00     0.236 C 
ENDROOT
BRANCH   5   8
HETATM    8  C   UNL     1      26.227  43.527  52.341  1.00  0.00     0.134 A 
HETATM    9  N   UNL     1      25.913  43.229  51.033  1.00  0.00    -0.323 N 
HETATM   10  C   UNL     1      24.731  43.637  50.313  1.00  0.00     0.159 C 
HETATM   11  C   UNL     1      26.959  42.472  50.560  1.00  0.00     0.155 A 
HETATM   12  N   UNL     1      27.860  42.351  51.514  1.00  0.00    -0.133 NA
HETATM   13  N   UNL     1      27.401  43.000  52.618  1.00  0.00    -0.134 NA
BRANCH  11  14
HETATM   14  C   UNL     1      27.096  41.872  49.201  1.00  0.00     0.315 C 
BRANCH  14  15
HETATM   15  N   UNL     1      27.540  40.422  49.289  1.00  0.00    -0.064 N 
HETATM   16  H   UNL     1      27.714  40.271  50.296  1.00  0.00     0.280 HD
HETATM   17  C   UNL     1      26.444  39.455  48.903  1.00  0.00     0.235 C 
HETATM   18  C   UNL     1      26.892  38.035  49.212  1.00  0.00     0.028 C 
HETATM   19  C   UNL     1      28.208  37.700  48.518  1.00  0.00     0.003 C 
HETATM   20  C   UNL     1      29.285  38.725  48.851  1.00  0.00     0.028 C 
HETATM   21  C   UNL     1      28.828  40.148  48.557  1.00  0.00     0.235 C 
ENDBRANCH  14  15
ENDBRANCH  11  14
ENDBRANCH   5   8
BRANCH   1  22
HETATM   22  C   UNL     1      28.702  46.414  55.273  1.00  0.00     0.273 C 
BRANCH  22  23
HETATM   23  C   UNL     1      29.587  45.283  55.727  1.00  0.00    -0.027 A 
HETATM   24  C   UNL     1      30.149  45.217  57.019  1.00  0.00    -0.054 A 
HETATM   25  C   UNL     1      29.907  46.238  58.099  1.00  0.00     0.049 C 
HETATM   26  C   UNL     1      31.006  44.147  57.334  1.00  0.00     0.007 A 
HETATM   27  C   UNL     1      31.289  43.150  56.403  1.00  0.00     0.001 A 
HETATM   28  C   UNL     1      30.722  43.202  55.138  1.00  0.00     0.001 A 
HETATM   29  C   UNL     1      29.879  44.259  54.801  1.00  0.00     0.009 A 
ENDBRANCH  22  23
ENDBRANCH   1  22
TORSDOF 5
ENDMDL
MODEL 7
REMARK VINA RESULT:      -8.2      1.504      2.259
REMARK  5 active torsions:
REMARK  status: ('A' for Active; 'I' for Inactive)
REMARK    1  A    between atoms: C_3  and  C_4 
REMARK    2  A    between atoms: C_4  and  N_5 
REMARK    3  A    between atoms: C_9  and  C_10 
REMARK    4  A    between atoms: C_13  and  C_14 
REMARK    5  A    between atoms: C_14  and  N_15 
ROOT
HETATM    1  N   UNL     1      28.578  43.603  53.724  1.00  0.00    -0.067 N 
HETATM    2  H   UNL     1      28.309  42.925  54.448  1.00  0.00     0.280 HD
HETATM    3  C   UNL     1      27.705  44.823  53.902  1.00  0.00     0.236 C 
HETATM    4  C   UNL     1      26.252  44.506  53.564  1.00  0.00     0.040 C 
HETATM    5  C   UNL     1      26.075  43.900  52.169  1.00  0.00     0.060 C 
HETATM    6  C   UNL     1      26.983  42.673  52.030  1.00  0.00     0.040 C 
HETATM    7  C   UNL     1      28.443  42.947  52.374  1.00  0.00     0.236 C 
ENDROOT
BRANCH   5   8
HETATM    8  C   UNL     1      26.345  44.920  51.096  1.00  0.00     0.134 A 
HETATM    9  N   UNL     1      26.041  46.264  51.142  1.00  0.00    -0.323 N 
HETATM   10  C   UNL     1      25.405  46.969  52.228  1.00  0.00     0.159 C 
HETATM   11  C   UNL     1      26.473  46.786  49.946  1.00  0.00     0.155 A 
HETATM   12  N   UNL     1      27.032  45.825  49.240  1.00  0.00    -0.133 NA
HETATM   13  N   UNL     1      26.945  44.668  49.952  1.00  0.00    -0.134 NA
BRANCH  11  14
HETATM   14  C   UNL     1      26.356  48.201  49.485  1.00  0.00     0.315 C 
BRANCH  14  15
HETATM   15  N   UNL     1      24.900  48.593  49.299  1.00  0.00    -0.064 N 
HETATM   16  H   UNL     1      24.596  48.893  50.241  1.00  0.00     0.280 HD
HETATM   17  C   UNL     1      24.734  49.798  48.401  1.00  0.00     0.235 C 
HETATM   18  C   UNL     1      23.282  50.251  48.429  1.00  0.00     0.028 C 
HETATM   19  C   UNL     1      22.335  49.122  48.038  1.00  0.00     0.003 C 
HETATM   20  C   UNL     1      22.565  47.884  48.898  1.00  0.00     0.028 C 
HETATM   21  C   UNL     1      24.022  47.443  48.881  1.00  0.00     0.235 C 
ENDBRANCH  14  15
ENDBRANCH  11  14
ENDBRANCH   5   8
BRANCH   1  22
HETATM   22  C   UNL     1      30.049  43.923  53.985  1.00  0.00     0.273 C 
BRANCH  22  23
HETATM   23  C   UNL     1      30.381  44.145  55.437  1.00  0.00    -0.027 A 
HETATM   24  C   UNL     1      30.066  45.335  56.125  1.00  0.00    -0.054 A 
HETATM   25  C   UNL     1      29.337  46.499  55.509  1.00  0.00     0.049 C 
HETATM   26  C   UNL     1      30.464  45.469  57.467  1.00  0.00     0.007 A 
HETATM   27  C   UNL     1      31.140  44.445  58.127  1.00  0.00     0.001 A 
HETATM   28  C   UNL     1      31.435  43.266  57.458  1.00  0.00     0.001 A 
HETATM   29  C   UNL     1      31.059  43.115  56.125  1.00  0.00     0.009 A 
ENDBRANCH  22  23
ENDBRANCH   1  22
TORSDOF 5
ENDMDL
MODEL 8
REMARK VINA RESULT:      -8.1      2.850      4.116
REMARK  5 active torsions:
REMARK  status: ('A' for Active; 'I' for Inactive)
REMARK    1  A    between atoms: C_3  and  C_4 
REMARK    2  A    between atoms: C_4  and  N_5 
REMARK    3  A    between atoms: C_9  and  C_10 
REMARK    4  A    between atoms: C_13  and  C_14 
REMARK    5  A    between atoms: C_14  and  N_15 
ROOT
HETATM    1  N   UNL     1      27.045  45.163  52.218  1.00  0.00    -0.067 N 
HETATM    2  H   UNL     1      27.890  45.736  52.337  1.00  0.00     0.280 HD
HETATM    3  C   UNL     1      27.146  44.485  50.871  1.00  0.00     0.236 C 
HETATM    4  C   UNL     1      27.043  45.503  49.741  1.00  0.00     0.040 C 
HETATM    5  C   UNL     1      25.787  46.375  49.826  1.00  0.00     0.060 C 
HETATM    6  C   UNL     1      25.721  47.036  51.208  1.00  0.00     0.040 C 
HETATM    7  C   UNL     1      25.836  46.050  52.366  1.00  0.00     0.236 C 
ENDROOT
BRANCH   5   8
HETATM    8  C   UNL     1      24.549  45.574  49.529  1.00  0.00     0.134 A 
HETATM    9  N   UNL     1      23.326  46.065  49.127  1.00  0.00    -0.323 N 
HETATM   10  C   UNL     1      22.982  47.449  48.905  1.00  0.00     0.159 C 
HETATM   11  C   UNL     1      22.512  44.968  48.979  1.00  0.00     0.155 A 
HETATM   12  N   UNL     1      23.210  43.882  49.242  1.00  0.00    -0.133 NA
HETATM   13  N   UNL     1      24.470  44.261  49.589  1.00  0.00    -0.134 NA
BRANCH  11  14
HETATM   14  C   UNL     1      21.073  44.959  48.582  1.00  0.00     0.315 C 
BRANCH  14  15
HETATM   15  N   UNL     1      20.924  45.081  47.075  1.00  0.00    -0.064 N 
HETATM   16  H   UNL     1      21.875  45.317  46.744  1.00  0.00     0.280 HD
HETATM   17  C   UNL     1      20.568  43.766  46.419  1.00  0.00     0.235 C 
HETATM   18  C   UNL     1      20.639  43.920  44.907  1.00  0.00     0.028 C 
HETATM   19  C   UNL     1      19.745  45.054  44.418  1.00  0.00     0.003 C 
HETATM   20  C   UNL     1      20.060  46.358  45.142  1.00  0.00     0.028 C 
HETATM   21  C   UNL     1      20.004  46.196  46.655  1.00  0.00     0.235 C 
ENDBRANCH  14  15
ENDBRANCH  11  14
ENDBRANCH   5   8
BRANCH   1  22
HETATM   22  C   UNL     1      27.070  44.149  53.359  1.00  0.00     0.273 C 
BRANCH  22  23
HETATM   23  C   UNL     1      28.347  44.152  54.157  1.00  0.00    -0.027 A 
HETATM   24  C   UNL     1      29.369  43.196  53.978  1.00  0.00    -0.054 A 
HETATM   25  C   UNL     1      29.322  42.091  52.957  1.00  0.00     0.049 C 
HETATM   26  C   UNL     1      30.504  43.251  54.807  1.00  0.00     0.007 A 
HETATM   27  C   UNL     1      30.642  44.239  55.779  1.00  0.00     0.001 A 
HETATM   28  C   UNL     1      29.647  45.192  55.945  1.00  0.00     0.001 A 
HETATM   29  C   UNL     1      28.510  45.151  55.141  1.00  0.00     0.009 A 
ENDBRANCH  22  23
ENDBRANCH   1  22
TORSDOF 5
ENDMDL
MODEL 9
REMARK VINA RESULT:      -8.1      1.701      2.766
REMARK  5 active torsions:
REMARK  status: ('A' for Active; 'I' for Inactive)
REMARK    1  A    between atoms: C_3  and  C_4 
REMARK    2  A    between atoms: C_4  and  N_5 
REMARK    3  A    between atoms: C_9  and  C_10 
REMARK    4  A    between atoms: C_13  and  C_14 
REMARK    5  A    between atoms: C_14  and  N_15 
ROOT
HETATM    1  N   UNL     1      26.455  43.857  52.238  1.00  0.00    -0.067 N 
HETATM    2  H   UNL     1      27.034  43.014  52.142  1.00  0.00     0.280 HD
HETATM    3  C   UNL     1      25.095  43.539  51.661  1.00  0.00     0.236 C 
HETATM    4  C   UNL     1      25.178  43.338  50.152  1.00  0.00     0.040 C 
HETATM    5  C   UNL     1      25.824  44.519  49.421  1.00  0.00     0.060 C 
HETATM    6  C   UNL     1      27.194  44.812  50.043  1.00  0.00     0.040 C 
HETATM    7  C   UNL     1      27.155  45.004  51.555  1.00  0.00     0.236 C 
ENDROOT
BRANCH   5   8
HETATM    8  C   UNL     1      24.928  45.728  49.446  1.00  0.00     0.134 A 
HETATM    9  N   UNL     1      25.325  47.047  49.436  1.00  0.00    -0.323 N 
HETATM   10  C   UNL     1      26.680  47.542  49.397  1.00  0.00     0.159 C 
HETATM   11  C   UNL     1      24.166  47.787  49.466  1.00  0.00     0.155 A 
HETATM   12  N   UNL     1      23.137  46.965  49.461  1.00  0.00    -0.133 NA
HETATM   13  N   UNL     1      23.612  45.689  49.455  1.00  0.00    -0.134 NA
BRANCH  11  14
HETATM   14  C   UNL     1      24.046  49.274  49.496  1.00  0.00     0.315 C 
BRANCH  14  15
HETATM   15  N   UNL     1      22.623  49.711  49.189  1.00  0.00    -0.064 N 
HETATM   16  H   UNL     1      22.053  48.870  49.381  1.00  0.00     0.280 HD
HETATM   17  C   UNL     1      22.127  50.778  50.138  1.00  0.00     0.235 C 
HETATM   18  C   UNL     1      20.643  51.013  49.902  1.00  0.00     0.028 C 
HETATM   19  C   UNL     1      20.357  51.374  48.448  1.00  0.00     0.003 C 
HETATM   20  C   UNL     1      20.931  50.331  47.496  1.00  0.00     0.028 C 
HETATM   21  C   UNL     1      22.413  50.086  47.746  1.00  0.00     0.235 C 
ENDBRANCH  14  15
ENDBRANCH  11  14
ENDBRANCH   5   8
BRANCH   1  22
HETATM   22  C   UNL     1      26.377  44.136  53.738  1.00  0.00     0.273 C 
BRANCH  22  23
HETATM   23  C   UNL     1      27.718  44.292  54.405  1.00  0.00    -0.027 A 
HETATM   24  C   UNL     1      28.693  43.273  54.421  1.00  0.00    -0.054 A 
HETATM   25  C   UNL     1      28.527  41.934  53.753  1.00  0.00     0.049 C 
HETATM   26  C   UNL     1      29.897  43.495  55.115  1.00  0.00     0.007 A 
HETATM   27  C   UNL     1      30.146  44.703  55.762  1.00  0.00     0.001 A 
HETATM   28  C   UNL     1      29.197  45.715  55.731  1.00  0.00     0.001 A 
HETATM   29  C   UNL     1      27.993  45.513  55.059  1.00  0.00     0.009 A 
ENDBRANCH  22  23
ENDBRANCH   1  22
TORSDOF 5
ENDMDL
MODEL 10
REMARK VINA RESULT:      -7.8      2.728      4.220
REMARK  5 active torsions:
REMARK  status: ('A' for Active; 'I' for Inactive)
REMARK    1  A    between atoms: C_3  and  C_4 
REMARK    2  A    between atoms: C_4  and  N_5 
REMARK    3  A    between atoms: C_9  and  C_10 
REMARK    4  A    between atoms: C_13  and  C_14 
REMARK    5  A    between atoms: C_14  and  N_15 
ROOT
HETATM    1  N   UNL     1      26.699  45.436  52.383  1.00  0.00    -0.067 N 
HETATM    2  H   UNL     1      27.556  45.996  52.482  1.00  0.00     0.280 HD
HETATM    3  C   UNL     1      26.833  44.627  51.115  1.00  0.00     0.236 C 
HETATM    4  C   UNL     1      26.807  45.531  49.887  1.00  0.00     0.040 C 
HETATM    5  C   UNL     1      25.575  46.439  49.833  1.00  0.00     0.060 C 
HETATM    6  C   UNL     1      25.474  47.234  51.141  1.00  0.00     0.040 C 
HETATM    7  C   UNL     1      25.512  46.365  52.393  1.00  0.00     0.236 C 
ENDROOT
BRANCH   5   8
HETATM    8  C   UNL     1      24.326  45.645  49.564  1.00  0.00     0.134 A 
HETATM    9  N   UNL     1      23.152  46.116  49.016  1.00  0.00    -0.323 N 
HETATM   10  C   UNL     1      22.880  47.466  48.586  1.00  0.00     0.159 C 
HETATM   11  C   UNL     1      22.304  45.035  48.962  1.00  0.00     0.155 A 
HETATM   12  N   UNL     1      22.939  43.974  49.417  1.00  0.00    -0.133 NA
HETATM   13  N   UNL     1      24.189  44.356  49.795  1.00  0.00    -0.134 NA
BRANCH  11  14
HETATM   14  C   UNL     1      20.895  45.018  48.473  1.00  0.00     0.315 C 
BRANCH  14  15
HETATM   15  N   UNL     1      20.847  45.007  46.954  1.00  0.00    -0.064 N 
HETATM   16  H   UNL     1      20.158  44.270  46.727  1.00  0.00     0.280 HD
HETATM   17  C   UNL     1      20.290  46.291  46.382  1.00  0.00     0.235 C 
HETATM   18  C   UNL     1      20.082  46.127  44.884  1.00  0.00     0.028 C 
HETATM   19  C   UNL     1      21.369  45.710  44.182  1.00  0.00     0.003 C 
HETATM   20  C   UNL     1      21.964  44.458  44.817  1.00  0.00     0.028 C 
HETATM   21  C   UNL     1      22.156  44.619  46.320  1.00  0.00     0.235 C 
ENDBRANCH  14  15
ENDBRANCH  11  14
ENDBRANCH   5   8
BRANCH   1  22
HETATM   22  C   UNL     1      26.648  44.539  53.618  1.00  0.00     0.273 C 
BRANCH  22  23
HETATM   23  C   UNL     1      27.968  44.394  54.328  1.00  0.00    -0.027 A 
HETATM   24  C   UNL     1      28.512  45.399  55.155  1.00  0.00    -0.054 A 
HETATM   25  C   UNL     1      27.831  46.709  55.453  1.00  0.00     0.049 C 
HETATM   26  C   UNL     1      29.777  45.193  55.734  1.00  0.00     0.007 A 
HETATM   27  C   UNL     1      30.485  44.012  55.521  1.00  0.00     0.001 A 
HETATM   28  C   UNL     1      29.945  43.013  54.724  1.00  0.00     0.001 A 
HETATM   29  C   UNL     1      28.697  43.201  54.132  1.00  0.00     0.009 A 
ENDBRANCH  22  23
ENDBRANCH   1  22
TORSDOF 5
ENDMDL
