MODEL 1
REMARK VINA RESULT:      -9.5      0.000      0.000
REMARK  4 active torsions:
REMARK  status: ('A' for Active; 'I' for Inactive)
REMARK    1  A    between atoms: O_2  and  C_3 
REMARK    2  A    between atoms: C_5  and  C_6 
REMARK    3  A    between atoms: C_10  and  C_11 
REMARK       I    between atoms: C_11  and  N_12 
REMARK    4  A    between atoms: N_12  and  N_13 
ROOT
HETATM    1  C   UNL     1      25.827  43.842  51.637  1.00  0.00     0.289 C 
HETATM    2  N   UNL     1      26.777  44.544  52.365  1.00  0.00    -0.241 N 
HETATM    3  O   UNL     1      24.616  43.912  51.815  1.00  0.00    -0.264 OA
HETATM    4  H   UNL     1      27.740  44.523  52.066  1.00  0.00     0.192 HD
ENDROOT
BRANCH   1   5
HETATM    5  C   UNL     1      26.389  42.957  50.645  1.00  0.00     0.121 A 
HETATM    6  N   UNL     1      26.362  43.270  49.315  1.00  0.00    -0.272 N 
HETATM    7  N   UNL     1      26.870  42.317  48.515  1.00  0.00    -0.174 NA
HETATM    8  H   UNL     1      25.983  44.116  48.897  1.00  0.00     0.189 HD
HETATM    9  C   UNL     1      27.289  41.357  49.355  1.00  0.00     0.089 A 
HETATM   10  C   UNL     1      27.009  41.725  50.701  1.00  0.00     0.071 A 
BRANCH   9  11
HETATM   11  C   UNL     1      27.911  40.120  48.873  1.00  0.00    -0.003 A 
HETATM   12  C   UNL     1      28.757  39.379  49.718  1.00  0.00     0.050 A 
HETATM   13  C   UNL     1      29.381  38.215  49.261  1.00  0.00     0.069 A 
HETATM   14  C   UNL     1      29.156  37.788  47.951  1.00  0.00     0.037 A 
HETATM   15  C   UNL     1      28.311  38.504  47.105  1.00  0.00     0.004 A 
HETATM   16  C   UNL     1      27.691  39.666  47.565  1.00  0.00     0.014 A 
BRANCH  13  17
HETATM   17  O   UNL     1      30.228  37.420  49.983  1.00  0.00    -0.356 OA
HETATM   18  C   UNL     1      29.941  37.271  51.368  1.00  0.00     0.210 C 
ENDBRANCH  13  17
ENDBRANCH   9  11
ENDBRANCH   1   5
BRANCH   2  19
HETATM   19  N   UNL     1      26.410  45.505  53.257  1.00  0.00    -0.165 NA
HETATM   20  C   UNL     1      27.210  45.769  54.243  1.00  0.00     0.157 A 
HETATM   21  C   UNL     1      26.978  46.984  55.164  1.00  0.00     0.277 A 
HETATM   22  C   UNL     1      28.438  45.126  54.739  1.00  0.00     0.027 A 
HETATM   23  O   UNL     1      26.045  47.755  55.126  1.00  0.00    -0.266 OA
HETATM   24  N   UNL     1      28.064  47.013  56.009  1.00  0.00    -0.321 N 
HETATM   25  C   UNL     1      28.908  45.935  55.775  1.00  0.00     0.048 A 
HETATM   26  H   UNL     1      28.173  47.715  56.727  1.00  0.00     0.169 HD
HETATM   27  C   UNL     1      30.059  45.633  56.477  1.00  0.00     0.030 A 
HETATM   28  C   UNL     1      30.737  44.464  56.128  1.00  0.00     0.002 A 
HETATM   29  C   UNL     1      30.248  43.622  55.114  1.00  0.00     0.001 A 
HETATM   30  C   UNL     1      29.080  43.944  54.414  1.00  0.00     0.016 A 
ENDBRANCH   2  19
TORSDOF 4
ENDMDL
MODEL 2
REMARK VINA RESULT:      -9.0      1.152      1.920
REMARK  4 active torsions:
REMARK  status: ('A' for Active; 'I' for Inactive)
REMARK    1  A    between atoms: O_2  and  C_3 
REMARK    2  A    between atoms: C_5  and  C_6 
REMARK    3  A    between atoms: C_10  and  C_11 
REMARK       I    between atoms: C_11  and  N_12 
REMARK    4  A    between atoms: N_12  and  N_13 
ROOT
HETATM    1  C   UNL     1      25.935  43.616  51.559  1.00  0.00     0.289 C 
HETATM    2  N   UNL     1      26.884  44.367  52.235  1.00  0.00    -0.241 N 
HETATM    3  O   UNL     1      24.735  43.611  51.812  1.00  0.00    -0.264 OA
HETATM    4  H   UNL     1      27.827  44.407  51.877  1.00  0.00     0.192 HD
ENDROOT
BRANCH   1   5
HETATM    5  C   UNL     1      26.485  42.777  50.522  1.00  0.00     0.121 A 
HETATM    6  N   UNL     1      26.520  43.186  49.218  1.00  0.00    -0.272 N 
HETATM    7  N   UNL     1      27.006  42.268  48.366  1.00  0.00    -0.174 NA
HETATM    8  H   UNL     1      26.200  44.079  48.852  1.00  0.00     0.189 HD
HETATM    9  C   UNL     1      27.347  41.229  49.145  1.00  0.00     0.089 A 
HETATM   10  C   UNL     1      27.039  41.512  50.505  1.00  0.00     0.071 A 
BRANCH   9  11
HETATM   11  C   UNL     1      27.922  39.998  48.593  1.00  0.00    -0.003 A 
HETATM   12  C   UNL     1      27.558  39.564  47.306  1.00  0.00     0.050 A 
HETATM   13  C   UNL     1      28.075  38.377  46.780  1.00  0.00     0.069 A 
HETATM   14  C   UNL     1      28.965  37.620  47.545  1.00  0.00     0.037 A 
HETATM   15  C   UNL     1      29.346  38.043  48.817  1.00  0.00     0.004 A 
HETATM   16  C   UNL     1      28.826  39.229  49.339  1.00  0.00     0.014 A 
BRANCH  13  17
HETATM   17  O   UNL     1      27.789  37.849  45.551  1.00  0.00    -0.356 OA
HETATM   18  C   UNL     1      28.819  37.912  44.572  1.00  0.00     0.210 C 
ENDBRANCH  13  17
ENDBRANCH   9  11
ENDBRANCH   1   5
BRANCH   2  19
HETATM   19  N   UNL     1      26.518  45.295  53.162  1.00  0.00    -0.165 NA
HETATM   20  C   UNL     1      27.324  45.533  54.149  1.00  0.00     0.157 A 
HETATM   21  C   UNL     1      27.090  46.715  55.111  1.00  0.00     0.277 A 
HETATM   22  C   UNL     1      28.561  44.884  54.614  1.00  0.00     0.027 A 
HETATM   23  O   UNL     1      26.151  47.480  55.106  1.00  0.00    -0.266 OA
HETATM   24  N   UNL     1      28.182  46.726  55.949  1.00  0.00    -0.321 N 
HETATM   25  C   UNL     1      29.034  45.663  55.673  1.00  0.00     0.048 A 
HETATM   26  H   UNL     1      28.292  47.404  56.689  1.00  0.00     0.169 HD
HETATM   27  C   UNL     1      30.192  45.347  56.355  1.00  0.00     0.030 A 
HETATM   28  C   UNL     1      30.877  44.195  55.963  1.00  0.00     0.002 A 
HETATM   29  C   UNL     1      30.386  43.383  54.925  1.00  0.00     0.001 A 
HETATM   30  C   UNL     1      29.209  43.718  54.245  1.00  0.00     0.016 A 
ENDBRANCH   2  19
TORSDOF 4
ENDMDL
MODEL 3
REMARK VINA RESULT:      -9.0      3.423      7.687
REMARK  4 active torsions:
REMARK  status: ('A' for Active; 'I' for Inactive)
REMARK    1  A    between atoms: O_2  and  C_3 
REMARK    2  A    between atoms: C_5  and  C_6 
REMARK    3  A    between atoms: C_10  and  C_11 
REMARK       I    between atoms: C_11  and  N_12 
REMARK    4  A    between atoms: N_12  and  N_13 
ROOT
HETATM    1  C   UNL     1      26.063  41.774  50.719  1.00  0.00     0.289 C 
HETATM    2  N   UNL     1      24.895  42.472  50.990  1.00  0.00    -0.241 N 
HETATM    3  O   UNL     1      26.213  40.994  49.785  1.00  0.00    -0.264 OA
HETATM    4  H   UNL     1      24.903  43.187  51.701  1.00  0.00     0.192 HD
ENDROOT
BRANCH   1   5
HETATM    5  C   UNL     1      27.118  42.009  51.675  1.00  0.00     0.121 A 
HETATM    6  N   UNL     1      28.134  41.112  51.851  1.00  0.00    -0.272 N 
HETATM    7  N   UNL     1      29.003  41.446  52.819  1.00  0.00    -0.174 NA
HETATM    8  H   UNL     1      28.265  40.237  51.349  1.00  0.00     0.189 HD
HETATM    9  C   UNL     1      28.569  42.634  53.269  1.00  0.00     0.089 A 
HETATM   10  C   UNL     1      27.391  43.024  52.572  1.00  0.00     0.071 A 
BRANCH   9  11
HETATM   11  C   UNL     1      29.251  43.352  54.350  1.00  0.00    -0.003 A 
HETATM   12  C   UNL     1      28.718  44.555  54.846  1.00  0.00     0.050 A 
HETATM   13  C   UNL     1      29.374  45.266  55.854  1.00  0.00     0.069 A 
HETATM   14  C   UNL     1      30.572  44.769  56.372  1.00  0.00     0.037 A 
HETATM   15  C   UNL     1      31.107  43.572  55.901  1.00  0.00     0.004 A 
HETATM   16  C   UNL     1      30.449  42.866  54.893  1.00  0.00     0.014 A 
BRANCH  13  17
HETATM   17  O   UNL     1      28.960  46.447  56.407  1.00  0.00    -0.356 OA
HETATM   18  C   UNL     1      27.856  47.092  55.783  1.00  0.00     0.210 C 
ENDBRANCH  13  17
ENDBRANCH   9  11
ENDBRANCH   1   5
BRANCH   2  19
HETATM   19  N   UNL     1      23.847  42.452  50.122  1.00  0.00    -0.165 NA
HETATM   20  C   UNL     1      23.457  43.572  49.598  1.00  0.00     0.157 A 
HETATM   21  C   UNL     1      22.430  43.608  48.447  1.00  0.00     0.277 A 
HETATM   22  C   UNL     1      23.814  44.977  49.853  1.00  0.00     0.027 A 
HETATM   23  O   UNL     1      21.848  42.662  47.965  1.00  0.00    -0.266 OA
HETATM   24  N   UNL     1      22.344  44.931  48.078  1.00  0.00    -0.321 N 
HETATM   25  C   UNL     1      23.135  45.731  48.893  1.00  0.00     0.048 A 
HETATM   26  H   UNL     1      21.735  45.248  47.337  1.00  0.00     0.169 HD
HETATM   27  C   UNL     1      23.241  47.106  48.831  1.00  0.00     0.030 A 
HETATM   28  C   UNL     1      24.044  47.734  49.786  1.00  0.00     0.002 A 
HETATM   29  C   UNL     1      24.699  46.986  50.781  1.00  0.00     0.001 A 
HETATM   30  C   UNL     1      24.579  45.593  50.829  1.00  0.00     0.016 A 
ENDBRANCH   2  19
TORSDOF 4
ENDMDL
MODEL 4
REMARK VINA RESULT:      -9.0      5.055      8.412
REMARK  4 active torsions:
REMARK  status: ('A' for Active; 'I' for Inactive)
REMARK    1  A    between atoms: O_2  and  C_3 
REMARK    2  A    between atoms: C_5  and  C_6 
REMARK    3  A    between atoms: C_10  and  C_11 
REMARK       I    between atoms: C_11  and  N_12 
REMARK    4  A    between atoms: N_12  and  N_13 
ROOT
HETATM    1  C   UNL     1      26.244  45.306  50.074  1.00  0.00     0.289 C 
HETATM    2  N   UNL     1      26.087  44.556  51.230  1.00  0.00    -0.241 N 
HETATM    3  O   UNL     1      27.271  45.361  49.408  1.00  0.00    -0.264 OA
HETATM    4  H   UNL     1      25.169  44.469  51.640  1.00  0.00     0.192 HD
ENDROOT
BRANCH   1   5
HETATM    5  C   UNL     1      25.079  46.080  49.718  1.00  0.00     0.121 A 
HETATM    6  N   UNL     1      23.977  45.494  49.160  1.00  0.00    -0.272 N 
HETATM    7  N   UNL     1      23.002  46.357  48.831  1.00  0.00    -0.174 NA
HETATM    8  H   UNL     1      23.851  44.505  48.959  1.00  0.00     0.189 HD
HETATM    9  C   UNL     1      23.460  47.555  49.228  1.00  0.00     0.089 A 
HETATM   10  C   UNL     1      24.759  47.421  49.795  1.00  0.00     0.071 A 
BRANCH   9  11
HETATM   11  C   UNL     1      22.684  48.785  49.043  1.00  0.00    -0.003 A 
HETATM   12  C   UNL     1      21.285  48.766  49.185  1.00  0.00     0.050 A 
HETATM   13  C   UNL     1      20.531  49.924  48.981  1.00  0.00     0.069 A 
HETATM   14  C   UNL     1      21.180  51.111  48.635  1.00  0.00     0.037 A 
HETATM   15  C   UNL     1      22.566  51.149  48.502  1.00  0.00     0.004 A 
HETATM   16  C   UNL     1      23.316  49.990  48.705  1.00  0.00     0.014 A 
BRANCH  13  17
HETATM   17  O   UNL     1      19.170  50.026  49.080  1.00  0.00    -0.356 OA
HETATM   18  C   UNL     1      18.598  49.738  50.351  1.00  0.00     0.210 C 
ENDBRANCH  13  17
ENDBRANCH   9  11
ENDBRANCH   1   5
BRANCH   2  19
HETATM   19  N   UNL     1      27.048  43.682  51.638  1.00  0.00    -0.165 NA
HETATM   20  C   UNL     1      27.659  43.915  52.757  1.00  0.00     0.157 A 
HETATM   21  C   UNL     1      28.596  42.869  53.396  1.00  0.00     0.277 A 
HETATM   22  C   UNL     1      27.658  45.061  53.682  1.00  0.00     0.027 A 
HETATM   23  O   UNL     1      28.910  41.797  52.930  1.00  0.00    -0.266 OA
HETATM   24  N   UNL     1      28.969  43.406  54.607  1.00  0.00    -0.321 N 
HETATM   25  C   UNL     1      28.438  44.678  54.776  1.00  0.00     0.048 A 
HETATM   26  H   UNL     1      29.591  42.928  55.243  1.00  0.00     0.169 HD
HETATM   27  C   UNL     1      28.655  45.517  55.850  1.00  0.00     0.030 A 
HETATM   28  C   UNL     1      28.080  46.789  55.801  1.00  0.00     0.002 A 
HETATM   29  C   UNL     1      27.327  47.197  54.686  1.00  0.00     0.001 A 
HETATM   30  C   UNL     1      27.118  46.333  53.605  1.00  0.00     0.016 A 
ENDBRANCH   2  19
TORSDOF 4
ENDMDL
MODEL 5
REMARK VINA RESULT:      -8.9      5.012      8.890
REMARK  4 active torsions:
REMARK  status: ('A' for Active; 'I' for Inactive)
REMARK    1  A    between atoms: O_2  and  C_3 
REMARK    2  A    between atoms: C_5  and  C_6 
REMARK    3  A    between atoms: C_10  and  C_11 
REMARK       I    between atoms: C_11  and  N_12 
REMARK    4  A    between atoms: N_12  and  N_13 
ROOT
HETATM    1  C   UNL     1      24.976  44.178  49.499  1.00  0.00     0.289 C 
HETATM    2  N   UNL     1      26.327  43.986  49.253  1.00  0.00    -0.241 N 
HETATM    3  O   UNL     1      24.146  43.282  49.589  1.00  0.00    -0.264 OA
HETATM    4  H   UNL     1      26.957  44.772  49.322  1.00  0.00     0.192 HD
ENDROOT
BRANCH   1   5
HETATM    5  C   UNL     1      24.594  45.566  49.604  1.00  0.00     0.121 A 
HETATM    6  N   UNL     1      25.142  46.387  50.549  1.00  0.00    -0.272 N 
HETATM    7  N   UNL     1      24.638  47.632  50.556  1.00  0.00    -0.174 NA
HETATM    8  H   UNL     1      25.850  46.136  51.234  1.00  0.00     0.189 HD
HETATM    9  C   UNL     1      23.754  47.646  49.546  1.00  0.00     0.089 A 
HETATM   10  C   UNL     1      23.702  46.369  48.920  1.00  0.00     0.071 A 
BRANCH   9  11
HETATM   11  C   UNL     1      22.971  48.841  49.215  1.00  0.00    -0.003 A 
HETATM   12  C   UNL     1      21.566  48.784  49.203  1.00  0.00     0.050 A 
HETATM   13  C   UNL     1      20.808  49.906  48.859  1.00  0.00     0.069 A 
HETATM   14  C   UNL     1      21.460  51.096  48.527  1.00  0.00     0.037 A 
HETATM   15  C   UNL     1      22.851  51.172  48.545  1.00  0.00     0.004 A 
HETATM   16  C   UNL     1      23.604  50.049  48.888  1.00  0.00     0.014 A 
BRANCH  13  17
HETATM   17  O   UNL     1      19.443  49.969  48.803  1.00  0.00    -0.356 OA
HETATM   18  C   UNL     1      18.852  51.243  49.034  1.00  0.00     0.210 C 
ENDBRANCH  13  17
ENDBRANCH   9  11
ENDBRANCH   1   5
BRANCH   2  19
HETATM   19  N   UNL     1      26.870  42.738  49.243  1.00  0.00    -0.165 NA
HETATM   20  C   UNL     1      27.364  42.270  50.346  1.00  0.00     0.157 A 
HETATM   21  C   UNL     1      27.793  40.794  50.475  1.00  0.00     0.277 A 
HETATM   22  C   UNL     1      27.627  42.874  51.663  1.00  0.00     0.027 A 
HETATM   23  O   UNL     1      27.784  39.958  49.599  1.00  0.00    -0.266 OA
HETATM   24  N   UNL     1      28.158  40.634  51.792  1.00  0.00    -0.321 N 
HETATM   25  C   UNL     1      28.073  41.835  52.484  1.00  0.00     0.048 A 
HETATM   26  H   UNL     1      28.487  39.753  52.160  1.00  0.00     0.169 HD
HETATM   27  C   UNL     1      28.413  42.041  53.806  1.00  0.00     0.030 A 
HETATM   28  C   UNL     1      28.318  43.344  54.301  1.00  0.00     0.002 A 
HETATM   29  C   UNL     1      27.908  44.402  53.471  1.00  0.00     0.001 A 
HETATM   30  C   UNL     1      27.568  44.175  52.132  1.00  0.00     0.016 A 
ENDBRANCH   2  19
TORSDOF 4
ENDMDL
MODEL 6
REMARK VINA RESULT:      -8.5     14.736     16.527
REMARK  4 active torsions:
REMARK  status: ('A' for Active; 'I' for Inactive)
REMARK    1  A    between atoms: O_2  and  C_3 
REMARK    2  A    between atoms: C_5  and  C_6 
REMARK    3  A    between atoms: C_10  and  C_11 
REMARK       I    between atoms: C_11  and  N_12 
REMARK    4  A    between atoms: N_12  and  N_13 
ROOT
HETATM    1  C   UNL     1      33.989  50.626  42.326  1.00  0.00     0.289 C 
HETATM    2  N   UNL     1      32.874  50.812  43.130  1.00  0.00    -0.241 N 
HETATM    3  O   UNL     1      34.149  49.686  41.557  1.00  0.00    -0.264 OA
HETATM    4  H   UNL     1      32.770  51.679  43.636  1.00  0.00     0.192 HD
ENDROOT
BRANCH   1   5
HETATM    5  C   UNL     1      35.006  51.636  42.496  1.00  0.00     0.121 A 
HETATM    6  N   UNL     1      35.507  52.329  41.430  1.00  0.00    -0.272 N 
HETATM    7  N   UNL     1      36.489  53.190  41.746  1.00  0.00    -0.174 NA
HETATM    8  H   UNL     1      35.228  52.232  40.457  1.00  0.00     0.189 HD
HETATM    9  C   UNL     1      36.609  53.093  43.080  1.00  0.00     0.089 A 
HETATM   10  C   UNL     1      35.691  52.132  43.588  1.00  0.00     0.071 A 
BRANCH   9  11
HETATM   11  C   UNL     1      37.592  53.881  43.831  1.00  0.00    -0.003 A 
HETATM   12  C   UNL     1      37.440  54.064  45.217  1.00  0.00     0.050 A 
HETATM   13  C   UNL     1      38.353  54.837  45.939  1.00  0.00     0.069 A 
HETATM   14  C   UNL     1      39.426  55.431  45.271  1.00  0.00     0.037 A 
HETATM   15  C   UNL     1      39.597  55.250  43.900  1.00  0.00     0.004 A 
HETATM   16  C   UNL     1      38.683  54.478  43.182  1.00  0.00     0.014 A 
BRANCH  13  17
HETATM   17  O   UNL     1      38.304  55.094  47.282  1.00  0.00    -0.356 OA
HETATM   18  C   UNL     1      38.742  54.053  48.148  1.00  0.00     0.210 C 
ENDBRANCH  13  17
ENDBRANCH   9  11
ENDBRANCH   1   5
BRANCH   2  19
HETATM   19  N   UNL     1      31.777  50.015  43.007  1.00  0.00    -0.165 NA
HETATM   20  C   UNL     1      30.809  50.411  42.241  1.00  0.00     0.157 A 
HETATM   21  C   UNL     1      29.638  49.476  41.874  1.00  0.00     0.277 A 
HETATM   22  C   UNL     1      30.537  51.678  41.541  1.00  0.00     0.027 A 
HETATM   23  O   UNL     1      29.455  48.351  42.281  1.00  0.00    -0.266 OA
HETATM   24  N   UNL     1      28.875  50.184  40.975  1.00  0.00    -0.321 N 
HETATM   25  C   UNL     1      29.383  51.463  40.784  1.00  0.00     0.048 A 
HETATM   26  H   UNL     1      28.032  49.808  40.564  1.00  0.00     0.169 HD
HETATM   27  C   UNL     1      28.834  52.449  39.989  1.00  0.00     0.030 A 
HETATM   28  C   UNL     1      29.464  53.696  39.981  1.00  0.00     0.002 A 
HETATM   29  C   UNL     1      30.602  53.933  40.772  1.00  0.00     0.001 A 
HETATM   30  C   UNL     1      31.144  52.921  41.573  1.00  0.00     0.016 A 
ENDBRANCH   2  19
TORSDOF 4
ENDMDL
MODEL 7
REMARK VINA RESULT:      -8.4      5.949      8.870
REMARK  4 active torsions:
REMARK  status: ('A' for Active; 'I' for Inactive)
REMARK    1  A    between atoms: O_2  and  C_3 
REMARK    2  A    between atoms: C_5  and  C_6 
REMARK    3  A    between atoms: C_10  and  C_11 
REMARK       I    between atoms: C_11  and  N_12 
REMARK    4  A    between atoms: N_12  and  N_13 
ROOT
HETATM    1  C   UNL     1      24.095  48.208  49.767  1.00  0.00     0.289 C 
HETATM    2  N   UNL     1      22.721  48.085  49.619  1.00  0.00    -0.241 N 
HETATM    3  O   UNL     1      24.771  49.118  49.302  1.00  0.00    -0.264 OA
HETATM    4  H   UNL     1      22.231  47.375  50.143  1.00  0.00     0.192 HD
ENDROOT
BRANCH   1   5
HETATM    5  C   UNL     1      24.702  47.124  50.502  1.00  0.00     0.121 A 
HETATM    6  N   UNL     1      24.095  45.903  50.604  1.00  0.00    -0.272 N 
HETATM    7  N   UNL     1      24.758  45.021  51.370  1.00  0.00    -0.174 NA
HETATM    8  H   UNL     1      23.210  45.629  50.186  1.00  0.00     0.189 HD
HETATM    9  C   UNL     1      25.869  45.671  51.752  1.00  0.00     0.089 A 
HETATM   10  C   UNL     1      25.872  46.992  51.223  1.00  0.00     0.071 A 
BRANCH   9  11
HETATM   11  C   UNL     1      26.875  45.048  52.618  1.00  0.00    -0.003 A 
HETATM   12  C   UNL     1      27.671  43.995  52.132  1.00  0.00     0.050 A 
HETATM   13  C   UNL     1      28.611  43.372  52.956  1.00  0.00     0.069 A 
HETATM   14  C   UNL     1      28.760  43.806  54.275  1.00  0.00     0.037 A 
HETATM   15  C   UNL     1      27.987  44.856  54.768  1.00  0.00     0.004 A 
HETATM   16  C   UNL     1      27.048  45.475  53.942  1.00  0.00     0.014 A 
BRANCH  13  17
HETATM   17  O   UNL     1      29.432  42.337  52.601  1.00  0.00    -0.356 OA
HETATM   18  C   UNL     1      28.865  41.032  52.633  1.00  0.00     0.210 C 
ENDBRANCH  13  17
ENDBRANCH   9  11
ENDBRANCH   1   5
BRANCH   2  19
HETATM   19  N   UNL     1      21.983  49.079  49.054  1.00  0.00    -0.165 NA
HETATM   20  C   UNL     1      20.796  48.794  48.616  1.00  0.00     0.157 A 
HETATM   21  C   UNL     1      19.817  49.898  48.168  1.00  0.00     0.277 A 
HETATM   22  C   UNL     1      20.068  47.526  48.442  1.00  0.00     0.027 A 
HETATM   23  O   UNL     1      20.042  51.087  48.111  1.00  0.00    -0.266 OA
HETATM   24  N   UNL     1      18.640  49.246  47.878  1.00  0.00    -0.321 N 
HETATM   25  C   UNL     1      18.781  47.872  48.025  1.00  0.00     0.048 A 
HETATM   26  H   UNL     1      17.817  49.733  47.555  1.00  0.00     0.169 HD
HETATM   27  C   UNL     1      17.814  46.921  47.766  1.00  0.00     0.030 A 
HETATM   28  C   UNL     1      18.174  45.580  47.915  1.00  0.00     0.002 A 
HETATM   29  C   UNL     1      19.479  45.221  48.295  1.00  0.00     0.001 A 
HETATM   30  C   UNL     1      20.447  46.200  48.553  1.00  0.00     0.016 A 
ENDBRANCH   2  19
TORSDOF 4
ENDMDL
MODEL 8
REMARK VINA RESULT:      -8.3      2.842      8.184
REMARK  4 active torsions:
REMARK  status: ('A' for Active; 'I' for Inactive)
REMARK    1  A    between atoms: O_2  and  C_3 
REMARK    2  A    between atoms: C_5  and  C_6 
REMARK    3  A    between atoms: C_10  and  C_11 
REMARK       I    between atoms: C_11  and  N_12 
REMARK    4  A    between atoms: N_12  and  N_13 
ROOT
HETATM    1  C   UNL     1      24.779  44.336  51.256  1.00  0.00     0.289 C 
HETATM    2  N   UNL     1      24.811  43.026  50.801  1.00  0.00    -0.241 N 
HETATM    3  O   UNL     1      24.005  45.198  50.856  1.00  0.00    -0.264 OA
HETATM    4  H   UNL     1      25.394  42.354  51.277  1.00  0.00     0.192 HD
ENDROOT
BRANCH   1   5
HETATM    5  C   UNL     1      25.789  44.636  52.243  1.00  0.00     0.121 A 
HETATM    6  N   UNL     1      25.845  45.855  52.857  1.00  0.00    -0.272 N 
HETATM    7  N   UNL     1      26.877  45.998  53.704  1.00  0.00    -0.174 NA
HETATM    8  H   UNL     1      25.212  46.638  52.713  1.00  0.00     0.189 HD
HETATM    9  C   UNL     1      27.502  44.810  53.682  1.00  0.00     0.089 A 
HETATM   10  C   UNL     1      26.845  43.926  52.780  1.00  0.00     0.071 A 
BRANCH   9  11
HETATM   11  C   UNL     1      28.702  44.547  54.482  1.00  0.00    -0.003 A 
HETATM   12  C   UNL     1      29.007  45.360  55.587  1.00  0.00     0.050 A 
HETATM   13  C   UNL     1      30.164  45.140  56.339  1.00  0.00     0.069 A 
HETATM   14  C   UNL     1      31.022  44.096  55.984  1.00  0.00     0.037 A 
HETATM   15  C   UNL     1      30.728  43.274  54.899  1.00  0.00     0.004 A 
HETATM   16  C   UNL     1      29.572  43.498  54.150  1.00  0.00     0.014 A 
BRANCH  13  17
HETATM   17  O   UNL     1      30.570  45.867  57.424  1.00  0.00    -0.356 OA
HETATM   18  C   UNL     1      29.579  46.166  58.400  1.00  0.00     0.210 C 
ENDBRANCH  13  17
ENDBRANCH   9  11
ENDBRANCH   1   5
BRANCH   2  19
HETATM   19  N   UNL     1      23.854  42.551  49.957  1.00  0.00    -0.165 NA
HETATM   20  C   UNL     1      24.206  41.708  49.037  1.00  0.00     0.157 A 
HETATM   21  C   UNL     1      23.158  40.959  48.189  1.00  0.00     0.277 A 
HETATM   22  C   UNL     1      25.515  41.225  48.565  1.00  0.00     0.027 A 
HETATM   23  O   UNL     1      21.956  41.102  48.229  1.00  0.00    -0.266 OA
HETATM   24  N   UNL     1      23.879  40.084  47.408  1.00  0.00    -0.321 N 
HETATM   25  C   UNL     1      25.244  40.239  47.613  1.00  0.00     0.048 A 
HETATM   26  H   UNL     1      23.441  39.461  46.746  1.00  0.00     0.169 HD
HETATM   27  C   UNL     1      26.250  39.559  46.957  1.00  0.00     0.030 A 
HETATM   28  C   UNL     1      27.568  39.907  47.262  1.00  0.00     0.002 A 
HETATM   29  C   UNL     1      27.849  40.926  48.189  1.00  0.00     0.001 A 
HETATM   30  C   UNL     1      26.816  41.605  48.844  1.00  0.00     0.016 A 
ENDBRANCH   2  19
TORSDOF 4
ENDMDL
MODEL 9
REMARK VINA RESULT:      -8.1     12.587     14.047
REMARK  4 active torsions:
REMARK  status: ('A' for Active; 'I' for Inactive)
REMARK    1  A    between atoms: O_2  and  C_3 
REMARK    2  A    between atoms: C_5  and  C_6 
REMARK    3  A    between atoms: C_10  and  C_11 
REMARK       I    between atoms: C_11  and  N_12 
REMARK    4  A    between atoms: N_12  and  N_13 
ROOT
HETATM    1  C   UNL     1      27.743  51.323  38.929  1.00  0.00     0.289 C 
HETATM    2  N   UNL     1      27.844  51.968  40.153  1.00  0.00    -0.241 N 
HETATM    3  O   UNL     1      28.441  51.562  37.950  1.00  0.00    -0.264 OA
HETATM    4  H   UNL     1      27.317  51.618  40.938  1.00  0.00     0.192 HD
ENDROOT
BRANCH   1   5
HETATM    5  C   UNL     1      26.688  50.339  38.873  1.00  0.00     0.121 A 
HETATM    6  N   UNL     1      25.708  50.397  37.922  1.00  0.00    -0.272 N 
HETATM    7  N   UNL     1      24.768  49.446  38.042  1.00  0.00    -0.174 NA
HETATM    8  H   UNL     1      25.623  51.087  37.180  1.00  0.00     0.189 HD
HETATM    9  C   UNL     1      25.167  48.703  39.086  1.00  0.00     0.089 A 
HETATM   10  C   UNL     1      26.371  49.229  39.632  1.00  0.00     0.071 A 
BRANCH   9  11
HETATM   11  C   UNL     1      24.399  47.546  39.556  1.00  0.00    -0.003 A 
HETATM   12  C   UNL     1      24.337  47.249  40.929  1.00  0.00     0.050 A 
HETATM   13  C   UNL     1      23.634  46.131  41.387  1.00  0.00     0.069 A 
HETATM   14  C   UNL     1      22.988  45.305  40.466  1.00  0.00     0.037 A 
HETATM   15  C   UNL     1      23.030  45.592  39.103  1.00  0.00     0.004 A 
HETATM   16  C   UNL     1      23.733  46.709  38.649  1.00  0.00     0.014 A 
BRANCH  13  17
HETATM   17  O   UNL     1      23.511  45.737  42.691  1.00  0.00    -0.356 OA
HETATM   18  C   UNL     1      22.281  45.126  43.061  1.00  0.00     0.210 C 
ENDBRANCH  13  17
ENDBRANCH   9  11
ENDBRANCH   1   5
BRANCH   2  19
HETATM   19  N   UNL     1      28.860  52.838  40.407  1.00  0.00    -0.165 NA
HETATM   20  C   UNL     1      29.943  52.380  40.953  1.00  0.00     0.157 A 
HETATM   21  C   UNL     1      31.213  53.247  41.071  1.00  0.00     0.277 A 
HETATM   22  C   UNL     1      30.299  51.076  41.537  1.00  0.00     0.027 A 
HETATM   23  O   UNL     1      31.331  54.408  40.749  1.00  0.00    -0.266 OA
HETATM   24  N   UNL     1      32.177  52.412  41.590  1.00  0.00    -0.321 N 
HETATM   25  C   UNL     1      31.652  51.157  41.872  1.00  0.00     0.048 A 
HETATM   26  H   UNL     1      33.120  52.722  41.776  1.00  0.00     0.169 HD
HETATM   27  C   UNL     1      32.329  50.100  42.447  1.00  0.00     0.030 A 
HETATM   28  C   UNL     1      31.604  48.936  42.709  1.00  0.00     0.002 A 
HETATM   29  C   UNL     1      30.231  48.861  42.413  1.00  0.00     0.001 A 
HETATM   30  C   UNL     1      29.561  49.943  41.831  1.00  0.00     0.016 A 
ENDBRANCH   2  19
TORSDOF 4
ENDMDL
MODEL 10
REMARK VINA RESULT:      -8.0      1.946      2.210
REMARK  4 active torsions:
REMARK  status: ('A' for Active; 'I' for Inactive)
REMARK    1  A    between atoms: O_2  and  C_3 
REMARK    2  A    between atoms: C_5  and  C_6 
REMARK    3  A    between atoms: C_10  and  C_11 
REMARK       I    between atoms: C_11  and  N_12 
REMARK    4  A    between atoms: N_12  and  N_13 
ROOT
HETATM    1  C   UNL     1      25.988  43.940  51.711  1.00  0.00     0.289 C 
HETATM    2  N   UNL     1      25.646  43.925  53.055  1.00  0.00    -0.241 N 
HETATM    3  O   UNL     1      26.136  44.953  51.037  1.00  0.00    -0.264 OA
HETATM    4  H   UNL     1      25.671  43.051  53.559  1.00  0.00     0.192 HD
ENDROOT
BRANCH   1   5
HETATM    5  C   UNL     1      26.121  42.627  51.127  1.00  0.00     0.121 A 
HETATM    6  N   UNL     1      26.811  41.632  51.761  1.00  0.00    -0.272 N 
HETATM    7  N   UNL     1      26.895  40.489  51.062  1.00  0.00    -0.174 NA
HETATM    8  H   UNL     1      27.267  41.692  52.668  1.00  0.00     0.189 HD
HETATM    9  C   UNL     1      26.195  40.724  49.941  1.00  0.00     0.089 A 
HETATM   10  C   UNL     1      25.689  42.054  49.948  1.00  0.00     0.071 A 
BRANCH   9  11
HETATM   11  C   UNL     1      26.043  39.711  48.892  1.00  0.00    -0.003 A 
HETATM   12  C   UNL     1      26.577  38.422  49.071  1.00  0.00     0.050 A 
HETATM   13  C   UNL     1      26.466  37.457  48.066  1.00  0.00     0.069 A 
HETATM   14  C   UNL     1      25.815  37.782  46.874  1.00  0.00     0.037 A 
HETATM   15  C   UNL     1      25.271  39.051  46.686  1.00  0.00     0.004 A 
HETATM   16  C   UNL     1      25.384  40.012  47.691  1.00  0.00     0.014 A 
BRANCH  13  17
HETATM   17  O   UNL     1      26.951  36.180  48.121  1.00  0.00    -0.356 OA
HETATM   18  C   UNL     1      26.397  35.246  47.201  1.00  0.00     0.210 C 
ENDBRANCH  13  17
ENDBRANCH   9  11
ENDBRANCH   1   5
BRANCH   2  19
HETATM   19  N   UNL     1      25.596  45.075  53.781  1.00  0.00    -0.165 NA
HETATM   20  C   UNL     1      26.656  45.440  54.434  1.00  0.00     0.157 A 
HETATM   21  C   UNL     1      26.755  46.829  55.095  1.00  0.00     0.277 A 
HETATM   22  C   UNL     1      27.942  44.778  54.709  1.00  0.00     0.027 A 
HETATM   23  O   UNL     1      25.888  47.674  55.142  1.00  0.00    -0.266 OA
HETATM   24  N   UNL     1      28.037  46.907  55.590  1.00  0.00    -0.321 N 
HETATM   25  C   UNL     1      28.727  45.720  55.379  1.00  0.00     0.048 A 
HETATM   26  H   UNL     1      28.380  47.720  56.081  1.00  0.00     0.169 HD
HETATM   27  C   UNL     1      30.014  45.440  55.793  1.00  0.00     0.030 A 
HETATM   28  C   UNL     1      30.508  44.158  55.539  1.00  0.00     0.002 A 
HETATM   29  C   UNL     1      29.710  43.191  54.902  1.00  0.00     0.001 A 
HETATM   30  C   UNL     1      28.407  43.493  54.489  1.00  0.00     0.016 A 
ENDBRANCH   2  19
TORSDOF 4
ENDMDL
