MODEL 1
REMARK VINA RESULT:      -9.1      0.000      0.000
REMARK  4 active torsions:
REMARK  status: ('A' for Active; 'I' for Inactive)
REMARK    1  A    between atoms: O_2  and  C_3 
REMARK    2  A    between atoms: C_5  and  C_6 
REMARK    3  A    between atoms: C_10  and  N_11 
REMARK    4  A    between atoms: C_14  and  C_15 
ROOT
HETATM    1  C   UNL     1      26.516  43.912  53.185  1.00  0.00     0.164 C 
HETATM    2  N   UNL     1      26.991  42.935  52.214  1.00  0.00    -0.074 N 
HETATM    3  C   UNL     1      27.198  43.199  50.887  1.00  0.00     0.736 A 
HETATM    4  N   UNL     1      27.681  42.127  50.314  1.00  0.00     0.131 NA
HETATM    5  C   UNL     1      27.702  41.217  51.330  1.00  0.00     0.753 A 
HETATM    6  N   UNL     1      27.305  41.666  52.520  1.00  0.00     0.037 NA
HETATM    7  N   UNL     1      26.917  44.409  50.361  1.00  0.00    -0.214 N 
HETATM    8  C   UNL     1      26.672  45.541  51.248  1.00  0.00     0.135 C 
HETATM    9  C   UNL     1      25.832  45.085  52.456  1.00  0.00     0.063 C 
HETATM   10  H   UNL     1      27.320  44.624  49.453  1.00  0.00     0.178 HD
ENDROOT
BRANCH   1  11
HETATM   11  C   UNL     1      27.617  44.406  54.120  1.00  0.00    -0.030 A 
HETATM   12  C   UNL     1      28.787  43.663  54.383  1.00  0.00     0.046 A 
HETATM   13  C   UNL     1      29.803  44.182  55.190  1.00  0.00     0.068 A 
HETATM   14  C   UNL     1      29.649  45.448  55.755  1.00  0.00     0.037 A 
HETATM   15  C   UNL     1      28.498  46.195  55.513  1.00  0.00     0.003 A 
HETATM   16  C   UNL     1      27.491  45.681  54.697  1.00  0.00     0.009 A 
BRANCH  13  17
HETATM   17  O   UNL     1      30.983  43.560  55.494  1.00  0.00    -0.356 OA
HETATM   18  C   UNL     1      31.360  43.522  56.865  1.00  0.00     0.210 C 
ENDBRANCH  13  17
ENDBRANCH   1  11
BRANCH   8  19
HETATM   19  C   UNL     1      25.980  46.671  50.507  1.00  0.00    -0.035 A 
HETATM   20  C   UNL     1      26.698  47.699  49.871  1.00  0.00     0.010 A 
HETATM   21  C   UNL     1      26.031  48.718  49.187  1.00  0.00     0.019 A 
HETATM   22  C   UNL     1      24.640  48.709  49.117  1.00  0.00     0.011 A 
HETATM   23 BR   UNL     1      23.736  50.086  48.189  1.00  0.00    -0.051 Br
HETATM   24  C   UNL     1      23.910  47.691  49.724  1.00  0.00     0.019 A 
HETATM   25  C   UNL     1      24.577  46.676  50.414  1.00  0.00     0.010 A 
ENDBRANCH   8  19
BRANCH   5  26
HETATM   26  N   UNL     1      28.143  39.990  51.077  1.00  0.00    -0.229 N 
HETATM   27  H   UNL     1      28.962  39.908  50.492  1.00  0.00     0.174 HD
HETATM   28  H   UNL     1      28.080  39.316  51.827  1.00  0.00     0.174 HD
ENDBRANCH   5  26
TORSDOF 4
ENDMDL
MODEL 2
REMARK VINA RESULT:      -9.1      3.807      6.892
REMARK  4 active torsions:
REMARK  status: ('A' for Active; 'I' for Inactive)
REMARK    1  A    between atoms: O_2  and  C_3 
REMARK    2  A    between atoms: C_5  and  C_6 
REMARK    3  A    between atoms: C_10  and  N_11 
REMARK    4  A    between atoms: C_14  and  C_15 
ROOT
HETATM    1  C   UNL     1      26.900  44.601  49.886  1.00  0.00     0.164 C 
HETATM    2  N   UNL     1      25.684  43.855  50.185  1.00  0.00    -0.074 N 
HETATM    3  C   UNL     1      25.342  43.399  51.430  1.00  0.00     0.736 A 
HETATM    4  N   UNL     1      24.168  42.828  51.361  1.00  0.00     0.131 NA
HETATM    5  C   UNL     1      23.859  42.917  50.035  1.00  0.00     0.753 A 
HETATM    6  N   UNL     1      24.747  43.552  49.273  1.00  0.00     0.037 NA
HETATM    7  N   UNL     1      26.160  43.572  52.489  1.00  0.00    -0.214 N 
HETATM    8  C   UNL     1      27.280  44.501  52.391  1.00  0.00     0.135 C 
HETATM    9  C   UNL     1      27.938  44.382  51.003  1.00  0.00     0.063 C 
HETATM   10  H   UNL     1      25.754  43.446  53.412  1.00  0.00     0.178 HD
ENDROOT
BRANCH   1  11
HETATM   11  C   UNL     1      26.643  46.087  49.650  1.00  0.00    -0.030 A 
HETATM   12  C   UNL     1      25.385  46.689  49.858  1.00  0.00     0.046 A 
HETATM   13  C   UNL     1      25.210  48.066  49.699  1.00  0.00     0.068 A 
HETATM   14  C   UNL     1      26.294  48.853  49.314  1.00  0.00     0.037 A 
HETATM   15  C   UNL     1      27.544  48.277  49.096  1.00  0.00     0.003 A 
HETATM   16  C   UNL     1      27.720  46.905  49.268  1.00  0.00     0.009 A 
BRANCH  13  17
HETATM   17  O   UNL     1      24.044  48.754  49.894  1.00  0.00    -0.356 OA
HETATM   18  C   UNL     1      23.312  49.130  48.733  1.00  0.00     0.210 C 
ENDBRANCH  13  17
ENDBRANCH   1  11
BRANCH   8  19
HETATM   19  C   UNL     1      28.294  44.247  53.492  1.00  0.00    -0.035 A 
HETATM   20  C   UNL     1      29.133  43.119  53.490  1.00  0.00     0.010 A 
HETATM   21  C   UNL     1      30.065  42.921  54.513  1.00  0.00     0.019 A 
HETATM   22  C   UNL     1      30.178  43.858  55.536  1.00  0.00     0.011 A 
HETATM   23 BR   UNL     1      31.441  43.593  56.918  1.00  0.00    -0.051 Br
HETATM   24  C   UNL     1      29.370  44.992  55.548  1.00  0.00     0.019 A 
HETATM   25  C   UNL     1      28.434  45.186  54.529  1.00  0.00     0.010 A 
ENDBRANCH   8  19
BRANCH   5  26
HETATM   26  N   UNL     1      22.704  42.410  49.615  1.00  0.00    -0.229 N 
HETATM   27  H   UNL     1      21.982  43.067  49.357  1.00  0.00     0.174 HD
HETATM   28  H   UNL     1      22.749  41.574  49.050  1.00  0.00     0.174 HD
ENDBRANCH   5  26
TORSDOF 4
ENDMDL
MODEL 3
REMARK VINA RESULT:      -9.0      0.987      1.764
REMARK  4 active torsions:
REMARK  status: ('A' for Active; 'I' for Inactive)
REMARK    1  A    between atoms: O_2  and  C_3 
REMARK    2  A    between atoms: C_5  and  C_6 
REMARK    3  A    between atoms: C_10  and  N_11 
REMARK    4  A    between atoms: C_14  and  C_15 
ROOT
HETATM    1  C   UNL     1      26.673  43.473  52.932  1.00  0.00     0.164 C 
HETATM    2  N   UNL     1      27.048  42.524  51.893  1.00  0.00    -0.074 N 
HETATM    3  C   UNL     1      27.176  42.838  50.566  1.00  0.00     0.736 A 
HETATM    4  N   UNL     1      27.582  41.776  49.920  1.00  0.00     0.131 NA
HETATM    5  C   UNL     1      27.638  40.823  50.895  1.00  0.00     0.753 A 
HETATM    6  N   UNL     1      27.336  41.233  52.125  1.00  0.00     0.037 NA
HETATM    7  N   UNL     1      26.905  44.078  50.111  1.00  0.00    -0.214 N 
HETATM    8  C   UNL     1      26.758  45.178  51.057  1.00  0.00     0.135 C 
HETATM    9  C   UNL     1      25.984  44.699  52.299  1.00  0.00     0.063 C 
HETATM   10  H   UNL     1      27.254  44.318  49.186  1.00  0.00     0.178 HD
ENDROOT
BRANCH   1  11
HETATM   11  C   UNL     1      27.850  43.891  53.811  1.00  0.00    -0.030 A 
HETATM   12  C   UNL     1      27.795  44.993  54.689  1.00  0.00     0.046 A 
HETATM   13  C   UNL     1      28.870  45.299  55.528  1.00  0.00     0.068 A 
HETATM   14  C   UNL     1      30.020  44.510  55.482  1.00  0.00     0.037 A 
HETATM   15  C   UNL     1      30.097  43.422  54.615  1.00  0.00     0.003 A 
HETATM   16  C   UNL     1      29.018  43.110  53.789  1.00  0.00     0.009 A 
BRANCH  13  17
HETATM   17  O   UNL     1      28.917  46.326  56.430  1.00  0.00    -0.356 OA
HETATM   18  C   UNL     1      29.381  46.017  57.739  1.00  0.00     0.210 C 
ENDBRANCH  13  17
ENDBRANCH   1  11
BRANCH   8  19
HETATM   19  C   UNL     1      26.060  46.361  50.410  1.00  0.00    -0.035 A 
HETATM   20  C   UNL     1      24.659  46.474  50.374  1.00  0.00     0.010 A 
HETATM   21  C   UNL     1      24.047  47.582  49.782  1.00  0.00     0.019 A 
HETATM   22  C   UNL     1      24.831  48.596  49.236  1.00  0.00     0.011 A 
HETATM   23 BR   UNL     1      24.004  50.096  48.437  1.00  0.00    -0.051 Br
HETATM   24  C   UNL     1      26.221  48.512  49.277  1.00  0.00     0.019 A 
HETATM   25  C   UNL     1      26.832  47.401  49.863  1.00  0.00     0.010 A 
ENDBRANCH   8  19
BRANCH   5  26
HETATM   26  N   UNL     1      28.017  39.594  50.563  1.00  0.00    -0.229 N 
HETATM   27  H   UNL     1      28.882  39.257  50.962  1.00  0.00     0.174 HD
HETATM   28  H   UNL     1      27.289  38.900  50.464  1.00  0.00     0.174 HD
ENDBRANCH   5  26
TORSDOF 4
ENDMDL
MODEL 4
REMARK VINA RESULT:      -8.7      3.861      6.737
REMARK  4 active torsions:
REMARK  status: ('A' for Active; 'I' for Inactive)
REMARK    1  A    between atoms: O_2  and  C_3 
REMARK    2  A    between atoms: C_5  and  C_6 
REMARK    3  A    between atoms: C_10  and  N_11 
REMARK    4  A    between atoms: C_14  and  C_15 
ROOT
HETATM    1  C   UNL     1      27.003  41.352  51.473  1.00  0.00     0.164 C 
HETATM    2  N   UNL     1      26.508  42.485  50.703  1.00  0.00    -0.074 N 
HETATM    3  C   UNL     1      26.918  43.780  50.879  1.00  0.00     0.736 A 
HETATM    4  N   UNL     1      26.325  44.534  49.990  1.00  0.00     0.131 NA
HETATM    5  C   UNL     1      25.522  43.654  49.325  1.00  0.00     0.753 A 
HETATM    6  N   UNL     1      25.608  42.383  49.712  1.00  0.00     0.037 NA
HETATM    7  N   UNL     1      27.800  44.110  51.845  1.00  0.00    -0.214 N 
HETATM    8  C   UNL     1      28.556  43.062  52.521  1.00  0.00     0.135 C 
HETATM    9  C   UNL     1      27.644  41.848  52.784  1.00  0.00     0.063 C 
HETATM   10  H   UNL     1      28.253  45.018  51.767  1.00  0.00     0.178 HD
ENDROOT
BRANCH   1  11
HETATM   11  C   UNL     1      27.969  40.472  50.682  1.00  0.00    -0.030 A 
HETATM   12  C   UNL     1      28.794  39.504  51.291  1.00  0.00     0.046 A 
HETATM   13  C   UNL     1      29.613  38.671  50.525  1.00  0.00     0.068 A 
HETATM   14  C   UNL     1      29.622  38.810  49.137  1.00  0.00     0.037 A 
HETATM   15  C   UNL     1      28.819  39.764  48.516  1.00  0.00     0.003 A 
HETATM   16  C   UNL     1      27.993  40.586  49.282  1.00  0.00     0.009 A 
BRANCH  13  17
HETATM   17  O   UNL     1      30.434  37.688  51.007  1.00  0.00    -0.356 OA
HETATM   18  C   UNL     1      29.811  36.506  51.495  1.00  0.00     0.210 C 
ENDBRANCH  13  17
ENDBRANCH   1  11
BRANCH   8  19
HETATM   19  C   UNL     1      29.156  43.575  53.817  1.00  0.00    -0.035 A 
HETATM   20  C   UNL     1      30.265  42.959  54.423  1.00  0.00     0.010 A 
HETATM   21  C   UNL     1      30.801  43.465  55.610  1.00  0.00     0.019 A 
HETATM   22  C   UNL     1      30.245  44.601  56.193  1.00  0.00     0.011 A 
HETATM   23 BR   UNL     1      30.972  45.287  57.797  1.00  0.00    -0.051 Br
HETATM   24  C   UNL     1      29.158  45.238  55.599  1.00  0.00     0.019 A 
HETATM   25  C   UNL     1      28.618  44.728  54.416  1.00  0.00     0.010 A 
ENDBRANCH   8  19
BRANCH   5  26
HETATM   26  N   UNL     1      24.758  44.110  48.338  1.00  0.00    -0.229 N 
HETATM   27  H   UNL     1      23.896  44.568  48.599  1.00  0.00     0.174 HD
HETATM   28  H   UNL     1      25.231  44.505  47.537  1.00  0.00     0.174 HD
ENDBRANCH   5  26
TORSDOF 4
ENDMDL
MODEL 5
REMARK VINA RESULT:      -8.6      3.637      6.639
REMARK  4 active torsions:
REMARK  status: ('A' for Active; 'I' for Inactive)
REMARK    1  A    between atoms: O_2  and  C_3 
REMARK    2  A    between atoms: C_5  and  C_6 
REMARK    3  A    between atoms: C_10  and  N_11 
REMARK    4  A    between atoms: C_14  and  C_15 
ROOT
HETATM    1  C   UNL     1      27.155  44.276  49.906  1.00  0.00     0.164 C 
HETATM    2  N   UNL     1      26.507  42.971  49.903  1.00  0.00    -0.074 N 
HETATM    3  C   UNL     1      26.427  42.143  50.990  1.00  0.00     0.736 A 
HETATM    4  N   UNL     1      25.732  41.085  50.664  1.00  0.00     0.131 NA
HETATM    5  C   UNL     1      25.454  41.294  49.345  1.00  0.00     0.753 A 
HETATM    6  N   UNL     1      25.892  42.442  48.833  1.00  0.00     0.037 NA
HETATM    7  N   UNL     1      27.006  42.471  52.164  1.00  0.00    -0.214 N 
HETATM    8  C   UNL     1      27.471  43.836  52.383  1.00  0.00     0.135 C 
HETATM    9  C   UNL     1      28.126  44.377  51.098  1.00  0.00     0.063 C 
HETATM   10  H   UNL     1      26.706  41.956  52.988  1.00  0.00     0.178 HD
ENDROOT
BRANCH   1  11
HETATM   11  C   UNL     1      26.160  45.434  49.902  1.00  0.00    -0.030 A 
HETATM   12  C   UNL     1      26.552  46.779  49.733  1.00  0.00     0.046 A 
HETATM   13  C   UNL     1      25.603  47.802  49.665  1.00  0.00     0.068 A 
HETATM   14  C   UNL     1      24.249  47.488  49.781  1.00  0.00     0.037 A 
HETATM   15  C   UNL     1      23.841  46.167  49.955  1.00  0.00     0.003 A 
HETATM   16  C   UNL     1      24.789  45.146  50.010  1.00  0.00     0.009 A 
BRANCH  13  17
HETATM   17  O   UNL     1      25.869  49.132  49.483  1.00  0.00    -0.356 OA
HETATM   18  C   UNL     1      27.038  49.463  48.744  1.00  0.00     0.210 C 
ENDBRANCH  13  17
ENDBRANCH   1  11
BRANCH   8  19
HETATM   19  C   UNL     1      28.441  43.899  53.550  1.00  0.00    -0.035 A 
HETATM   20  C   UNL     1      28.411  44.941  54.492  1.00  0.00     0.010 A 
HETATM   21  C   UNL     1      29.309  44.963  55.561  1.00  0.00     0.019 A 
HETATM   22  C   UNL     1      30.235  43.933  55.709  1.00  0.00     0.011 A 
HETATM   23 BR   UNL     1      31.449  43.960  57.157  1.00  0.00    -0.051 Br
HETATM   24  C   UNL     1      30.270  42.881  54.797  1.00  0.00     0.019 A 
HETATM   25  C   UNL     1      29.376  42.863  53.724  1.00  0.00     0.010 A 
ENDBRANCH   8  19
BRANCH   5  26
HETATM   26  N   UNL     1      24.749  40.377  48.690  1.00  0.00    -0.229 N 
HETATM   27  H   UNL     1      24.970  39.409  48.877  1.00  0.00     0.174 HD
HETATM   28  H   UNL     1      23.770  40.574  48.537  1.00  0.00     0.174 HD
ENDBRANCH   5  26
TORSDOF 4
ENDMDL
MODEL 6
REMARK VINA RESULT:      -8.3      4.325      7.277
REMARK  4 active torsions:
REMARK  status: ('A' for Active; 'I' for Inactive)
REMARK    1  A    between atoms: O_2  and  C_3 
REMARK    2  A    between atoms: C_5  and  C_6 
REMARK    3  A    between atoms: C_10  and  N_11 
REMARK    4  A    between atoms: C_14  and  C_15 
ROOT
HETATM    1  C   UNL     1      24.895  46.792  50.965  1.00  0.00     0.164 C 
HETATM    2  N   UNL     1      25.566  46.799  52.257  1.00  0.00    -0.074 N 
HETATM    3  C   UNL     1      26.474  45.858  52.665  1.00  0.00     0.736 A 
HETATM    4  N   UNL     1      26.928  46.193  53.844  1.00  0.00     0.131 NA
HETATM    5  C   UNL     1      26.225  47.325  54.135  1.00  0.00     0.753 A 
HETATM    6  N   UNL     1      25.389  47.749  53.190  1.00  0.00     0.037 NA
HETATM    7  N   UNL     1      26.778  44.797  51.889  1.00  0.00    -0.214 N 
HETATM    8  C   UNL     1      26.375  44.788  50.487  1.00  0.00     0.135 C 
HETATM    9  C   UNL     1      24.959  45.380  50.348  1.00  0.00     0.063 C 
HETATM   10  H   UNL     1      27.624  44.282  52.121  1.00  0.00     0.178 HD
ENDROOT
BRANCH   1  11
HETATM   11  C   UNL     1      25.443  47.843  50.003  1.00  0.00    -0.030 A 
HETATM   12  C   UNL     1      24.613  48.647  49.195  1.00  0.00     0.046 A 
HETATM   13  C   UNL     1      25.151  49.646  48.379  1.00  0.00     0.068 A 
HETATM   14  C   UNL     1      26.532  49.839  48.355  1.00  0.00     0.037 A 
HETATM   15  C   UNL     1      27.371  49.050  49.141  1.00  0.00     0.003 A 
HETATM   16  C   UNL     1      26.831  48.063  49.963  1.00  0.00     0.009 A 
BRANCH  13  17
HETATM   17  O   UNL     1      24.441  50.494  47.574  1.00  0.00    -0.356 OA
HETATM   18  C   UNL     1      23.023  50.386  47.612  1.00  0.00     0.210 C 
ENDBRANCH  13  17
ENDBRANCH   1  11
BRANCH   8  19
HETATM   19  C   UNL     1      26.429  43.383  49.915  1.00  0.00    -0.035 A 
HETATM   20  C   UNL     1      27.424  42.462  50.286  1.00  0.00     0.010 A 
HETATM   21  C   UNL     1      27.438  41.172  49.750  1.00  0.00     0.019 A 
HETATM   22  C   UNL     1      26.448  40.785  48.851  1.00  0.00     0.011 A 
HETATM   23 BR   UNL     1      26.465  39.039  48.127  1.00  0.00    -0.051 Br
HETATM   24  C   UNL     1      25.442  41.676  48.483  1.00  0.00     0.019 A 
HETATM   25  C   UNL     1      25.432  42.968  49.014  1.00  0.00     0.010 A 
ENDBRANCH   8  19
BRANCH   5  26
HETATM   26  N   UNL     1      26.447  47.932  55.296  1.00  0.00    -0.229 N 
HETATM   27  H   UNL     1      25.670  47.989  55.940  1.00  0.00     0.174 HD
HETATM   28  H   UNL     1      27.351  47.787  55.724  1.00  0.00     0.174 HD
ENDBRANCH   5  26
TORSDOF 4
ENDMDL
MODEL 7
REMARK VINA RESULT:      -8.3      3.906      7.061
REMARK  4 active torsions:
REMARK  status: ('A' for Active; 'I' for Inactive)
REMARK    1  A    between atoms: O_2  and  C_3 
REMARK    2  A    between atoms: C_5  and  C_6 
REMARK    3  A    between atoms: C_10  and  N_11 
REMARK    4  A    between atoms: C_14  and  C_15 
ROOT
HETATM    1  C   UNL     1      25.003  43.900  51.409  1.00  0.00     0.164 C 
HETATM    2  N   UNL     1      24.981  45.306  51.030  1.00  0.00    -0.074 N 
HETATM    3  C   UNL     1      25.988  46.196  51.294  1.00  0.00     0.736 A 
HETATM    4  N   UNL     1      25.677  47.352  50.768  1.00  0.00     0.131 NA
HETATM    5  C   UNL     1      24.441  47.127  50.236  1.00  0.00     0.753 A 
HETATM    6  N   UNL     1      23.975  45.885  50.355  1.00  0.00     0.037 NA
HETATM    7  N   UNL     1      27.083  45.828  51.990  1.00  0.00    -0.214 N 
HETATM    8  C   UNL     1      27.352  44.413  52.216  1.00  0.00     0.135 C 
HETATM    9  C   UNL     1      26.036  43.675  52.531  1.00  0.00     0.063 C 
HETATM   10  H   UNL     1      27.893  46.441  51.936  1.00  0.00     0.178 HD
ENDROOT
BRANCH   1  11
HETATM   11  C   UNL     1      25.258  42.969  50.226  1.00  0.00    -0.030 A 
HETATM   12  C   UNL     1      26.535  42.790  49.655  1.00  0.00     0.046 A 
HETATM   13  C   UNL     1      26.738  41.875  48.618  1.00  0.00     0.068 A 
HETATM   14  C   UNL     1      25.656  41.141  48.133  1.00  0.00     0.037 A 
HETATM   15  C   UNL     1      24.385  41.308  48.678  1.00  0.00     0.003 A 
HETATM   16  C   UNL     1      24.187  42.212  49.721  1.00  0.00     0.009 A 
BRANCH  13  17
HETATM   17  O   UNL     1      27.932  41.607  48.008  1.00  0.00    -0.356 OA
HETATM   18  C   UNL     1      28.530  40.345  48.282  1.00  0.00     0.210 C 
ENDBRANCH  13  17
ENDBRANCH   1  11
BRANCH   8  19
HETATM   19  C   UNL     1      28.357  44.224  53.339  1.00  0.00    -0.035 A 
HETATM   20  C   UNL     1      28.384  45.062  54.467  1.00  0.00     0.010 A 
HETATM   21  C   UNL     1      29.314  44.853  55.489  1.00  0.00     0.019 A 
HETATM   22  C   UNL     1      30.213  43.793  55.400  1.00  0.00     0.011 A 
HETATM   23 BR   UNL     1      31.470  43.508  56.783  1.00  0.00    -0.051 Br
HETATM   24  C   UNL     1      30.192  42.940  54.300  1.00  0.00     0.019 A 
HETATM   25  C   UNL     1      29.267  43.153  53.275  1.00  0.00     0.010 A 
ENDBRANCH   8  19
BRANCH   5  26
HETATM   26  N   UNL     1      23.821  48.127  49.619  1.00  0.00    -0.229 N 
HETATM   27  H   UNL     1      22.885  48.348  49.927  1.00  0.00     0.174 HD
HETATM   28  H   UNL     1      24.385  48.922  49.353  1.00  0.00     0.174 HD
ENDBRANCH   5  26
TORSDOF 4
ENDMDL
MODEL 8
REMARK VINA RESULT:      -8.2      3.987      7.168
REMARK  4 active torsions:
REMARK  status: ('A' for Active; 'I' for Inactive)
REMARK    1  A    between atoms: O_2  and  C_3 
REMARK    2  A    between atoms: C_5  and  C_6 
REMARK    3  A    between atoms: C_10  and  N_11 
REMARK    4  A    between atoms: C_14  and  C_15 
ROOT
HETATM    1  C   UNL     1      26.313  41.889  50.965  1.00  0.00     0.164 C 
HETATM    2  N   UNL     1      25.755  43.135  50.457  1.00  0.00    -0.074 N 
HETATM    3  C   UNL     1      26.218  44.382  50.785  1.00  0.00     0.736 A 
HETATM    4  N   UNL     1      25.538  45.273  50.112  1.00  0.00     0.131 NA
HETATM    5  C   UNL     1      24.634  44.518  49.424  1.00  0.00     0.753 A 
HETATM    6  N   UNL     1      24.734  43.201  49.588  1.00  0.00     0.037 NA
HETATM    7  N   UNL     1      27.224  44.546  51.668  1.00  0.00    -0.214 N 
HETATM    8  C   UNL     1      28.031  43.397  52.064  1.00  0.00     0.135 C 
HETATM    9  C   UNL     1      27.127  42.162  52.245  1.00  0.00     0.063 C 
HETATM   10  H   UNL     1      27.687  45.451  51.679  1.00  0.00     0.178 HD
ENDROOT
BRANCH   1  11
HETATM   11  C   UNL     1      27.147  41.143  49.926  1.00  0.00    -0.030 A 
HETATM   12  C   UNL     1      27.325  41.614  48.608  1.00  0.00     0.046 A 
HETATM   13  C   UNL     1      28.153  40.937  47.709  1.00  0.00     0.068 A 
HETATM   14  C   UNL     1      28.800  39.772  48.118  1.00  0.00     0.037 A 
HETATM   15  C   UNL     1      28.631  39.286  49.413  1.00  0.00     0.003 A 
HETATM   16  C   UNL     1      27.815  39.970  50.313  1.00  0.00     0.009 A 
BRANCH  13  17
HETATM   17  O   UNL     1      28.414  41.314  46.419  1.00  0.00    -0.356 OA
HETATM   18  C   UNL     1      27.989  40.430  45.389  1.00  0.00     0.210 C 
ENDBRANCH  13  17
ENDBRANCH   1  11
BRANCH   8  19
HETATM   19  C   UNL     1      28.804  43.689  53.338  1.00  0.00    -0.035 A 
HETATM   20  C   UNL     1      28.455  44.743  54.199  1.00  0.00     0.010 A 
HETATM   21  C   UNL     1      29.180  44.978  55.370  1.00  0.00     0.019 A 
HETATM   22  C   UNL     1      30.250  44.150  55.699  1.00  0.00     0.011 A 
HETATM   23 BR   UNL     1      31.230  44.465  57.285  1.00  0.00    -0.051 Br
HETATM   24  C   UNL     1      30.602  43.089  54.869  1.00  0.00     0.019 A 
HETATM   25  C   UNL     1      29.881  42.859  53.695  1.00  0.00     0.010 A 
ENDBRANCH   8  19
BRANCH   5  26
HETATM   26  N   UNL     1      23.764  45.133  48.630  1.00  0.00    -0.229 N 
HETATM   27  H   UNL     1      23.202  44.550  48.026  1.00  0.00     0.174 HD
HETATM   28  H   UNL     1      23.293  45.944  49.006  1.00  0.00     0.174 HD
ENDBRANCH   5  26
TORSDOF 4
ENDMDL
MODEL 9
REMARK VINA RESULT:      -8.1      3.957      7.044
REMARK  4 active torsions:
REMARK  status: ('A' for Active; 'I' for Inactive)
REMARK    1  A    between atoms: O_2  and  C_3 
REMARK    2  A    between atoms: C_5  and  C_6 
REMARK    3  A    between atoms: C_10  and  N_11 
REMARK    4  A    between atoms: C_14  and  C_15 
ROOT
HETATM    1  C   UNL     1      26.036  45.573  49.876  1.00  0.00     0.164 C 
HETATM    2  N   UNL     1      25.112  44.462  50.061  1.00  0.00    -0.074 N 
HETATM    3  C   UNL     1      24.774  43.929  51.276  1.00  0.00     0.736 A 
HETATM    4  N   UNL     1      23.881  42.992  51.091  1.00  0.00     0.131 NA
HETATM    5  C   UNL     1      23.745  42.958  49.734  1.00  0.00     0.753 A 
HETATM    6  N   UNL     1      24.465  43.850  49.056  1.00  0.00     0.037 NA
HETATM    7  N   UNL     1      25.333  44.379  52.418  1.00  0.00    -0.214 N 
HETATM    8  C   UNL     1      26.079  45.632  52.412  1.00  0.00     0.135 C 
HETATM    9  C   UNL     1      26.924  45.730  51.127  1.00  0.00     0.063 C 
HETATM   10  H   UNL     1      24.870  44.132  53.289  1.00  0.00     0.178 HD
ENDROOT
BRANCH   1  11
HETATM   11  C   UNL     1      25.332  46.882  49.528  1.00  0.00    -0.030 A 
HETATM   12  C   UNL     1      23.927  47.014  49.512  1.00  0.00     0.046 A 
HETATM   13  C   UNL     1      23.323  48.247  49.256  1.00  0.00     0.068 A 
HETATM   14  C   UNL     1      24.123  49.360  49.000  1.00  0.00     0.037 A 
HETATM   15  C   UNL     1      25.512  49.250  49.004  1.00  0.00     0.003 A 
HETATM   16  C   UNL     1      26.113  48.021  49.272  1.00  0.00     0.009 A 
BRANCH  13  17
HETATM   17  O   UNL     1      21.977  48.493  49.237  1.00  0.00    -0.356 OA
HETATM   18  C   UNL     1      21.515  49.492  48.336  1.00  0.00     0.210 C 
ENDBRANCH  13  17
ENDBRANCH   1  11
BRANCH   8  19
HETATM   19  C   UNL     1      26.958  45.748  53.644  1.00  0.00    -0.035 A 
HETATM   20  C   UNL     1      26.909  46.866  54.495  1.00  0.00     0.010 A 
HETATM   21  C   UNL     1      27.722  46.936  55.629  1.00  0.00     0.019 A 
HETATM   22  C   UNL     1      28.580  45.881  55.932  1.00  0.00     0.011 A 
HETATM   23 BR   UNL     1      29.679  45.973  57.467  1.00  0.00    -0.051 Br
HETATM   24  C   UNL     1      28.631  44.756  55.112  1.00  0.00     0.019 A 
HETATM   25  C   UNL     1      27.823  44.690  53.975  1.00  0.00     0.010 A 
ENDBRANCH   8  19
BRANCH   5  26
HETATM   26  N   UNL     1      22.897  42.086  49.201  1.00  0.00    -0.229 N 
HETATM   27  H   UNL     1      22.662  42.211  48.226  1.00  0.00     0.174 HD
HETATM   28  H   UNL     1      22.974  41.125  49.505  1.00  0.00     0.174 HD
ENDBRANCH   5  26
TORSDOF 4
ENDMDL
MODEL 10
REMARK VINA RESULT:      -8.0      3.789      6.827
REMARK  4 active torsions:
REMARK  status: ('A' for Active; 'I' for Inactive)
REMARK    1  A    between atoms: O_2  and  C_3 
REMARK    2  A    between atoms: C_5  and  C_6 
REMARK    3  A    between atoms: C_10  and  N_11 
REMARK    4  A    between atoms: C_14  and  C_15 
ROOT
HETATM    1  C   UNL     1      26.935  43.629  49.698  1.00  0.00     0.164 C 
HETATM    2  N   UNL     1      27.341  42.241  49.519  1.00  0.00    -0.074 N 
HETATM    3  C   UNL     1      27.857  41.451  50.511  1.00  0.00     0.736 A 
HETATM    4  N   UNL     1      28.056  40.251  50.033  1.00  0.00     0.131 NA
HETATM    5  C   UNL     1      27.690  40.375  48.725  1.00  0.00     0.753 A 
HETATM    6  N   UNL     1      27.229  41.570  48.362  1.00  0.00     0.037 NA
HETATM    7  N   UNL     1      28.080  41.937  51.750  1.00  0.00    -0.214 N 
HETATM    8  C   UNL     1      27.502  43.220  52.136  1.00  0.00     0.135 C 
HETATM    9  C   UNL     1      27.600  44.211  50.961  1.00  0.00     0.063 C 
HETATM   10  H   UNL     1      28.218  41.260  52.495  1.00  0.00     0.178 HD
ENDROOT
BRANCH   1  11
HETATM   11  C   UNL     1      25.419  43.806  49.738  1.00  0.00    -0.030 A 
HETATM   12  C   UNL     1      24.775  44.980  49.295  1.00  0.00     0.046 A 
HETATM   13  C   UNL     1      23.381  45.075  49.283  1.00  0.00     0.068 A 
HETATM   14  C   UNL     1      22.618  43.996  49.729  1.00  0.00     0.037 A 
HETATM   15  C   UNL     1      23.235  42.830  50.178  1.00  0.00     0.003 A 
HETATM   16  C   UNL     1      24.626  42.732  50.177  1.00  0.00     0.009 A 
BRANCH  13  17
HETATM   17  O   UNL     1      22.653  46.152  48.856  1.00  0.00    -0.356 OA
HETATM   18  C   UNL     1      21.660  45.911  47.867  1.00  0.00     0.210 C 
ENDBRANCH  13  17
ENDBRANCH   1  11
BRANCH   8  19
HETATM   19  C   UNL     1      28.191  43.777  53.369  1.00  0.00    -0.035 A 
HETATM   20  C   UNL     1      29.356  43.197  53.901  1.00  0.00     0.010 A 
HETATM   21  C   UNL     1      29.972  43.742  55.030  1.00  0.00     0.019 A 
HETATM   22  C   UNL     1      29.440  44.881  55.628  1.00  0.00     0.011 A 
HETATM   23 BR   UNL     1      30.275  45.620  57.154  1.00  0.00    -0.051 Br
HETATM   24  C   UNL     1      28.296  45.482  55.107  1.00  0.00     0.019 A 
HETATM   25  C   UNL     1      27.676  44.933  53.982  1.00  0.00     0.010 A 
ENDBRANCH   8  19
BRANCH   5  26
HETATM   26  N   UNL     1      27.782  39.311  47.934  1.00  0.00    -0.229 N 
HETATM   27  H   UNL     1      28.003  39.479  46.962  1.00  0.00     0.174 HD
HETATM   28  H   UNL     1      28.192  38.478  48.332  1.00  0.00     0.174 HD
ENDBRANCH   5  26
TORSDOF 4
ENDMDL
