MODEL 1
REMARK VINA RESULT:      -8.4      0.000      0.000
REMARK  4 active torsions:
REMARK  status: ('A' for Active; 'I' for Inactive)
REMARK    1  A    between atoms: O_2  and  C_3 
REMARK    2  A    between atoms: C_4  and  O_5 
REMARK    3  A    between atoms: C_8  and  C_9 
REMARK    4  A    between atoms: C_9  and  N_10 
ROOT
HETATM    1  N   UNL     1      26.715  43.612  52.854  1.00  0.00    -0.066 N 
HETATM    2  H   UNL     1      26.863  43.074  53.721  1.00  0.00     0.280 HD
HETATM    3  C   UNL     1      25.238  43.965  52.863  1.00  0.00     0.246 C 
HETATM    4  C   UNL     1      24.661  44.231  51.456  1.00  0.00     0.062 C 
HETATM    5  C   UNL     1      24.936  43.031  50.559  1.00  0.00     0.020 C 
HETATM    6  C   UNL     1      26.445  42.906  50.411  1.00  0.00     0.031 C 
HETATM    7  C   UNL     1      26.993  44.142  49.700  1.00  0.00     0.138 C 
HETATM    8  N   UNL     1      26.400  45.422  50.088  1.00  0.00    -0.317 N 
HETATM    9  C   UNL     1      25.222  45.497  50.836  1.00  0.00     0.020 A 
HETATM   10  C   UNL     1      24.621  46.686  51.014  1.00  0.00     0.026 A 
HETATM   11  C   UNL     1      27.013  46.560  49.542  1.00  0.00     0.247 A 
HETATM   12  O   UNL     1      28.084  46.534  48.940  1.00  0.00    -0.268 OA
HETATM   13  C   UNL     1      26.321  47.851  49.758  1.00  0.00     0.074 A 
HETATM   14  C   UNL     1      25.180  47.889  50.454  1.00  0.00     0.007 A 
HETATM   15  C   UNL     1      27.111  42.644  51.763  1.00  0.00     0.241 C 
ENDROOT
BRANCH   1  16
HETATM   16  C   UNL     1      27.621  44.811  53.099  1.00  0.00     0.274 C 
BRANCH  16  17
HETATM   17  C   UNL     1      28.615  44.672  54.224  1.00  0.00    -0.012 A 
HETATM   18  C   UNL     1      28.724  45.600  55.272  1.00  0.00     0.054 A 
HETATM   19  C   UNL     1      29.666  45.396  56.287  1.00  0.00     0.117 A 
HETATM   20 BR   UNL     1      27.596  47.136  55.341  1.00  0.00    -0.047 Br
HETATM   21  C   UNL     1      30.532  44.295  56.268  1.00  0.00     0.102 A 
HETATM   22  C   UNL     1      30.436  43.379  55.227  1.00  0.00     0.040 A 
HETATM   23  C   UNL     1      29.486  43.565  54.216  1.00  0.00     0.013 A 
BRANCH  19  24
HETATM   24  O   UNL     1      29.755  46.282  57.331  1.00  0.00    -0.357 OA
HETATM   25  H   UNL     1      30.671  46.629  57.313  1.00  0.00     0.218 HD
ENDBRANCH  19  24
BRANCH  21  26
HETATM   26  O   UNL     1      31.408  44.228  57.320  1.00  0.00    -0.353 OA
HETATM   27  C   UNL     1      32.278  43.100  57.361  1.00  0.00     0.210 C 
ENDBRANCH  21  26
ENDBRANCH  16  17
ENDBRANCH   1  16
TORSDOF 4
ENDMDL
MODEL 2
REMARK VINA RESULT:      -8.1     12.393     13.852
REMARK  4 active torsions:
REMARK  status: ('A' for Active; 'I' for Inactive)
REMARK    1  A    between atoms: O_2  and  C_3 
REMARK    2  A    between atoms: C_4  and  O_5 
REMARK    3  A    between atoms: C_8  and  C_9 
REMARK    4  A    between atoms: C_9  and  N_10 
ROOT
HETATM    1  N   UNL     1      31.844  48.919  41.552  1.00  0.00    -0.066 N 
HETATM    2  H   UNL     1      32.598  48.599  42.178  1.00  0.00     0.280 HD
HETATM    3  C   UNL     1      30.604  48.966  42.428  1.00  0.00     0.246 C 
HETATM    4  C   UNL     1      29.285  48.835  41.636  1.00  0.00     0.062 C 
HETATM    5  C   UNL     1      29.321  47.562  40.799  1.00  0.00     0.020 C 
HETATM    6  C   UNL     1      30.443  47.714  39.783  1.00  0.00     0.031 C 
HETATM    7  C   UNL     1      30.125  48.874  38.839  1.00  0.00     0.138 C 
HETATM    8  N   UNL     1      29.533  50.060  39.457  1.00  0.00    -0.317 N 
HETATM    9  C   UNL     1      29.022  50.042  40.757  1.00  0.00     0.020 A 
HETATM   10  C   UNL     1      28.329  51.100  41.215  1.00  0.00     0.026 A 
HETATM   11  C   UNL     1      29.387  51.170  38.610  1.00  0.00     0.247 A 
HETATM   12  O   UNL     1      29.885  51.242  37.490  1.00  0.00    -0.268 OA
HETATM   13  C   UNL     1      28.616  52.315  39.149  1.00  0.00     0.074 A 
HETATM   14  C   UNL     1      28.115  52.258  40.387  1.00  0.00     0.007 A 
HETATM   15  C   UNL     1      31.798  47.857  40.478  1.00  0.00     0.241 C 
ENDROOT
BRANCH   1  16
HETATM   16  C   UNL     1      32.356  50.298  41.161  1.00  0.00     0.274 C 
BRANCH  16  17
HETATM   17  C   UNL     1      33.765  50.625  41.583  1.00  0.00    -0.012 A 
HETATM   18  C   UNL     1      34.078  51.253  42.800  1.00  0.00     0.054 A 
HETATM   19  C   UNL     1      35.414  51.514  43.125  1.00  0.00     0.117 A 
HETATM   20 BR   UNL     1      32.705  51.746  44.028  1.00  0.00    -0.047 Br
HETATM   21  C   UNL     1      36.456  51.191  42.246  1.00  0.00     0.102 A 
HETATM   22  C   UNL     1      36.151  50.580  41.035  1.00  0.00     0.040 A 
HETATM   23  C   UNL     1      34.820  50.299  40.708  1.00  0.00     0.013 A 
BRANCH  19  24
HETATM   24  O   UNL     1      35.728  52.097  44.327  1.00  0.00    -0.357 OA
HETATM   25  H   UNL     1      36.493  52.682  44.152  1.00  0.00     0.218 HD
ENDBRANCH  19  24
BRANCH  21  26
HETATM   26  O   UNL     1      37.711  51.514  42.691  1.00  0.00    -0.353 OA
HETATM   27  C   UNL     1      38.589  50.429  42.980  1.00  0.00     0.210 C 
ENDBRANCH  21  26
ENDBRANCH  16  17
ENDBRANCH   1  16
TORSDOF 4
ENDMDL
MODEL 3
REMARK VINA RESULT:      -8.1     12.522     13.986
REMARK  4 active torsions:
REMARK  status: ('A' for Active; 'I' for Inactive)
REMARK    1  A    between atoms: O_2  and  C_3 
REMARK    2  A    between atoms: C_4  and  O_5 
REMARK    3  A    between atoms: C_8  and  C_9 
REMARK    4  A    between atoms: C_9  and  N_10 
ROOT
HETATM    1  N   UNL     1      29.246  48.021  39.739  1.00  0.00    -0.066 N 
HETATM    2  H   UNL     1      29.612  47.066  39.867  1.00  0.00     0.280 HD
HETATM    3  C   UNL     1      28.706  48.416  41.103  1.00  0.00     0.246 C 
HETATM    4  C   UNL     1      27.614  49.504  41.041  1.00  0.00     0.062 C 
HETATM    5  C   UNL     1      26.493  49.046  40.116  1.00  0.00     0.020 C 
HETATM    6  C   UNL     1      27.078  48.915  38.718  1.00  0.00     0.031 C 
HETATM    7  C   UNL     1      27.544  50.286  38.227  1.00  0.00     0.138 C 
HETATM    8  N   UNL     1      28.205  51.132  39.220  1.00  0.00    -0.317 N 
HETATM    9  C   UNL     1      28.163  50.843  40.587  1.00  0.00     0.020 A 
HETATM   10  C   UNL     1      28.630  51.741  41.472  1.00  0.00     0.026 A 
HETATM   11  C   UNL     1      28.762  52.321  38.723  1.00  0.00     0.247 A 
HETATM   12  O   UNL     1      28.876  52.571  37.526  1.00  0.00    -0.268 OA
HETATM   13  C   UNL     1      29.264  53.286  39.729  1.00  0.00     0.074 A 
HETATM   14  C   UNL     1      29.185  52.995  41.031  1.00  0.00     0.007 A 
HETATM   15  C   UNL     1      28.181  47.856  38.680  1.00  0.00     0.241 C 
ENDROOT
BRANCH   1  16
HETATM   16  C   UNL     1      30.515  48.770  39.355  1.00  0.00     0.274 C 
BRANCH  16  17
HETATM   17  C   UNL     1      31.256  49.440  40.483  1.00  0.00    -0.012 A 
HETATM   18  C   UNL     1      32.071  50.570  40.304  1.00  0.00     0.054 A 
HETATM   19  C   UNL     1      32.720  51.142  41.405  1.00  0.00     0.117 A 
HETATM   20 BR   UNL     1      32.300  51.348  38.578  1.00  0.00    -0.047 Br
HETATM   21  C   UNL     1      32.600  50.593  42.689  1.00  0.00     0.102 A 
HETATM   22  C   UNL     1      31.804  49.468  42.870  1.00  0.00     0.040 A 
HETATM   23  C   UNL     1      31.138  48.899  41.779  1.00  0.00     0.013 A 
BRANCH  19  24
HETATM   24  O   UNL     1      33.491  52.264  41.242  1.00  0.00    -0.357 OA
HETATM   25  H   UNL     1      34.271  51.983  40.722  1.00  0.00     0.218 HD
ENDBRANCH  19  24
BRANCH  21  26
HETATM   26  O   UNL     1      33.297  51.251  43.668  1.00  0.00    -0.353 OA
HETATM   27  C   UNL     1      32.531  51.896  44.681  1.00  0.00     0.210 C 
ENDBRANCH  21  26
ENDBRANCH  16  17
ENDBRANCH   1  16
TORSDOF 4
ENDMDL
MODEL 4
REMARK VINA RESULT:      -7.6      3.073      7.498
REMARK  4 active torsions:
REMARK  status: ('A' for Active; 'I' for Inactive)
REMARK    1  A    between atoms: O_2  and  C_3 
REMARK    2  A    between atoms: C_4  and  O_5 
REMARK    3  A    between atoms: C_8  and  C_9 
REMARK    4  A    between atoms: C_9  and  N_10 
ROOT
HETATM    1  N   UNL     1      26.093  45.145  49.722  1.00  0.00    -0.066 N 
HETATM    2  H   UNL     1      26.108  45.505  48.756  1.00  0.00     0.280 HD
HETATM    3  C   UNL     1      27.496  44.617  49.962  1.00  0.00     0.246 C 
HETATM    4  C   UNL     1      27.566  43.532  51.057  1.00  0.00     0.062 C 
HETATM    5  C   UNL     1      26.604  42.402  50.714  1.00  0.00     0.020 C 
HETATM    6  C   UNL     1      25.195  42.977  50.740  1.00  0.00     0.031 C 
HETATM    7  C   UNL     1      24.861  43.449  52.154  1.00  0.00     0.138 C 
HETATM    8  N   UNL     1      25.938  44.123  52.878  1.00  0.00    -0.317 N 
HETATM    9  C   UNL     1      27.263  44.088  52.436  1.00  0.00     0.020 A 
HETATM   10  C   UNL     1      28.241  44.567  53.225  1.00  0.00     0.026 A 
HETATM   11  C   UNL     1      25.575  44.684  54.112  1.00  0.00     0.247 A 
HETATM   12  O   UNL     1      24.413  44.792  54.495  1.00  0.00    -0.268 OA
HETATM   13  C   UNL     1      26.680  45.200  54.953  1.00  0.00     0.074 A 
HETATM   14  C   UNL     1      27.941  45.128  54.517  1.00  0.00     0.007 A 
HETATM   15  C   UNL     1      25.030  44.072  49.684  1.00  0.00     0.241 C 
ENDROOT
BRANCH   1  16
HETATM   16  C   UNL     1      25.786  46.416  50.501  1.00  0.00     0.274 C 
BRANCH  16  17
HETATM   17  C   UNL     1      25.118  47.523  49.727  1.00  0.00    -0.012 A 
HETATM   18  C   UNL     1      25.830  48.536  49.063  1.00  0.00     0.054 A 
HETATM   19  C   UNL     1      25.136  49.525  48.356  1.00  0.00     0.117 A 
HETATM   20 BR   UNL     1      27.736  48.578  49.100  1.00  0.00    -0.047 Br
HETATM   21  C   UNL     1      23.736  49.549  48.318  1.00  0.00     0.102 A 
HETATM   22  C   UNL     1      23.026  48.556  48.983  1.00  0.00     0.040 A 
HETATM   23  C   UNL     1      23.710  47.553  49.679  1.00  0.00     0.013 A 
BRANCH  19  24
HETATM   24  O   UNL     1      25.826  50.498  47.678  1.00  0.00    -0.357 OA
HETATM   25  H   UNL     1      25.160  51.159  47.401  1.00  0.00     0.218 HD
ENDBRANCH  19  24
BRANCH  21  26
HETATM   26  O   UNL     1      23.193  50.580  47.597  1.00  0.00    -0.353 OA
HETATM   27  C   UNL     1      22.008  51.175  48.118  1.00  0.00     0.210 C 
ENDBRANCH  21  26
ENDBRANCH  16  17
ENDBRANCH   1  16
TORSDOF 4
ENDMDL
MODEL 5
REMARK VINA RESULT:      -7.6     13.067     14.561
REMARK  4 active torsions:
REMARK  status: ('A' for Active; 'I' for Inactive)
REMARK    1  A    between atoms: O_2  and  C_3 
REMARK    2  A    between atoms: C_4  and  O_5 
REMARK    3  A    between atoms: C_8  and  C_9 
REMARK    4  A    between atoms: C_9  and  N_10 
ROOT
HETATM    1  N   UNL     1      27.676  50.602  40.425  1.00  0.00    -0.066 N 
HETATM    2  H   UNL     1      26.684  50.324  40.371  1.00  0.00     0.280 HD
HETATM    3  C   UNL     1      27.663  51.957  41.111  1.00  0.00     0.246 C 
HETATM    4  C   UNL     1      28.899  52.823  40.786  1.00  0.00     0.062 C 
HETATM    5  C   UNL     1      29.032  52.970  39.275  1.00  0.00     0.020 C 
HETATM    6  C   UNL     1      29.288  51.585  38.700  1.00  0.00     0.031 C 
HETATM    7  C   UNL     1      30.620  51.052  39.226  1.00  0.00     0.138 C 
HETATM    8  N   UNL     1      30.911  51.324  40.633  1.00  0.00    -0.317 N 
HETATM    9  C   UNL     1      30.173  52.249  41.377  1.00  0.00     0.020 A 
HETATM   10  C   UNL     1      30.588  52.596  42.608  1.00  0.00     0.026 A 
HETATM   11  C   UNL     1      32.061  50.702  41.142  1.00  0.00     0.247 A 
HETATM   12  O   UNL     1      32.689  49.835  40.540  1.00  0.00    -0.268 OA
HETATM   13  C   UNL     1      32.487  51.111  42.500  1.00  0.00     0.074 A 
HETATM   14  C   UNL     1      31.777  52.019  43.178  1.00  0.00     0.007 A 
HETATM   15  C   UNL     1      28.112  50.648  38.979  1.00  0.00     0.241 C 
ENDROOT
BRANCH   1  16
HETATM   16  C   UNL     1      28.241  49.491  41.299  1.00  0.00     0.274 C 
BRANCH  16  17
HETATM   17  C   UNL     1      28.487  48.170  40.615  1.00  0.00    -0.012 A 
HETATM   18  C   UNL     1      27.456  47.289  40.250  1.00  0.00     0.054 A 
HETATM   19  C   UNL     1      27.765  46.084  39.608  1.00  0.00     0.117 A 
HETATM   20 BR   UNL     1      25.632  47.716  40.606  1.00  0.00    -0.047 Br
HETATM   21  C   UNL     1      29.091  45.716  39.345  1.00  0.00     0.102 A 
HETATM   22  C   UNL     1      30.117  46.580  39.715  1.00  0.00     0.040 A 
HETATM   23  C   UNL     1      29.817  47.794  40.342  1.00  0.00     0.013 A 
BRANCH  19  24
HETATM   24  O   UNL     1      26.760  45.235  39.220  1.00  0.00    -0.357 OA
HETATM   25  H   UNL     1      26.608  44.633  39.976  1.00  0.00     0.218 HD
ENDBRANCH  19  24
BRANCH  21  26
HETATM   26  O   UNL     1      29.244  44.506  38.721  1.00  0.00    -0.353 OA
HETATM   27  C   UNL     1      29.530  44.534  37.325  1.00  0.00     0.210 C 
ENDBRANCH  21  26
ENDBRANCH  16  17
ENDBRANCH   1  16
TORSDOF 4
ENDMDL
MODEL 6
REMARK VINA RESULT:      -7.5      7.218     10.533
REMARK  4 active torsions:
REMARK  status: ('A' for Active; 'I' for Inactive)
REMARK    1  A    between atoms: O_2  and  C_3 
REMARK    2  A    between atoms: C_4  and  O_5 
REMARK    3  A    between atoms: C_8  and  C_9 
REMARK    4  A    between atoms: C_9  and  N_10 
ROOT
HETATM    1  N   UNL     1      20.260  51.373  48.946  1.00  0.00    -0.066 N 
HETATM    2  H   UNL     1      21.087  51.827  49.362  1.00  0.00     0.280 HD
HETATM    3  C   UNL     1      19.444  52.512  48.361  1.00  0.00     0.246 C 
HETATM    4  C   UNL     1      17.942  52.184  48.222  1.00  0.00     0.062 C 
HETATM    5  C   UNL     1      17.391  51.749  49.575  1.00  0.00     0.020 C 
HETATM    6  C   UNL     1      18.099  50.460  49.964  1.00  0.00     0.031 C 
HETATM    7  C   UNL     1      17.756  49.364  48.957  1.00  0.00     0.138 C 
HETATM    8  N   UNL     1      17.704  49.774  47.554  1.00  0.00    -0.317 N 
HETATM    9  C   UNL     1      17.681  51.119  47.175  1.00  0.00     0.020 A 
HETATM   10  C   UNL     1      17.453  51.445  45.890  1.00  0.00     0.026 A 
HETATM   11  C   UNL     1      17.539  48.733  46.627  1.00  0.00     0.247 A 
HETATM   12  O   UNL     1      17.624  47.542  46.919  1.00  0.00    -0.268 OA
HETATM   13  C   UNL     1      17.289  49.131  45.223  1.00  0.00     0.074 A 
HETATM   14  C   UNL     1      17.244  50.426  44.895  1.00  0.00     0.007 A 
HETATM   15  C   UNL     1      19.604  50.685  50.120  1.00  0.00     0.241 C 
ENDROOT
BRANCH   1  16
HETATM   16  C   UNL     1      20.913  50.495  47.887  1.00  0.00     0.274 C 
BRANCH  16  17
HETATM   17  C   UNL     1      22.258  49.916  48.245  1.00  0.00    -0.012 A 
HETATM   18  C   UNL     1      22.444  48.573  48.612  1.00  0.00     0.054 A 
HETATM   19  C   UNL     1      23.727  48.107  48.921  1.00  0.00     0.117 A 
HETATM   20 BR   UNL     1      20.970  47.365  48.687  1.00  0.00    -0.047 Br
HETATM   21  C   UNL     1      24.838  48.961  48.902  1.00  0.00     0.102 A 
HETATM   22  C   UNL     1      24.658  50.294  48.549  1.00  0.00     0.040 A 
HETATM   23  C   UNL     1      23.382  50.765  48.223  1.00  0.00     0.013 A 
BRANCH  19  24
HETATM   24  O   UNL     1      23.920  46.789  49.249  1.00  0.00    -0.357 OA
HETATM   25  H   UNL     1      24.883  46.629  49.171  1.00  0.00     0.218 HD
ENDBRANCH  19  24
BRANCH  21  26
HETATM   26  O   UNL     1      26.029  48.371  49.235  1.00  0.00    -0.353 OA
HETATM   27  C   UNL     1      27.212  49.122  48.980  1.00  0.00     0.210 C 
ENDBRANCH  21  26
ENDBRANCH  16  17
ENDBRANCH   1  16
TORSDOF 4
ENDMDL
MODEL 7
REMARK VINA RESULT:      -7.5     13.652     15.229
REMARK  4 active torsions:
REMARK  status: ('A' for Active; 'I' for Inactive)
REMARK    1  A    between atoms: O_2  and  C_3 
REMARK    2  A    between atoms: C_4  and  O_5 
REMARK    3  A    between atoms: C_8  and  C_9 
REMARK    4  A    between atoms: C_9  and  N_10 
ROOT
HETATM    1  N   UNL     1      29.195  51.439  39.957  1.00  0.00    -0.066 N 
HETATM    2  H   UNL     1      28.205  51.285  39.714  1.00  0.00     0.280 HD
HETATM    3  C   UNL     1      29.327  50.938  41.385  1.00  0.00     0.246 C 
HETATM    4  C   UNL     1      30.500  51.580  42.157  1.00  0.00     0.062 C 
HETATM    5  C   UNL     1      30.364  53.097  42.116  1.00  0.00     0.020 C 
HETATM    6  C   UNL     1      30.491  53.529  40.663  1.00  0.00     0.031 C 
HETATM    7  C   UNL     1      31.886  53.181  40.145  1.00  0.00     0.138 C 
HETATM    8  N   UNL     1      32.427  51.892  40.574  1.00  0.00    -0.317 N 
HETATM    9  C   UNL     1      31.849  51.153  41.610  1.00  0.00     0.020 A 
HETATM   10  C   UNL     1      32.482  50.066  42.086  1.00  0.00     0.026 A 
HETATM   11  C   UNL     1      33.639  51.517  39.973  1.00  0.00     0.247 A 
HETATM   12  O   UNL     1      34.135  52.106  39.016  1.00  0.00    -0.268 OA
HETATM   13  C   UNL     1      34.307  50.317  40.527  1.00  0.00     0.074 A 
HETATM   14  C   UNL     1      33.744  49.645  41.536  1.00  0.00     0.007 A 
HETATM   15  C   UNL     1      29.367  52.934  39.812  1.00  0.00     0.241 C 
ENDROOT
BRANCH   1  16
HETATM   16  C   UNL     1      29.888  50.545  38.939  1.00  0.00     0.274 C 
BRANCH  16  17
HETATM   17  C   UNL     1      29.650  49.064  39.087  1.00  0.00    -0.012 A 
HETATM   18  C   UNL     1      28.414  48.453  38.821  1.00  0.00     0.054 A 
HETATM   19  C   UNL     1      28.275  47.069  38.973  1.00  0.00     0.117 A 
HETATM   20 BR   UNL     1      26.917  49.483  38.243  1.00  0.00    -0.047 Br
HETATM   21  C   UNL     1      29.339  46.273  39.417  1.00  0.00     0.102 A 
HETATM   22  C   UNL     1      30.563  46.874  39.692  1.00  0.00     0.040 A 
HETATM   23  C   UNL     1      30.716  48.255  39.527  1.00  0.00     0.013 A 
BRANCH  19  24
HETATM   24  O   UNL     1      27.080  46.462  38.684  1.00  0.00    -0.357 OA
HETATM   25  H   UNL     1      26.397  47.160  38.756  1.00  0.00     0.218 HD
ENDBRANCH  19  24
BRANCH  21  26
HETATM   26  O   UNL     1      29.057  44.936  39.528  1.00  0.00    -0.353 OA
HETATM   27  C   UNL     1      29.467  44.101  38.449  1.00  0.00     0.210 C 
ENDBRANCH  21  26
ENDBRANCH  16  17
ENDBRANCH   1  16
TORSDOF 4
ENDMDL
MODEL 8
REMARK VINA RESULT:      -7.4     12.967     14.494
REMARK  4 active torsions:
REMARK  status: ('A' for Active; 'I' for Inactive)
REMARK    1  A    between atoms: O_2  and  C_3 
REMARK    2  A    between atoms: C_4  and  O_5 
REMARK    3  A    between atoms: C_8  and  C_9 
REMARK    4  A    between atoms: C_9  and  N_10 
ROOT
HETATM    1  N   UNL     1      27.935  50.601  40.304  1.00  0.00    -0.066 N 
HETATM    2  H   UNL     1      26.975  50.243  40.192  1.00  0.00     0.280 HD
HETATM    3  C   UNL     1      27.782  51.875  41.117  1.00  0.00     0.246 C 
HETATM    4  C   UNL     1      28.939  52.877  40.916  1.00  0.00     0.062 C 
HETATM    5  C   UNL     1      29.090  53.185  39.432  1.00  0.00     0.020 C 
HETATM    6  C   UNL     1      29.487  51.893  38.733  1.00  0.00     0.031 C 
HETATM    7  C   UNL     1      30.851  51.432  39.245  1.00  0.00     0.138 C 
HETATM    8  N   UNL     1      31.084  51.588  40.681  1.00  0.00    -0.317 N 
HETATM    9  C   UNL     1      30.248  52.365  41.488  1.00  0.00     0.020 A 
HETATM   10  C   UNL     1      30.601  52.624  42.759  1.00  0.00     0.026 A 
HETATM   11  C   UNL     1      32.276  51.025  41.163  1.00  0.00     0.247 A 
HETATM   12  O   UNL     1      32.994  50.282  40.499  1.00  0.00    -0.268 OA
HETATM   13  C   UNL     1      32.632  51.334  42.566  1.00  0.00     0.074 A 
HETATM   14  C   UNL     1      31.827  52.102  43.306  1.00  0.00     0.007 A 
HETATM   15  C   UNL     1      28.397  50.830  38.883  1.00  0.00     0.241 C 
ENDROOT
BRANCH   1  16
HETATM   16  C   UNL     1      28.582  49.465  41.083  1.00  0.00     0.274 C 
BRANCH  16  17
HETATM   17  C   UNL     1      28.156  48.071  40.698  1.00  0.00    -0.012 A 
HETATM   18  C   UNL     1      29.042  47.110  40.183  1.00  0.00     0.054 A 
HETATM   19  C   UNL     1      28.571  45.833  39.858  1.00  0.00     0.117 A 
HETATM   20 BR   UNL     1      30.887  47.517  39.930  1.00  0.00    -0.047 Br
HETATM   21  C   UNL     1      27.219  45.494  40.005  1.00  0.00     0.102 A 
HETATM   22  C   UNL     1      26.336  46.445  40.504  1.00  0.00     0.040 A 
HETATM   23  C   UNL     1      26.800  47.719  40.848  1.00  0.00     0.013 A 
BRANCH  19  24
HETATM   24  O   UNL     1      29.437  44.880  39.386  1.00  0.00    -0.357 OA
HETATM   25  H   UNL     1      29.440  44.976  38.411  1.00  0.00     0.218 HD
ENDBRANCH  19  24
BRANCH  21  26
HETATM   26  O   UNL     1      26.899  44.213  39.639  1.00  0.00    -0.353 OA
HETATM   27  C   UNL     1      25.517  43.925  39.446  1.00  0.00     0.210 C 
ENDBRANCH  21  26
ENDBRANCH  16  17
ENDBRANCH   1  16
TORSDOF 4
ENDMDL
MODEL 9
REMARK VINA RESULT:      -7.4      6.777      9.613
REMARK  4 active torsions:
REMARK  status: ('A' for Active; 'I' for Inactive)
REMARK    1  A    between atoms: O_2  and  C_3 
REMARK    2  A    between atoms: C_4  and  O_5 
REMARK    3  A    between atoms: C_8  and  C_9 
REMARK    4  A    between atoms: C_9  and  N_10 
ROOT
HETATM    1  N   UNL     1      19.441  47.041  47.951  1.00  0.00    -0.066 N 
HETATM    2  H   UNL     1      19.934  46.136  47.988  1.00  0.00     0.280 HD
HETATM    3  C   UNL     1      19.033  47.320  49.387  1.00  0.00     0.246 C 
HETATM    4  C   UNL     1      17.817  48.262  49.509  1.00  0.00     0.062 C 
HETATM    5  C   UNL     1      16.653  47.696  48.705  1.00  0.00     0.020 C 
HETATM    6  C   UNL     1      17.070  47.686  47.242  1.00  0.00     0.031 C 
HETATM    7  C   UNL     1      17.300  49.119  46.765  1.00  0.00     0.138 C 
HETATM    8  N   UNL     1      17.973  50.010  47.710  1.00  0.00    -0.317 N 
HETATM    9  C   UNL     1      18.138  49.674  49.057  1.00  0.00     0.020 A 
HETATM   10  C   UNL     1      18.600  50.595  49.921  1.00  0.00     0.026 A 
HETATM   11  C   UNL     1      18.313  51.275  47.207  1.00  0.00     0.247 A 
HETATM   12  O   UNL     1      18.245  51.576  46.018  1.00  0.00    -0.268 OA
HETATM   13  C   UNL     1      18.817  52.263  48.189  1.00  0.00     0.074 A 
HETATM   14  C   UNL     1      18.938  51.922  49.476  1.00  0.00     0.007 A 
HETATM   15  C   UNL     1      18.280  46.776  47.022  1.00  0.00     0.241 C 
ENDROOT
BRANCH   1  16
HETATM   16  C   UNL     1      20.551  47.956  47.453  1.00  0.00     0.274 C 
BRANCH  16  17
HETATM   17  C   UNL     1      21.888  47.807  48.133  1.00  0.00    -0.012 A 
HETATM   18  C   UNL     1      22.749  48.889  48.381  1.00  0.00     0.054 A 
HETATM   19  C   UNL     1      23.971  48.671  49.027  1.00  0.00     0.117 A 
HETATM   20 BR   UNL     1      22.272  50.660  47.859  1.00  0.00    -0.047 Br
HETATM   21  C   UNL     1      24.376  47.385  49.410  1.00  0.00     0.102 A 
HETATM   22  C   UNL     1      23.533  46.310  49.156  1.00  0.00     0.040 A 
HETATM   23  C   UNL     1      22.301  46.519  48.525  1.00  0.00     0.013 A 
BRANCH  19  24
HETATM   24  O   UNL     1      24.802  49.728  49.302  1.00  0.00    -0.357 OA
HETATM   25  H   UNL     1      25.613  49.579  48.774  1.00  0.00     0.218 HD
ENDBRANCH  19  24
BRANCH  21  26
HETATM   26  O   UNL     1      25.599  47.321  50.023  1.00  0.00    -0.353 OA
HETATM   27  C   UNL     1      25.608  46.980  51.406  1.00  0.00     0.210 C 
ENDBRANCH  21  26
ENDBRANCH  16  17
ENDBRANCH   1  16
TORSDOF 4
ENDMDL
MODEL 10
REMARK VINA RESULT:      -7.4      7.937     11.230
REMARK  4 active torsions:
REMARK  status: ('A' for Active; 'I' for Inactive)
REMARK    1  A    between atoms: O_2  and  C_3 
REMARK    2  A    between atoms: C_4  and  O_5 
REMARK    3  A    between atoms: C_8  and  C_9 
REMARK    4  A    between atoms: C_9  and  N_10 
ROOT
HETATM    1  N   UNL     1      19.016  51.906  47.421  1.00  0.00    -0.066 N 
HETATM    2  H   UNL     1      19.483  52.594  46.811  1.00  0.00     0.280 HD
HETATM    3  C   UNL     1      17.542  52.016  47.076  1.00  0.00     0.246 C 
HETATM    4  C   UNL     1      16.607  51.555  48.214  1.00  0.00     0.062 C 
HETATM    5  C   UNL     1      16.934  52.328  49.485  1.00  0.00     0.020 C 
HETATM    6  C   UNL     1      18.354  51.961  49.891  1.00  0.00     0.031 C 
HETATM    7  C   UNL     1      18.419  50.473  50.232  1.00  0.00     0.138 C 
HETATM    8  N   UNL     1      17.654  49.581  49.362  1.00  0.00    -0.317 N 
HETATM    9  C   UNL     1      16.699  50.061  48.463  1.00  0.00     0.020 A 
HETATM   10  C   UNL     1      15.898  49.197  47.816  1.00  0.00     0.026 A 
HETATM   11  C   UNL     1      17.843  48.209  49.591  1.00  0.00     0.247 A 
HETATM   12  O   UNL     1      18.720  47.755  50.321  1.00  0.00    -0.268 OA
HETATM   13  C   UNL     1      16.940  47.288  48.862  1.00  0.00     0.074 A 
HETATM   14  C   UNL     1      16.017  47.777  48.029  1.00  0.00     0.007 A 
HETATM   15  C   UNL     1      19.359  52.377  48.816  1.00  0.00     0.241 C 
ENDROOT
BRANCH   1  16
HETATM   16  C   UNL     1      19.652  50.610  46.937  1.00  0.00     0.274 C 
BRANCH  16  17
HETATM   17  C   UNL     1      20.930  50.202  47.624  1.00  0.00    -0.012 A 
HETATM   18  C   UNL     1      21.350  48.867  47.737  1.00  0.00     0.054 A 
HETATM   19  C   UNL     1      22.557  48.569  48.381  1.00  0.00     0.117 A 
HETATM   20 BR   UNL     1      20.304  47.447  47.012  1.00  0.00    -0.047 Br
HETATM   21  C   UNL     1      23.349  49.575  48.949  1.00  0.00     0.102 A 
HETATM   22  C   UNL     1      22.932  50.898  48.850  1.00  0.00     0.040 A 
HETATM   23  C   UNL     1      21.736  51.208  48.193  1.00  0.00     0.013 A 
BRANCH  19  24
HETATM   24  O   UNL     1      22.988  47.269  48.466  1.00  0.00    -0.357 OA
HETATM   25  H   UNL     1      23.503  47.209  49.296  1.00  0.00     0.218 HD
ENDBRANCH  19  24
BRANCH  21  26
HETATM   26  O   UNL     1      24.497  49.137  49.555  1.00  0.00    -0.353 OA
HETATM   27  C   UNL     1      25.710  49.291  48.824  1.00  0.00     0.210 C 
ENDBRANCH  21  26
ENDBRANCH  16  17
ENDBRANCH   1  16
TORSDOF 4
ENDMDL
