MODEL 1
REMARK VINA RESULT:      -8.5      0.000      0.000
REMARK  8 active torsions:
REMARK  status: ('A' for Active; 'I' for Inactive)
REMARK    1  A    between atoms: C_2  and  N_3 
REMARK    2  A    between atoms: C_2  and  C_17 
REMARK    3  A    between atoms: N_3  and  N_4 
REMARK       I    between atoms: N_4  and  C_5 
REMARK    4  A    between atoms: C_5  and  C_6 
REMARK    5  A    between atoms: C_6  and  N_7 
REMARK    6  A    between atoms: N_7  and  C_8 
REMARK    7  A    between atoms: C_9  and  O_10 
REMARK       I    between atoms: C_17  and  N_18 
REMARK    8  A    between atoms: N_18  and  C_19 
ROOT
HETATM    1  N   UNL     1      25.590  43.282  52.147  1.00  0.00    -0.225 NA
HETATM    2  H   UNL     1      25.391  43.310  53.159  1.00  0.00     0.147 HD
ENDROOT
BRANCH   1   3
HETATM    3  C   UNL     1      26.995  42.782  52.020  1.00  0.00     0.165 C 
HETATM    4  C   UNL     1      27.743  43.671  51.032  1.00  0.00     0.038 C 
BRANCH   3   5
HETATM    5  C   UNL     1      27.723  42.810  53.378  1.00  0.00     0.241 C 
HETATM    6  N   UNL     1      28.440  43.978  53.579  1.00  0.00    -0.326 N 
HETATM    7  H   UNL     1      28.331  44.651  52.825  1.00  0.00     0.169 HD
HETATM    8  O   UNL     1      27.673  41.849  54.141  1.00  0.00    -0.271 OA
BRANCH   6   9
HETATM    9  C   UNL     1      29.149  44.378  54.723  1.00  0.00     0.036 A 
HETATM   10  C   UNL     1      30.244  43.685  55.243  1.00  0.00     0.053 A 
HETATM   11  C   UNL     1      30.869  44.140  56.406  1.00  0.00     0.036 A 
HETATM   12 CL   UNL     1      32.212  43.276  57.049  1.00  0.00    -0.084 Cl
HETATM   13  C   UNL     1      30.415  45.284  57.058  1.00  0.00     0.024 A 
HETATM   14  C   UNL     1      29.328  45.985  56.540  1.00  0.00     0.004 A 
HETATM   15  C   UNL     1      28.700  45.534  55.376  1.00  0.00     0.029 A 
ENDBRANCH   6   9
ENDBRANCH   3   5
ENDBRANCH   1   3
BRANCH   1  16
HETATM   16  N   UNL     1      25.483  44.629  51.689  1.00  0.00    -0.290 N 
HETATM   17  C   UNL     1      25.444  45.662  52.623  1.00  0.00     0.245 C 
HETATM   18  O   UNL     1      25.559  45.474  53.834  1.00  0.00    -0.271 OA
HETATM   19  H   UNL     1      25.054  44.803  50.781  1.00  0.00     0.183 HD
BRANCH  17  20
HETATM   20  C   UNL     1      25.169  47.037  52.012  1.00  0.00     0.196 C 
BRANCH  20  21
HETATM   21  N   UNL     1      24.781  46.865  50.602  1.00  0.00    -0.282 NA
HETATM   22  H   UNL     1      23.766  47.025  50.524  1.00  0.00     0.128 HD
BRANCH  21  23
HETATM   23  C   UNL     1      25.366  47.878  49.788  1.00  0.00     0.042 A 
HETATM   24  C   UNL     1      24.535  48.797  49.110  1.00  0.00     0.089 A 
HETATM   25  C   UNL     1      25.106  49.813  48.344  1.00  0.00     0.038 A 
HETATM   26  C   UNL     1      26.496  49.924  48.257  1.00  0.00     0.003 A 
HETATM   27  C   UNL     1      27.319  49.023  48.934  1.00  0.00     0.002 A 
HETATM   28  C   UNL     1      26.756  48.003  49.702  1.00  0.00     0.026 A 
BRANCH  24  29
HETATM   29  O   UNL     1      23.187  48.589  49.284  1.00  0.00    -0.354 OA
HETATM   30  C   UNL     1      22.434  48.240  48.130  1.00  0.00     0.210 C 
ENDBRANCH  24  29
ENDBRANCH  21  23
ENDBRANCH  20  21
ENDBRANCH  17  20
ENDBRANCH   1  16
TORSDOF 8
ENDMDL
MODEL 2
REMARK VINA RESULT:      -8.5      3.312      7.936
REMARK  8 active torsions:
REMARK  status: ('A' for Active; 'I' for Inactive)
REMARK    1  A    between atoms: C_2  and  N_3 
REMARK    2  A    between atoms: C_2  and  C_17 
REMARK    3  A    between atoms: N_3  and  N_4 
REMARK       I    between atoms: N_4  and  C_5 
REMARK    4  A    between atoms: C_5  and  C_6 
REMARK    5  A    between atoms: C_6  and  N_7 
REMARK    6  A    between atoms: N_7  and  C_8 
REMARK    7  A    between atoms: C_9  and  O_10 
REMARK       I    between atoms: C_17  and  N_18 
REMARK    8  A    between atoms: N_18  and  C_19 
ROOT
HETATM    1  N   UNL     1      24.569  44.247  52.114  1.00  0.00    -0.225 NA
HETATM    2  H   UNL     1      23.658  43.866  52.412  1.00  0.00     0.147 HD
ENDROOT
BRANCH   1   3
HETATM    3  C   UNL     1      24.761  43.794  50.701  1.00  0.00     0.165 C 
HETATM    4  C   UNL     1      23.591  42.894  50.313  1.00  0.00     0.038 C 
BRANCH   3   5
HETATM    5  C   UNL     1      24.822  44.991  49.734  1.00  0.00     0.241 C 
HETATM    6  N   UNL     1      25.305  46.142  50.333  1.00  0.00    -0.326 N 
HETATM    7  H   UNL     1      25.592  46.002  51.299  1.00  0.00     0.169 HD
HETATM    8  O   UNL     1      24.425  44.889  48.576  1.00  0.00    -0.271 OA
BRANCH   6   9
HETATM    9  C   UNL     1      25.571  47.388  49.742  1.00  0.00     0.036 A 
HETATM   10  C   UNL     1      24.580  48.264  49.293  1.00  0.00     0.053 A 
HETATM   11  C   UNL     1      24.937  49.469  48.687  1.00  0.00     0.036 A 
HETATM   12 CL   UNL     1      23.712  50.541  48.126  1.00  0.00    -0.084 Cl
HETATM   13  C   UNL     1      26.276  49.814  48.522  1.00  0.00     0.024 A 
HETATM   14  C   UNL     1      27.270  48.949  48.974  1.00  0.00     0.004 A 
HETATM   15  C   UNL     1      26.917  47.743  49.584  1.00  0.00     0.029 A 
ENDBRANCH   6   9
ENDBRANCH   3   5
ENDBRANCH   1   3
BRANCH   1  16
HETATM   16  N   UNL     1      25.541  43.659  52.977  1.00  0.00    -0.290 N 
HETATM   17  C   UNL     1      26.713  44.359  53.257  1.00  0.00     0.245 C 
HETATM   18  O   UNL     1      26.928  45.497  52.840  1.00  0.00    -0.271 OA
HETATM   19  H   UNL     1      25.573  42.643  53.056  1.00  0.00     0.183 HD
BRANCH  17  20
HETATM   20  C   UNL     1      27.736  43.557  54.062  1.00  0.00     0.196 C 
BRANCH  20  21
HETATM   21  N   UNL     1      29.075  44.126  53.836  1.00  0.00    -0.282 NA
HETATM   22  H   UNL     1      28.963  45.102  53.527  1.00  0.00     0.128 HD
BRANCH  21  23
HETATM   23  C   UNL     1      29.800  44.217  55.059  1.00  0.00     0.042 A 
HETATM   24  C   UNL     1      29.762  45.416  55.806  1.00  0.00     0.089 A 
HETATM   25  C   UNL     1      30.439  45.495  57.023  1.00  0.00     0.038 A 
HETATM   26  C   UNL     1      31.143  44.388  57.504  1.00  0.00     0.003 A 
HETATM   27  C   UNL     1      31.174  43.200  56.772  1.00  0.00     0.002 A 
HETATM   28  C   UNL     1      30.500  43.112  55.553  1.00  0.00     0.026 A 
BRANCH  24  29
HETATM   29  O   UNL     1      29.026  46.426  55.233  1.00  0.00    -0.354 OA
HETATM   30  C   UNL     1      27.867  46.857  55.934  1.00  0.00     0.210 C 
ENDBRANCH  24  29
ENDBRANCH  21  23
ENDBRANCH  20  21
ENDBRANCH  17  20
ENDBRANCH   1  16
TORSDOF 8
ENDMDL
MODEL 3
REMARK VINA RESULT:      -8.3      3.311      8.125
REMARK  8 active torsions:
REMARK  status: ('A' for Active; 'I' for Inactive)
REMARK    1  A    between atoms: C_2  and  N_3 
REMARK    2  A    between atoms: C_2  and  C_17 
REMARK    3  A    between atoms: N_3  and  N_4 
REMARK       I    between atoms: N_4  and  C_5 
REMARK    4  A    between atoms: C_5  and  C_6 
REMARK    5  A    between atoms: C_6  and  N_7 
REMARK    6  A    between atoms: N_7  and  C_8 
REMARK    7  A    between atoms: C_9  and  O_10 
REMARK       I    between atoms: C_17  and  N_18 
REMARK    8  A    between atoms: N_18  and  C_19 
ROOT
HETATM    1  N   UNL     1      24.585  44.829  52.511  1.00  0.00    -0.225 NA
HETATM    2  H   UNL     1      23.732  44.280  52.696  1.00  0.00     0.147 HD
ENDROOT
BRANCH   1   3
HETATM    3  C   UNL     1      25.210  44.219  51.295  1.00  0.00     0.165 C 
HETATM    4  C   UNL     1      24.366  43.025  50.859  1.00  0.00     0.038 C 
BRANCH   3   5
HETATM    5  C   UNL     1      25.286  45.234  50.138  1.00  0.00     0.241 C 
HETATM    6  N   UNL     1      25.409  46.542  50.577  1.00  0.00    -0.326 N 
HETATM    7  H   UNL     1      25.482  46.620  51.588  1.00  0.00     0.169 HD
HETATM    8  O   UNL     1      25.195  44.868  48.970  1.00  0.00    -0.271 OA
BRANCH   6   9
HETATM    9  C   UNL     1      25.585  47.705  49.811  1.00  0.00     0.036 A 
HETATM   10  C   UNL     1      24.534  48.444  49.263  1.00  0.00     0.053 A 
HETATM   11  C   UNL     1      24.805  49.572  48.487  1.00  0.00     0.036 A 
HETATM   12 CL   UNL     1      23.506  50.472  47.804  1.00  0.00    -0.084 Cl
HETATM   13  C   UNL     1      26.117  49.976  48.250  1.00  0.00     0.024 A 
HETATM   14  C   UNL     1      27.170  49.249  48.801  1.00  0.00     0.004 A 
HETATM   15  C   UNL     1      26.904  48.120  49.580  1.00  0.00     0.029 A 
ENDBRANCH   6   9
ENDBRANCH   3   5
ENDBRANCH   1   3
BRANCH   1  16
HETATM   16  N   UNL     1      25.418  44.656  53.656  1.00  0.00    -0.290 N 
HETATM   17  C   UNL     1      26.301  45.674  54.012  1.00  0.00     0.245 C 
HETATM   18  O   UNL     1      26.357  46.750  53.418  1.00  0.00    -0.271 OA
HETATM   19  H   UNL     1      25.652  43.710  53.950  1.00  0.00     0.183 HD
BRANCH  17  20
HETATM   20  C   UNL     1      27.244  45.301  55.158  1.00  0.00     0.196 C 
BRANCH  20  21
HETATM   21  N   UNL     1      28.632  45.552  54.735  1.00  0.00    -0.282 NA
HETATM   22  H   UNL     1      28.797  46.569  54.752  1.00  0.00     0.128 HD
BRANCH  21  23
HETATM   23  C   UNL     1      29.554  45.023  55.684  1.00  0.00     0.042 A 
HETATM   24  C   UNL     1      30.314  43.878  55.358  1.00  0.00     0.089 A 
HETATM   25  C   UNL     1      31.246  43.382  56.270  1.00  0.00     0.038 A 
HETATM   26  C   UNL     1      31.431  44.024  57.497  1.00  0.00     0.003 A 
HETATM   27  C   UNL     1      30.689  45.161  57.817  1.00  0.00     0.002 A 
HETATM   28  C   UNL     1      29.754  45.663  56.911  1.00  0.00     0.026 A 
BRANCH  24  29
HETATM   29  O   UNL     1      30.047  43.346  54.118  1.00  0.00    -0.354 OA
HETATM   30  C   UNL     1      29.128  42.264  54.065  1.00  0.00     0.210 C 
ENDBRANCH  24  29
ENDBRANCH  21  23
ENDBRANCH  20  21
ENDBRANCH  17  20
ENDBRANCH   1  16
TORSDOF 8
ENDMDL
MODEL 4
REMARK VINA RESULT:      -8.2      1.801      2.123
REMARK  8 active torsions:
REMARK  status: ('A' for Active; 'I' for Inactive)
REMARK    1  A    between atoms: C_2  and  N_3 
REMARK    2  A    between atoms: C_2  and  C_17 
REMARK    3  A    between atoms: N_3  and  N_4 
REMARK       I    between atoms: N_4  and  C_5 
REMARK    4  A    between atoms: C_5  and  C_6 
REMARK    5  A    between atoms: C_6  and  N_7 
REMARK    6  A    between atoms: N_7  and  C_8 
REMARK    7  A    between atoms: C_9  and  O_10 
REMARK       I    between atoms: C_17  and  N_18 
REMARK    8  A    between atoms: N_18  and  C_19 
ROOT
HETATM    1  N   UNL     1      25.226  42.179  51.013  1.00  0.00    -0.225 NA
HETATM    2  H   UNL     1      24.972  42.460  51.972  1.00  0.00     0.147 HD
ENDROOT
BRANCH   1   3
HETATM    3  C   UNL     1      26.664  41.767  51.073  1.00  0.00     0.165 C 
HETATM    4  C   UNL     1      27.173  41.560  49.650  1.00  0.00     0.038 C 
BRANCH   3   5
HETATM    5  C   UNL     1      27.523  42.840  51.768  1.00  0.00     0.241 C 
HETATM    6  N   UNL     1      27.703  42.593  53.119  1.00  0.00    -0.326 N 
HETATM    7  H   UNL     1      27.285  41.718  53.426  1.00  0.00     0.169 HD
HETATM    8  O   UNL     1      27.939  43.815  51.148  1.00  0.00    -0.271 OA
BRANCH   6   9
HETATM    9  C   UNL     1      28.488  43.307  54.038  1.00  0.00     0.036 A 
HETATM   10  C   UNL     1      28.068  44.476  54.678  1.00  0.00     0.053 A 
HETATM   11  C   UNL     1      28.929  45.138  55.555  1.00  0.00     0.036 A 
HETATM   12 CL   UNL     1      28.412  46.584  56.333  1.00  0.00    -0.084 Cl
HETATM   13  C   UNL     1      30.209  44.647  55.803  1.00  0.00     0.024 A 
HETATM   14  C   UNL     1      30.631  43.478  55.175  1.00  0.00     0.004 A 
HETATM   15  C   UNL     1      29.772  42.810  54.298  1.00  0.00     0.029 A 
ENDBRANCH   6   9
ENDBRANCH   3   5
ENDBRANCH   1   3
BRANCH   1  16
HETATM   16  N   UNL     1      25.060  43.343  50.206  1.00  0.00    -0.290 N 
HETATM   17  C   UNL     1      24.435  44.463  50.751  1.00  0.00     0.245 C 
HETATM   18  O   UNL     1      24.069  44.520  51.925  1.00  0.00    -0.271 OA
HETATM   19  H   UNL     1      25.025  43.234  49.194  1.00  0.00     0.183 HD
BRANCH  17  20
HETATM   20  C   UNL     1      24.179  45.582  49.740  1.00  0.00     0.196 C 
BRANCH  20  21
HETATM   21  N   UNL     1      24.222  46.877  50.440  1.00  0.00    -0.282 NA
HETATM   22  H   UNL     1      24.674  46.735  51.355  1.00  0.00     0.128 HD
BRANCH  21  23
HETATM   23  C   UNL     1      25.074  47.794  49.757  1.00  0.00     0.042 A 
HETATM   24  C   UNL     1      24.515  48.923  49.117  1.00  0.00     0.089 A 
HETATM   25  C   UNL     1      25.350  49.842  48.482  1.00  0.00     0.038 A 
HETATM   26  C   UNL     1      26.734  49.650  48.490  1.00  0.00     0.003 A 
HETATM   27  C   UNL     1      27.288  48.541  49.130  1.00  0.00     0.002 A 
HETATM   28  C   UNL     1      26.461  47.615  49.767  1.00  0.00     0.026 A 
BRANCH  24  29
HETATM   29  O   UNL     1      23.145  49.004  49.191  1.00  0.00    -0.354 OA
HETATM   30  C   UNL     1      22.426  48.881  47.971  1.00  0.00     0.210 C 
ENDBRANCH  24  29
ENDBRANCH  21  23
ENDBRANCH  20  21
ENDBRANCH  17  20
ENDBRANCH   1  16
TORSDOF 8
ENDMDL
MODEL 5
REMARK VINA RESULT:      -8.1      2.829      4.477
REMARK  8 active torsions:
REMARK  status: ('A' for Active; 'I' for Inactive)
REMARK    1  A    between atoms: C_2  and  N_3 
REMARK    2  A    between atoms: C_2  and  C_17 
REMARK    3  A    between atoms: N_3  and  N_4 
REMARK       I    between atoms: N_4  and  C_5 
REMARK    4  A    between atoms: C_5  and  C_6 
REMARK    5  A    between atoms: C_6  and  N_7 
REMARK    6  A    between atoms: N_7  and  C_8 
REMARK    7  A    between atoms: C_9  and  O_10 
REMARK       I    between atoms: C_17  and  N_18 
REMARK    8  A    between atoms: N_18  and  C_19 
ROOT
HETATM    1  N   UNL     1      24.521  46.190  50.985  1.00  0.00    -0.225 NA
HETATM    2  H   UNL     1      25.374  46.734  50.784  1.00  0.00     0.147 HD
ENDROOT
BRANCH   1   3
HETATM    3  C   UNL     1      24.915  44.751  50.865  1.00  0.00     0.165 C 
HETATM    4  C   UNL     1      25.793  44.587  49.628  1.00  0.00     0.038 C 
BRANCH   3   5
HETATM    5  C   UNL     1      25.696  44.280  52.106  1.00  0.00     0.241 C 
HETATM    6  N   UNL     1      27.069  44.331  51.929  1.00  0.00    -0.326 N 
HETATM    7  H   UNL     1      27.343  44.718  51.030  1.00  0.00     0.169 HD
HETATM    8  O   UNL     1      25.109  43.870  53.104  1.00  0.00    -0.271 OA
BRANCH   6   9
HETATM    9  C   UNL     1      28.079  44.058  52.866  1.00  0.00     0.036 A 
HETATM   10  C   UNL     1      28.247  44.765  54.058  1.00  0.00     0.053 A 
HETATM   11  C   UNL     1      29.300  44.445  54.916  1.00  0.00     0.036 A 
HETATM   12 CL   UNL     1      29.510  45.327  56.380  1.00  0.00    -0.084 Cl
HETATM   13  C   UNL     1      30.191  43.422  54.600  1.00  0.00     0.024 A 
HETATM   14  C   UNL     1      30.025  42.707  53.416  1.00  0.00     0.004 A 
HETATM   15  C   UNL     1      28.971  43.023  52.555  1.00  0.00     0.029 A 
ENDBRANCH   6   9
ENDBRANCH   3   5
ENDBRANCH   1   3
BRANCH   1  16
HETATM   16  N   UNL     1      23.579  46.550  49.976  1.00  0.00    -0.290 N 
HETATM   17  C   UNL     1      23.561  47.859  49.501  1.00  0.00     0.245 C 
HETATM   18  O   UNL     1      24.365  48.716  49.868  1.00  0.00    -0.271 OA
HETATM   19  H   UNL     1      22.717  46.012  49.901  1.00  0.00     0.183 HD
BRANCH  17  20
HETATM   20  C   UNL     1      22.406  48.153  48.542  1.00  0.00     0.196 C 
BRANCH  20  21
HETATM   21  N   UNL     1      21.142  48.134  49.297  1.00  0.00    -0.282 NA
HETATM   22  H   UNL     1      21.364  48.026  50.297  1.00  0.00     0.128 HD
BRANCH  21  23
HETATM   23  C   UNL     1      20.482  49.395  49.211  1.00  0.00     0.042 A 
HETATM   24  C   UNL     1      19.226  49.570  49.832  1.00  0.00     0.089 A 
HETATM   25  C   UNL     1      18.596  50.814  49.783  1.00  0.00     0.038 A 
HETATM   26  C   UNL     1      19.213  51.883  49.129  1.00  0.00     0.003 A 
HETATM   27  C   UNL     1      20.459  51.715  48.523  1.00  0.00     0.002 A 
HETATM   28  C   UNL     1      21.095  50.474  48.567  1.00  0.00     0.026 A 
BRANCH  24  29
HETATM   29  O   UNL     1      18.730  48.447  50.452  1.00  0.00    -0.354 OA
HETATM   30  C   UNL     1      18.535  48.520  51.858  1.00  0.00     0.210 C 
ENDBRANCH  24  29
ENDBRANCH  21  23
ENDBRANCH  20  21
ENDBRANCH  17  20
ENDBRANCH   1  16
TORSDOF 8
ENDMDL
MODEL 6
REMARK VINA RESULT:      -8.1      2.244      3.082
REMARK  8 active torsions:
REMARK  status: ('A' for Active; 'I' for Inactive)
REMARK    1  A    between atoms: C_2  and  N_3 
REMARK    2  A    between atoms: C_2  and  C_17 
REMARK    3  A    between atoms: N_3  and  N_4 
REMARK       I    between atoms: N_4  and  C_5 
REMARK    4  A    between atoms: C_5  and  C_6 
REMARK    5  A    between atoms: C_6  and  N_7 
REMARK    6  A    between atoms: N_7  and  C_8 
REMARK    7  A    between atoms: C_9  and  O_10 
REMARK       I    between atoms: C_17  and  N_18 
REMARK    8  A    between atoms: N_18  and  C_19 
ROOT
HETATM    1  N   UNL     1      24.109  44.630  51.773  1.00  0.00    -0.225 NA
HETATM    2  H   UNL     1      24.518  45.164  52.555  1.00  0.00     0.147 HD
ENDROOT
BRANCH   1   3
HETATM    3  C   UNL     1      25.105  43.563  51.440  1.00  0.00     0.165 C 
HETATM    4  C   UNL     1      25.182  43.424  49.923  1.00  0.00     0.038 C 
BRANCH   3   5
HETATM    5  C   UNL     1      26.502  43.913  51.988  1.00  0.00     0.241 C 
HETATM    6  N   UNL     1      26.455  44.513  53.235  1.00  0.00    -0.326 N 
HETATM    7  H   UNL     1      25.514  44.580  53.614  1.00  0.00     0.169 HD
HETATM    8  O   UNL     1      27.512  43.701  51.323  1.00  0.00    -0.271 OA
BRANCH   6   9
HETATM    9  C   UNL     1      27.526  44.887  54.063  1.00  0.00     0.036 A 
HETATM   10  C   UNL     1      28.549  44.020  54.454  1.00  0.00     0.053 A 
HETATM   11  C   UNL     1      29.558  44.471  55.306  1.00  0.00     0.036 A 
HETATM   12 CL   UNL     1      30.810  43.395  55.794  1.00  0.00    -0.084 Cl
HETATM   13  C   UNL     1      29.561  45.783  55.774  1.00  0.00     0.024 A 
HETATM   14  C   UNL     1      28.549  46.656  55.382  1.00  0.00     0.004 A 
HETATM   15  C   UNL     1      27.538  46.209  54.528  1.00  0.00     0.029 A 
ENDBRANCH   6   9
ENDBRANCH   3   5
ENDBRANCH   1   3
BRANCH   1  16
HETATM   16  N   UNL     1      23.969  45.555  50.697  1.00  0.00    -0.290 N 
HETATM   17  C   UNL     1      24.506  46.834  50.827  1.00  0.00     0.245 C 
HETATM   18  O   UNL     1      25.154  47.190  51.811  1.00  0.00    -0.271 OA
HETATM   19  H   UNL     1      23.188  45.438  50.053  1.00  0.00     0.183 HD
BRANCH  17  20
HETATM   20  C   UNL     1      24.151  47.773  49.674  1.00  0.00     0.196 C 
BRANCH  20  21
HETATM   21  N   UNL     1      22.712  47.654  49.385  1.00  0.00    -0.282 NA
HETATM   22  H   UNL     1      22.230  47.375  50.252  1.00  0.00     0.128 HD
BRANCH  21  23
HETATM   23  C   UNL     1      22.154  48.924  49.059  1.00  0.00     0.042 A 
HETATM   24  C   UNL     1      20.754  49.108  49.116  1.00  0.00     0.089 A 
HETATM   25  C   UNL     1      20.207  50.360  48.835  1.00  0.00     0.038 A 
HETATM   26  C   UNL     1      21.045  51.430  48.508  1.00  0.00     0.003 A 
HETATM   27  C   UNL     1      22.428  51.253  48.461  1.00  0.00     0.002 A 
HETATM   28  C   UNL     1      22.983  50.003  48.739  1.00  0.00     0.026 A 
BRANCH  24  29
HETATM   29  O   UNL     1      20.041  47.983  49.461  1.00  0.00    -0.354 OA
HETATM   30  C   UNL     1      18.815  48.184  50.151  1.00  0.00     0.210 C 
ENDBRANCH  24  29
ENDBRANCH  21  23
ENDBRANCH  20  21
ENDBRANCH  17  20
ENDBRANCH   1  16
TORSDOF 8
ENDMDL
MODEL 7
REMARK VINA RESULT:      -8.0      3.668      8.464
REMARK  8 active torsions:
REMARK  status: ('A' for Active; 'I' for Inactive)
REMARK    1  A    between atoms: C_2  and  N_3 
REMARK    2  A    between atoms: C_2  and  C_17 
REMARK    3  A    between atoms: N_3  and  N_4 
REMARK       I    between atoms: N_4  and  C_5 
REMARK    4  A    between atoms: C_5  and  C_6 
REMARK    5  A    between atoms: C_6  and  N_7 
REMARK    6  A    between atoms: N_7  and  C_8 
REMARK    7  A    between atoms: C_9  and  O_10 
REMARK       I    between atoms: C_17  and  N_18 
REMARK    8  A    between atoms: N_18  and  C_19 
ROOT
HETATM    1  N   UNL     1      24.391  44.700  51.793  1.00  0.00    -0.225 NA
HETATM    2  H   UNL     1      23.899  43.795  51.748  1.00  0.00     0.147 HD
ENDROOT
BRANCH   1   3
HETATM    3  C   UNL     1      24.394  45.236  50.396  1.00  0.00     0.165 C 
HETATM    4  C   UNL     1      23.175  44.688  49.660  1.00  0.00     0.038 C 
BRANCH   3   5
HETATM    5  C   UNL     1      24.341  46.775  50.388  1.00  0.00     0.241 C 
HETATM    6  N   UNL     1      23.633  47.283  49.313  1.00  0.00    -0.326 N 
HETATM    7  H   UNL     1      23.216  46.562  48.729  1.00  0.00     0.169 HD
HETATM    8  O   UNL     1      24.925  47.431  51.247  1.00  0.00    -0.271 OA
BRANCH   6   9
HETATM    9  C   UNL     1      23.314  48.622  49.033  1.00  0.00     0.036 A 
HETATM   10  C   UNL     1      22.104  49.225  49.386  1.00  0.00     0.053 A 
HETATM   11  C   UNL     1      21.861  50.555  49.038  1.00  0.00     0.036 A 
HETATM   12 CL   UNL     1      20.364  51.290  49.465  1.00  0.00    -0.084 Cl
HETATM   13  C   UNL     1      22.813  51.295  48.342  1.00  0.00     0.024 A 
HETATM   14  C   UNL     1      24.025  50.703  47.995  1.00  0.00     0.004 A 
HETATM   15  C   UNL     1      24.274  49.373  48.342  1.00  0.00     0.029 A 
ENDBRANCH   6   9
ENDBRANCH   3   5
ENDBRANCH   1   3
BRANCH   1  16
HETATM   16  N   UNL     1      25.716  44.404  52.232  1.00  0.00    -0.290 N 
HETATM   17  C   UNL     1      26.311  43.209  51.833  1.00  0.00     0.245 C 
HETATM   18  O   UNL     1      25.769  42.415  51.064  1.00  0.00    -0.271 OA
HETATM   19  H   UNL     1      26.049  44.827  53.097  1.00  0.00     0.183 HD
BRANCH  17  20
HETATM   20  C   UNL     1      27.663  42.941  52.496  1.00  0.00     0.196 C 
BRANCH  20  21
HETATM   21  N   UNL     1      27.485  42.932  53.958  1.00  0.00    -0.282 NA
HETATM   22  H   UNL     1      27.575  41.961  54.289  1.00  0.00     0.128 HD
BRANCH  21  23
HETATM   23  C   UNL     1      28.548  43.630  54.602  1.00  0.00     0.042 A 
HETATM   24  C   UNL     1      28.336  44.946  55.072  1.00  0.00     0.089 A 
HETATM   25  C   UNL     1      29.362  45.617  55.738  1.00  0.00     0.038 A 
HETATM   26  C   UNL     1      30.590  44.984  55.946  1.00  0.00     0.003 A 
HETATM   27  C   UNL     1      30.798  43.681  55.491  1.00  0.00     0.002 A 
HETATM   28  C   UNL     1      29.778  43.003  54.823  1.00  0.00     0.026 A 
BRANCH  24  29
HETATM   29  O   UNL     1      27.084  45.452  54.816  1.00  0.00    -0.354 OA
HETATM   30  C   UNL     1      26.993  46.848  54.563  1.00  0.00     0.210 C 
ENDBRANCH  24  29
ENDBRANCH  21  23
ENDBRANCH  20  21
ENDBRANCH  17  20
ENDBRANCH   1  16
TORSDOF 8
ENDMDL
MODEL 8
REMARK VINA RESULT:      -7.9      2.372      3.770
REMARK  8 active torsions:
REMARK  status: ('A' for Active; 'I' for Inactive)
REMARK    1  A    between atoms: C_2  and  N_3 
REMARK    2  A    between atoms: C_2  and  C_17 
REMARK    3  A    between atoms: N_3  and  N_4 
REMARK       I    between atoms: N_4  and  C_5 
REMARK    4  A    between atoms: C_5  and  C_6 
REMARK    5  A    between atoms: C_6  and  N_7 
REMARK    6  A    between atoms: N_7  and  C_8 
REMARK    7  A    between atoms: C_9  and  O_10 
REMARK       I    between atoms: C_17  and  N_18 
REMARK    8  A    between atoms: N_18  and  C_19 
ROOT
HETATM    1  N   UNL     1      22.996  43.395  50.732  1.00  0.00    -0.225 NA
HETATM    2  H   UNL     1      22.780  43.589  51.722  1.00  0.00     0.147 HD
ENDROOT
BRANCH   1   3
HETATM    3  C   UNL     1      24.294  42.651  50.734  1.00  0.00     0.165 C 
HETATM    4  C   UNL     1      24.593  42.186  49.312  1.00  0.00     0.038 C 
BRANCH   3   5
HETATM    5  C   UNL     1      25.449  43.543  51.229  1.00  0.00     0.241 C 
HETATM    6  N   UNL     1      25.722  43.372  52.575  1.00  0.00    -0.326 N 
HETATM    7  H   UNL     1      25.154  42.649  53.011  1.00  0.00     0.169 HD
HETATM    8  O   UNL     1      26.001  44.338  50.473  1.00  0.00    -0.271 OA
BRANCH   6   9
HETATM    9  C   UNL     1      26.748  43.952  53.337  1.00  0.00     0.036 A 
HETATM   10  C   UNL     1      27.969  43.328  53.604  1.00  0.00     0.053 A 
HETATM   11  C   UNL     1      28.921  43.968  54.399  1.00  0.00     0.036 A 
HETATM   12 CL   UNL     1      30.419  43.190  54.734  1.00  0.00    -0.084 Cl
HETATM   13  C   UNL     1      28.670  45.231  54.933  1.00  0.00     0.024 A 
HETATM   14  C   UNL     1      27.459  45.863  54.664  1.00  0.00     0.004 A 
HETATM   15  C   UNL     1      26.504  45.226  53.867  1.00  0.00     0.029 A 
ENDBRANCH   6   9
ENDBRANCH   3   5
ENDBRANCH   1   3
BRANCH   1  16
HETATM   16  N   UNL     1      23.137  44.669  50.105  1.00  0.00    -0.290 N 
HETATM   17  C   UNL     1      22.267  45.018  49.074  1.00  0.00     0.245 C 
HETATM   18  O   UNL     1      21.335  44.300  48.714  1.00  0.00    -0.271 OA
HETATM   19  H   UNL     1      24.050  45.121  50.119  1.00  0.00     0.183 HD
BRANCH  17  20
HETATM   20  C   UNL     1      22.622  46.336  48.384  1.00  0.00     0.196 C 
BRANCH  20  21
HETATM   21  N   UNL     1      23.051  47.308  49.404  1.00  0.00    -0.282 NA
HETATM   22  H   UNL     1      24.068  47.443  49.315  1.00  0.00     0.128 HD
BRANCH  21  23
HETATM   23  C   UNL     1      22.495  48.594  49.142  1.00  0.00     0.042 A 
HETATM   24  C   UNL     1      23.351  49.712  49.014  1.00  0.00     0.089 A 
HETATM   25  C   UNL     1      22.814  50.965  48.719  1.00  0.00     0.038 A 
HETATM   26  C   UNL     1      21.435  51.109  48.542  1.00  0.00     0.003 A 
HETATM   27  C   UNL     1      20.590  50.005  48.658  1.00  0.00     0.002 A 
HETATM   28  C   UNL     1      21.119  48.748  48.954  1.00  0.00     0.026 A 
BRANCH  24  29
HETATM   29  O   UNL     1      24.685  49.437  49.199  1.00  0.00    -0.354 OA
HETATM   30  C   UNL     1      25.573  49.824  48.158  1.00  0.00     0.210 C 
ENDBRANCH  24  29
ENDBRANCH  21  23
ENDBRANCH  20  21
ENDBRANCH  17  20
ENDBRANCH   1  16
TORSDOF 8
ENDMDL
MODEL 9
REMARK VINA RESULT:      -7.7      4.222      9.446
REMARK  8 active torsions:
REMARK  status: ('A' for Active; 'I' for Inactive)
REMARK    1  A    between atoms: C_2  and  N_3 
REMARK    2  A    between atoms: C_2  and  C_17 
REMARK    3  A    between atoms: N_3  and  N_4 
REMARK       I    between atoms: N_4  and  C_5 
REMARK    4  A    between atoms: C_5  and  C_6 
REMARK    5  A    between atoms: C_6  and  N_7 
REMARK    6  A    between atoms: N_7  and  C_8 
REMARK    7  A    between atoms: C_9  and  O_10 
REMARK       I    between atoms: C_17  and  N_18 
REMARK    8  A    between atoms: N_18  and  C_19 
ROOT
HETATM    1  N   UNL     1      24.351  46.163  49.716  1.00  0.00    -0.225 NA
HETATM    2  H   UNL     1      24.538  46.088  48.704  1.00  0.00     0.147 HD
ENDROOT
BRANCH   1   3
HETATM    3  C   UNL     1      24.519  47.611  50.058  1.00  0.00     0.165 C 
HETATM    4  C   UNL     1      25.993  47.979  49.915  1.00  0.00     0.038 C 
BRANCH   3   5
HETATM    5  C   UNL     1      23.681  48.506  49.125  1.00  0.00     0.241 C 
HETATM    6  N   UNL     1      22.377  48.668  49.564  1.00  0.00    -0.326 N 
HETATM    7  H   UNL     1      22.195  48.216  50.457  1.00  0.00     0.169 HD
HETATM    8  O   UNL     1      24.159  48.961  48.090  1.00  0.00    -0.271 OA
BRANCH   6   9
HETATM    9  C   UNL     1      21.367  49.473  49.015  1.00  0.00     0.036 A 
HETATM   10  C   UNL     1      20.616  49.123  47.891  1.00  0.00     0.053 A 
HETATM   11  C   UNL     1      19.652  50.002  47.394  1.00  0.00     0.036 A 
HETATM   12 CL   UNL     1      18.736  49.569  46.002  1.00  0.00    -0.084 Cl
HETATM   13  C   UNL     1      19.424  51.231  48.009  1.00  0.00     0.024 A 
HETATM   14  C   UNL     1      20.164  51.584  49.135  1.00  0.00     0.004 A 
HETATM   15  C   UNL     1      21.129  50.707  49.637  1.00  0.00     0.029 A 
ENDBRANCH   6   9
ENDBRANCH   3   5
ENDBRANCH   1   3
BRANCH   1  16
HETATM   16  N   UNL     1      25.345  45.366  50.358  1.00  0.00    -0.290 N 
HETATM   17  C   UNL     1      24.966  44.512  51.391  1.00  0.00     0.245 C 
HETATM   18  O   UNL     1      23.796  44.363  51.741  1.00  0.00    -0.271 OA
HETATM   19  H   UNL     1      26.310  45.691  50.350  1.00  0.00     0.183 HD
BRANCH  17  20
HETATM   20  C   UNL     1      26.142  43.835  52.097  1.00  0.00     0.196 C 
BRANCH  20  21
HETATM   21  N   UNL     1      27.048  44.874  52.616  1.00  0.00    -0.282 NA
HETATM   22  H   UNL     1      26.584  45.342  53.407  1.00  0.00     0.128 HD
BRANCH  21  23
HETATM   23  C   UNL     1      28.218  44.288  53.183  1.00  0.00     0.042 A 
HETATM   24  C   UNL     1      28.652  44.696  54.465  1.00  0.00     0.089 A 
HETATM   25  C   UNL     1      29.773  44.097  55.039  1.00  0.00     0.038 A 
HETATM   26  C   UNL     1      30.456  43.090  54.351  1.00  0.00     0.003 A 
HETATM   27  C   UNL     1      30.023  42.679  53.090  1.00  0.00     0.002 A 
HETATM   28  C   UNL     1      28.903  43.274  52.508  1.00  0.00     0.026 A 
BRANCH  24  29
HETATM   29  O   UNL     1      27.890  45.685  55.041  1.00  0.00    -0.354 OA
HETATM   30  C   UNL     1      28.328  46.185  56.298  1.00  0.00     0.210 C 
ENDBRANCH  24  29
ENDBRANCH  21  23
ENDBRANCH  20  21
ENDBRANCH  17  20
ENDBRANCH   1  16
TORSDOF 8
ENDMDL
MODEL 10
REMARK VINA RESULT:      -7.7      2.435      3.435
REMARK  8 active torsions:
REMARK  status: ('A' for Active; 'I' for Inactive)
REMARK    1  A    between atoms: C_2  and  N_3 
REMARK    2  A    between atoms: C_2  and  C_17 
REMARK    3  A    between atoms: N_3  and  N_4 
REMARK       I    between atoms: N_4  and  C_5 
REMARK    4  A    between atoms: C_5  and  C_6 
REMARK    5  A    between atoms: C_6  and  N_7 
REMARK    6  A    between atoms: N_7  and  C_8 
REMARK    7  A    between atoms: C_9  and  O_10 
REMARK       I    between atoms: C_17  and  N_18 
REMARK    8  A    between atoms: N_18  and  C_19 
ROOT
HETATM    1  N   UNL     1      23.109  43.247  50.768  1.00  0.00    -0.225 NA
HETATM    2  H   UNL     1      22.884  43.383  51.766  1.00  0.00     0.147 HD
ENDROOT
BRANCH   1   3
HETATM    3  C   UNL     1      24.438  42.558  50.738  1.00  0.00     0.165 C 
HETATM    4  C   UNL     1      24.727  42.118  49.306  1.00  0.00     0.038 C 
BRANCH   3   5
HETATM    5  C   UNL     1      25.563  43.495  51.217  1.00  0.00     0.241 C 
HETATM    6  N   UNL     1      25.850  43.344  52.564  1.00  0.00    -0.326 N 
HETATM    7  H   UNL     1      25.312  42.605  53.009  1.00  0.00     0.169 HD
HETATM    8  O   UNL     1      26.082  44.302  50.452  1.00  0.00    -0.271 OA
BRANCH   6   9
HETATM    9  C   UNL     1      26.861  43.967  53.314  1.00  0.00     0.036 A 
HETATM   10  C   UNL     1      28.089  43.372  53.611  1.00  0.00     0.053 A 
HETATM   11  C   UNL     1      29.023  44.055  54.392  1.00  0.00     0.036 A 
HETATM   12 CL   UNL     1      30.531  43.313  54.766  1.00  0.00    -0.084 Cl
HETATM   13  C   UNL     1      28.747  45.330  54.881  1.00  0.00     0.024 A 
HETATM   14  C   UNL     1      27.528  45.932  54.582  1.00  0.00     0.004 A 
HETATM   15  C   UNL     1      26.591  45.254  53.799  1.00  0.00     0.029 A 
ENDBRANCH   6   9
ENDBRANCH   3   5
ENDBRANCH   1   3
BRANCH   1  16
HETATM   16  N   UNL     1      23.197  44.554  50.204  1.00  0.00    -0.290 N 
HETATM   17  C   UNL     1      22.408  44.871  49.100  1.00  0.00     0.245 C 
HETATM   18  O   UNL     1      21.587  44.091  48.619  1.00  0.00    -0.271 OA
HETATM   19  H   UNL     1      24.058  45.083  50.331  1.00  0.00     0.183 HD
BRANCH  17  20
HETATM   20  C   UNL     1      22.710  46.244  48.498  1.00  0.00     0.196 C 
BRANCH  20  21
HETATM   21  N   UNL     1      22.738  47.244  49.579  1.00  0.00    -0.282 NA
HETATM   22  H   UNL     1      23.612  47.122  50.111  1.00  0.00     0.128 HD
BRANCH  21  23
HETATM   23  C   UNL     1      22.824  48.563  49.047  1.00  0.00     0.042 A 
HETATM   24  C   UNL     1      21.683  49.396  49.057  1.00  0.00     0.089 A 
HETATM   25  C   UNL     1      21.774  50.701  48.573  1.00  0.00     0.038 A 
HETATM   26  C   UNL     1      22.994  51.183  48.090  1.00  0.00     0.003 A 
HETATM   27  C   UNL     1      24.124  50.365  48.089  1.00  0.00     0.002 A 
HETATM   28  C   UNL     1      24.042  49.058  48.571  1.00  0.00     0.026 A 
BRANCH  24  29
HETATM   29  O   UNL     1      20.548  48.810  49.567  1.00  0.00    -0.354 OA
HETATM   30  C   UNL     1      19.410  49.646  49.731  1.00  0.00     0.210 C 
ENDBRANCH  24  29
ENDBRANCH  21  23
ENDBRANCH  20  21
ENDBRANCH  17  20
ENDBRANCH   1  16
TORSDOF 8
ENDMDL
