MODEL 1
REMARK VINA RESULT:      -7.6      0.000      0.000
REMARK  10 active torsions:
REMARK  status: ('A' for Active; 'I' for Inactive)
REMARK    1  A    between atoms: C_3  and  C_4 
REMARK    2  A    between atoms: C_4  and  C_5 
REMARK       I    between atoms: C_5  and  N_6 
REMARK    3  A    between atoms: N_6  and  C_7 
REMARK    4  A    between atoms: C_7  and  C_8 
REMARK    5  A    between atoms: C_18  and  N_19 
REMARK    6  A    between atoms: N_19  and  C_20 
REMARK    7  A    between atoms: C_20  and  C_21 
REMARK    8  A    between atoms: C_26  and  C_27 
REMARK    9  A    between atoms: C_27  and  O_28 
REMARK   10  A    between atoms: C_30  and  O_31 
ROOT
HETATM    1  C   UNL     1      19.379  50.726  46.086  1.00  0.00     0.016 C 
HETATM    2  C   UNL     1      18.285  49.715  46.582  1.00  0.00    -0.030 C 
HETATM    3  C   UNL     1      18.155  49.996  48.162  1.00  0.00     0.056 C 
HETATM    4  C   UNL     1      17.115  51.056  48.430  1.00  0.00     0.056 A 
HETATM    5  C   UNL     1      16.316  51.638  47.475  1.00  0.00     0.012 A 
HETATM    6  S   UNL     1      15.285  52.793  48.182  1.00  0.00    -0.055 SA
HETATM    7  C   UNL     1      16.022  52.502  49.712  1.00  0.00     0.167 A 
HETATM    8  N   UNL     1      16.950  51.573  49.700  1.00  0.00    -0.228 NA
HETATM    9  C   UNL     1      16.341  51.373  46.018  1.00  0.00     0.055 C 
HETATM   10  C   UNL     1      16.975  49.993  45.707  1.00  0.00     0.012 C 
HETATM   11  C   UNL     1      15.922  48.817  45.574  1.00  0.00     0.008 C 
HETATM   12  C   UNL     1      14.994  49.094  44.350  1.00  0.00     0.020 C 
HETATM   13  C   UNL     1      16.677  47.492  45.255  1.00  0.00     0.128 C 
HETATM   14  C   UNL     1      17.820  47.193  46.215  1.00  0.00     0.033 C 
HETATM   15  C   UNL     1      18.847  48.314  46.229  1.00  0.00     0.013 C 
ENDROOT
BRANCH   3  16
HETATM   16  C   UNL     1      18.002  48.763  49.074  1.00  0.00     0.114 C 
BRANCH  16  17
HETATM   17  C   UNL     1      18.902  48.779  50.297  1.00  0.00     0.218 C 
HETATM   18  N   UNL     1      20.243  48.566  50.153  1.00  0.00    -0.357 N 
HETATM   19  H   UNL     1      20.755  48.724  51.009  1.00  0.00     0.162 HD
HETATM   20  O   UNL     1      18.454  49.053  51.411  1.00  0.00    -0.274 OA
BRANCH  18  21
HETATM   21  C   UNL     1      20.962  48.232  48.939  1.00  0.00     0.162 C 
BRANCH  21  22
HETATM   22  C   UNL     1      22.323  48.849  48.781  1.00  0.00    -0.023 A 
HETATM   23  C   UNL     1      23.472  48.410  49.429  1.00  0.00     0.125 A 
HETATM   24  N   UNL     1      24.703  48.955  49.267  1.00  0.00    -0.273 NA
HETATM   25  C   UNL     1      24.802  49.985  48.402  1.00  0.00     0.116 A 
HETATM   26  C   UNL     1      23.728  50.502  47.700  1.00  0.00     0.020 A 
HETATM   27  C   UNL     1      22.476  49.927  47.897  1.00  0.00     0.012 A 
ENDBRANCH  21  22
ENDBRANCH  18  21
ENDBRANCH  16  17
ENDBRANCH   3  16
BRANCH  11  28
HETATM   28  C   UNL     1      14.992  48.683  46.807  1.00  0.00     0.176 C 
BRANCH  28  29
HETATM   29  O   UNL     1      13.854  47.859  46.566  1.00  0.00    -0.400 OA
HETATM   30  H   UNL     1      14.195  46.947  46.439  1.00  0.00     0.209 HD
ENDBRANCH  28  29
ENDBRANCH  11  28
BRANCH   7  31
HETATM   31  N   UNL     1      15.622  53.208  50.789  1.00  0.00    -0.366 N 
HETATM   32  H   UNL     1      15.944  52.920  51.703  1.00  0.00     0.162 HD
BRANCH  31  33
HETATM   33  C   UNL     1      14.373  53.931  50.776  1.00  0.00     0.148 C 
BRANCH  33  34
HETATM   34  C   UNL     1      14.576  55.393  51.078  1.00  0.00    -0.018 C 
HETATM   35  C   UNL     1      15.202  56.324  50.343  1.00  0.00     0.008 C 
ENDBRANCH  33  34
ENDBRANCH  31  33
ENDBRANCH   7  31
BRANCH  13  36
HETATM   36  O   UNL     1      15.778  46.380  45.274  1.00  0.00    -0.395 OA
HETATM   37  H   UNL     1      15.460  46.280  46.191  1.00  0.00     0.210 HD
ENDBRANCH  13  36
TORSDOF 10
ENDMDL
MODEL 2
REMARK VINA RESULT:      -7.4      3.601      6.628
REMARK  10 active torsions:
REMARK  status: ('A' for Active; 'I' for Inactive)
REMARK    1  A    between atoms: C_3  and  C_4 
REMARK    2  A    between atoms: C_4  and  C_5 
REMARK       I    between atoms: C_5  and  N_6 
REMARK    3  A    between atoms: N_6  and  C_7 
REMARK    4  A    between atoms: C_7  and  C_8 
REMARK    5  A    between atoms: C_18  and  N_19 
REMARK    6  A    between atoms: N_19  and  C_20 
REMARK    7  A    between atoms: C_20  and  C_21 
REMARK    8  A    between atoms: C_26  and  C_27 
REMARK    9  A    between atoms: C_27  and  O_28 
REMARK   10  A    between atoms: C_30  and  O_31 
ROOT
HETATM    1  C   UNL     1      18.665  48.928  51.268  1.00  0.00     0.016 C 
HETATM    2  C   UNL     1      19.017  49.465  49.836  1.00  0.00    -0.030 C 
HETATM    3  C   UNL     1      20.317  48.623  49.393  1.00  0.00     0.056 C 
HETATM    4  C   UNL     1      19.914  47.357  48.679  1.00  0.00     0.056 A 
HETATM    5  C   UNL     1      18.624  47.007  48.361  1.00  0.00     0.012 A 
HETATM    6  S   UNL     1      18.591  45.499  47.571  1.00  0.00    -0.055 SA
HETATM    7  C   UNL     1      20.298  45.368  47.770  1.00  0.00     0.167 A 
HETATM    8  N   UNL     1      20.858  46.402  48.354  1.00  0.00    -0.228 NA
HETATM    9  C   UNL     1      17.394  47.769  48.680  1.00  0.00     0.055 C 
HETATM   10  C   UNL     1      17.710  49.265  48.937  1.00  0.00     0.012 C 
HETATM   11  C   UNL     1      17.557  50.183  47.655  1.00  0.00     0.008 C 
HETATM   12  C   UNL     1      16.065  50.182  47.197  1.00  0.00     0.020 C 
HETATM   13  C   UNL     1      17.891  51.655  48.041  1.00  0.00     0.128 C 
HETATM   14  C   UNL     1      19.224  51.812  48.758  1.00  0.00     0.033 C 
HETATM   15  C   UNL     1      19.277  50.981  50.030  1.00  0.00     0.013 C 
ENDROOT
BRANCH   3  16
HETATM   16  C   UNL     1      21.425  49.400  48.654  1.00  0.00     0.114 C 
BRANCH  16  17
HETATM   17  C   UNL     1      22.599  49.795  49.534  1.00  0.00     0.218 C 
HETATM   18  N   UNL     1      23.623  48.915  49.731  1.00  0.00    -0.357 N 
HETATM   19  H   UNL     1      24.401  49.328  50.225  1.00  0.00     0.162 HD
HETATM   20  O   UNL     1      22.678  50.926  50.016  1.00  0.00    -0.274 OA
BRANCH  18  21
HETATM   21  C   UNL     1      23.722  47.549  49.255  1.00  0.00     0.162 C 
BRANCH  21  22
HETATM   22  C   UNL     1      24.707  46.665  49.967  1.00  0.00    -0.023 A 
HETATM   23  C   UNL     1      25.394  45.609  49.377  1.00  0.00     0.125 A 
HETATM   24  N   UNL     1      26.298  44.827  50.017  1.00  0.00    -0.273 NA
HETATM   25  C   UNL     1      26.546  45.119  51.310  1.00  0.00     0.116 A 
HETATM   26  C   UNL     1      25.927  46.147  51.996  1.00  0.00     0.020 A 
HETATM   27  C   UNL     1      24.995  46.924  51.314  1.00  0.00     0.012 A 
ENDBRANCH  21  22
ENDBRANCH  18  21
ENDBRANCH  16  17
ENDBRANCH   3  16
BRANCH  11  28
HETATM   28  C   UNL     1      18.388  49.689  46.443  1.00  0.00     0.176 C 
BRANCH  28  29
HETATM   29  O   UNL     1      17.900  50.171  45.194  1.00  0.00    -0.400 OA
HETATM   30  H   UNL     1      17.668  49.378  44.663  1.00  0.00     0.209 HD
ENDBRANCH  28  29
ENDBRANCH  11  28
BRANCH   7  31
HETATM   31  N   UNL     1      20.936  44.264  47.334  1.00  0.00    -0.366 N 
HETATM   32  H   UNL     1      20.408  43.408  47.232  1.00  0.00     0.162 HD
BRANCH  31  33
HETATM   33  C   UNL     1      22.352  44.091  47.559  1.00  0.00     0.148 C 
BRANCH  33  34
HETATM   34  C   UNL     1      22.621  43.093  48.654  1.00  0.00    -0.018 C 
HETATM   35  C   UNL     1      22.782  43.310  49.968  1.00  0.00     0.008 C 
ENDBRANCH  33  34
ENDBRANCH  31  33
ENDBRANCH   7  31
BRANCH  13  36
HETATM   36  O   UNL     1      17.910  52.491  46.881  1.00  0.00    -0.395 OA
HETATM   37  H   UNL     1      17.361  53.274  47.079  1.00  0.00     0.210 HD
ENDBRANCH  13  36
TORSDOF 10
ENDMDL
MODEL 3
REMARK VINA RESULT:      -7.3      3.815      6.678
REMARK  10 active torsions:
REMARK  status: ('A' for Active; 'I' for Inactive)
REMARK    1  A    between atoms: C_3  and  C_4 
REMARK    2  A    between atoms: C_4  and  C_5 
REMARK       I    between atoms: C_5  and  N_6 
REMARK    3  A    between atoms: N_6  and  C_7 
REMARK    4  A    between atoms: C_7  and  C_8 
REMARK    5  A    between atoms: C_18  and  N_19 
REMARK    6  A    between atoms: N_19  and  C_20 
REMARK    7  A    between atoms: C_20  and  C_21 
REMARK    8  A    between atoms: C_26  and  C_27 
REMARK    9  A    between atoms: C_27  and  O_28 
REMARK   10  A    between atoms: C_30  and  O_31 
ROOT
HETATM    1  C   UNL     1      19.733  47.101  45.120  1.00  0.00     0.016 C 
HETATM    2  C   UNL     1      19.432  46.957  46.654  1.00  0.00    -0.030 C 
HETATM    3  C   UNL     1      20.850  46.567  47.313  1.00  0.00     0.056 C 
HETATM    4  C   UNL     1      21.611  47.808  47.708  1.00  0.00     0.056 A 
HETATM    5  C   UNL     1      21.133  49.092  47.613  1.00  0.00     0.012 A 
HETATM    6  S   UNL     1      22.302  50.208  48.150  1.00  0.00    -0.055 SA
HETATM    7  C   UNL     1      23.408  48.911  48.405  1.00  0.00     0.167 A 
HETATM    8  N   UNL     1      22.920  47.721  48.143  1.00  0.00    -0.228 NA
HETATM    9  C   UNL     1      19.815  49.510  47.081  1.00  0.00     0.055 C 
HETATM   10  C   UNL     1      18.794  48.345  47.128  1.00  0.00     0.012 C 
HETATM   11  C   UNL     1      17.897  48.328  48.434  1.00  0.00     0.008 C 
HETATM   12  C   UNL     1      17.011  49.612  48.466  1.00  0.00     0.020 C 
HETATM   13  C   UNL     1      16.912  47.123  48.360  1.00  0.00     0.128 C 
HETATM   14  C   UNL     1      17.593  45.795  48.060  1.00  0.00     0.033 C 
HETATM   15  C   UNL     1      18.359  45.842  46.748  1.00  0.00     0.013 C 
ENDROOT
BRANCH   3  16
HETATM   16  C   UNL     1      20.826  45.500  48.424  1.00  0.00     0.114 C 
BRANCH  16  17
HETATM   17  C   UNL     1      21.630  44.252  48.103  1.00  0.00     0.218 C 
HETATM   18  N   UNL     1      22.651  43.875  48.926  1.00  0.00    -0.357 N 
HETATM   19  H   UNL     1      23.029  42.970  48.687  1.00  0.00     0.162 HD
HETATM   20  O   UNL     1      21.330  43.531  47.150  1.00  0.00    -0.274 OA
BRANCH  18  21
HETATM   21  C   UNL     1      23.157  44.577  50.089  1.00  0.00     0.162 C 
BRANCH  21  22
HETATM   22  C   UNL     1      24.633  44.461  50.349  1.00  0.00    -0.023 A 
HETATM   23  C   UNL     1      25.210  43.591  51.267  1.00  0.00     0.125 A 
HETATM   24  N   UNL     1      26.543  43.474  51.482  1.00  0.00    -0.273 NA
HETATM   25  C   UNL     1      27.350  44.253  50.734  1.00  0.00     0.116 A 
HETATM   26  C   UNL     1      26.888  45.150  49.789  1.00  0.00     0.020 A 
HETATM   27  C   UNL     1      25.513  45.254  49.599  1.00  0.00     0.012 A 
ENDBRANCH  21  22
ENDBRANCH  18  21
ENDBRANCH  16  17
ENDBRANCH   3  16
BRANCH  11  28
HETATM   28  C   UNL     1      18.723  48.334  49.746  1.00  0.00     0.176 C 
BRANCH  28  29
HETATM   29  O   UNL     1      18.493  49.488  50.550  1.00  0.00    -0.400 OA
HETATM   30  H   UNL     1      18.891  49.297  51.428  1.00  0.00     0.209 HD
ENDBRANCH  28  29
ENDBRANCH  11  28
BRANCH   7  31
HETATM   31  N   UNL     1      24.656  49.176  48.842  1.00  0.00    -0.366 N 
HETATM   32  H   UNL     1      24.821  49.214  49.838  1.00  0.00     0.162 HD
BRANCH  31  33
HETATM   33  C   UNL     1      25.573  49.947  48.036  1.00  0.00     0.148 C 
BRANCH  33  34
HETATM   34  C   UNL     1      26.982  49.855  48.559  1.00  0.00    -0.018 C 
HETATM   35  C   UNL     1      27.614  48.800  49.094  1.00  0.00     0.008 C 
ENDBRANCH  33  34
ENDBRANCH  31  33
ENDBRANCH   7  31
BRANCH  13  36
HETATM   36  O   UNL     1      16.188  46.984  49.585  1.00  0.00    -0.395 OA
HETATM   37  H   UNL     1      16.600  47.583  50.235  1.00  0.00     0.210 HD
ENDBRANCH  13  36
TORSDOF 10
ENDMDL
MODEL 4
REMARK VINA RESULT:      -7.0      3.259      6.015
REMARK  10 active torsions:
REMARK  status: ('A' for Active; 'I' for Inactive)
REMARK    1  A    between atoms: C_3  and  C_4 
REMARK    2  A    between atoms: C_4  and  C_5 
REMARK       I    between atoms: C_5  and  N_6 
REMARK    3  A    between atoms: N_6  and  C_7 
REMARK    4  A    between atoms: C_7  and  C_8 
REMARK    5  A    between atoms: C_18  and  N_19 
REMARK    6  A    between atoms: N_19  and  C_20 
REMARK    7  A    between atoms: C_20  and  C_21 
REMARK    8  A    between atoms: C_26  and  C_27 
REMARK    9  A    between atoms: C_27  and  O_28 
REMARK   10  A    between atoms: C_30  and  O_31 
ROOT
HETATM    1  C   UNL     1      16.738  46.926  48.872  1.00  0.00     0.016 C 
HETATM    2  C   UNL     1      17.642  48.188  48.643  1.00  0.00    -0.030 C 
HETATM    3  C   UNL     1      18.720  47.723  47.540  1.00  0.00     0.056 C 
HETATM    4  C   UNL     1      18.208  47.995  46.148  1.00  0.00     0.056 A 
HETATM    5  C   UNL     1      17.029  48.637  45.851  1.00  0.00     0.012 A 
HETATM    6  S   UNL     1      16.809  48.735  44.166  1.00  0.00    -0.055 SA
HETATM    7  C   UNL     1      18.266  47.844  43.933  1.00  0.00     0.167 A 
HETATM    8  N   UNL     1      18.894  47.530  45.043  1.00  0.00    -0.228 NA
HETATM    9  C   UNL     1      16.030  49.147  46.818  1.00  0.00     0.055 C 
HETATM   10  C   UNL     1      16.665  49.379  48.214  1.00  0.00     0.012 C 
HETATM   11  C   UNL     1      17.171  50.862  48.451  1.00  0.00     0.008 C 
HETATM   12  C   UNL     1      15.950  51.833  48.422  1.00  0.00     0.020 C 
HETATM   13  C   UNL     1      17.777  50.969  49.882  1.00  0.00     0.128 C 
HETATM   14  C   UNL     1      18.821  49.903  50.186  1.00  0.00     0.033 C 
HETATM   15  C   UNL     1      18.250  48.502  50.034  1.00  0.00     0.013 C 
ENDROOT
BRANCH   3  16
HETATM   16  C   UNL     1      20.171  48.200  47.748  1.00  0.00     0.114 C 
BRANCH  16  17
HETATM   17  C   UNL     1      21.067  47.182  48.430  1.00  0.00     0.218 C 
HETATM   18  N   UNL     1      22.175  47.602  49.109  1.00  0.00    -0.357 N 
HETATM   19  H   UNL     1      22.621  46.857  49.624  1.00  0.00     0.162 HD
HETATM   20  O   UNL     1      20.773  45.985  48.443  1.00  0.00    -0.274 OA
BRANCH  18  21
HETATM   21  C   UNL     1      22.689  48.953  49.214  1.00  0.00     0.162 C 
BRANCH  21  22
HETATM   22  C   UNL     1      24.142  49.141  48.875  1.00  0.00    -0.023 A 
HETATM   23  C   UNL     1      24.624  50.041  47.931  1.00  0.00     0.125 A 
HETATM   24  N   UNL     1      25.937  50.223  47.644  1.00  0.00    -0.273 NA
HETATM   25  C   UNL     1      26.820  49.481  48.342  1.00  0.00     0.116 A 
HETATM   26  C   UNL     1      26.455  48.561  49.307  1.00  0.00     0.020 A 
HETATM   27  C   UNL     1      25.099  48.389  49.571  1.00  0.00     0.012 A 
ENDBRANCH  21  22
ENDBRANCH  18  21
ENDBRANCH  16  17
ENDBRANCH   3  16
BRANCH  11  28
HETATM   28  C   UNL     1      18.152  51.358  47.357  1.00  0.00     0.176 C 
BRANCH  28  29
HETATM   29  O   UNL     1      18.039  52.753  47.093  1.00  0.00    -0.400 OA
HETATM   30  H   UNL     1      18.752  52.972  46.453  1.00  0.00     0.209 HD
ENDBRANCH  28  29
ENDBRANCH  11  28
BRANCH   7  31
HETATM   31  N   UNL     1      18.665  47.535  42.683  1.00  0.00    -0.366 N 
HETATM   32  H   UNL     1      18.452  48.180  41.934  1.00  0.00     0.162 HD
BRANCH  31  33
HETATM   33  C   UNL     1      18.837  46.159  42.281  1.00  0.00     0.148 C 
BRANCH  33  34
HETATM   34  C   UNL     1      17.548  45.387  42.383  1.00  0.00    -0.018 C 
HETATM   35  C   UNL     1      17.243  44.364  43.195  1.00  0.00     0.008 C 
ENDBRANCH  33  34
ENDBRANCH  31  33
ENDBRANCH   7  31
BRANCH  13  36
HETATM   36  O   UNL     1      18.380  52.250  50.082  1.00  0.00    -0.395 OA
HETATM   37  H   UNL     1      19.232  52.102  50.535  1.00  0.00     0.210 HD
ENDBRANCH  13  36
TORSDOF 10
ENDMDL
MODEL 5
REMARK VINA RESULT:      -6.9      3.175      5.574
REMARK  10 active torsions:
REMARK  status: ('A' for Active; 'I' for Inactive)
REMARK    1  A    between atoms: C_3  and  C_4 
REMARK    2  A    between atoms: C_4  and  C_5 
REMARK       I    between atoms: C_5  and  N_6 
REMARK    3  A    between atoms: N_6  and  C_7 
REMARK    4  A    between atoms: C_7  and  C_8 
REMARK    5  A    between atoms: C_18  and  N_19 
REMARK    6  A    between atoms: N_19  and  C_20 
REMARK    7  A    between atoms: C_20  and  C_21 
REMARK    8  A    between atoms: C_26  and  C_27 
REMARK    9  A    between atoms: C_27  and  O_28 
REMARK   10  A    between atoms: C_30  and  O_31 
ROOT
HETATM    1  C   UNL     1      16.855  46.949  48.691  1.00  0.00     0.016 C 
HETATM    2  C   UNL     1      17.721  48.241  48.477  1.00  0.00    -0.030 C 
HETATM    3  C   UNL     1      18.625  47.916  47.185  1.00  0.00     0.056 C 
HETATM    4  C   UNL     1      17.917  48.336  45.921  1.00  0.00     0.056 A 
HETATM    5  C   UNL     1      16.710  48.992  45.873  1.00  0.00     0.012 A 
HETATM    6  S   UNL     1      16.247  49.276  44.259  1.00  0.00    -0.055 SA
HETATM    7  C   UNL     1      17.651  48.435  43.718  1.00  0.00     0.167 A 
HETATM    8  N   UNL     1      18.433  48.007  44.682  1.00  0.00    -0.228 NA
HETATM    9  C   UNL     1      15.865  49.378  47.026  1.00  0.00     0.055 C 
HETATM   10  C   UNL     1      16.697  49.460  48.332  1.00  0.00     0.012 C 
HETATM   11  C   UNL     1      17.239  50.913  48.659  1.00  0.00     0.008 C 
HETATM   12  C   UNL     1      16.030  51.866  48.917  1.00  0.00     0.020 C 
HETATM   13  C   UNL     1      18.047  50.867  49.990  1.00  0.00     0.128 C 
HETATM   14  C   UNL     1      19.119  49.786  50.017  1.00  0.00     0.033 C 
HETATM   15  C   UNL     1      18.527  48.404  49.792  1.00  0.00     0.013 C 
ENDROOT
BRANCH   3  16
HETATM   16  C   UNL     1      20.093  48.384  47.232  1.00  0.00     0.114 C 
BRANCH  16  17
HETATM   17  C   UNL     1      21.101  47.255  47.361  1.00  0.00     0.218 C 
HETATM   18  N   UNL     1      22.236  47.442  48.096  1.00  0.00    -0.357 N 
HETATM   19  H   UNL     1      22.766  46.591  48.216  1.00  0.00     0.162 HD
HETATM   20  O   UNL     1      20.878  46.147  46.872  1.00  0.00    -0.274 OA
BRANCH  18  21
HETATM   21  C   UNL     1      22.679  48.659  48.747  1.00  0.00     0.162 C 
BRANCH  21  22
HETATM   22  C   UNL     1      24.164  48.884  48.799  1.00  0.00    -0.023 A 
HETATM   23  C   UNL     1      25.057  48.110  49.533  1.00  0.00     0.125 A 
HETATM   24  N   UNL     1      26.399  48.303  49.561  1.00  0.00    -0.273 NA
HETATM   25  C   UNL     1      26.883  49.310  48.807  1.00  0.00     0.116 A 
HETATM   26  C   UNL     1      26.091  50.140  48.035  1.00  0.00     0.020 A 
HETATM   27  C   UNL     1      24.716  49.923  48.037  1.00  0.00     0.012 A 
ENDBRANCH  21  22
ENDBRANCH  18  21
ENDBRANCH  16  17
ENDBRANCH   3  16
BRANCH  11  28
HETATM   28  C   UNL     1      18.052  51.541  47.497  1.00  0.00     0.176 C 
BRANCH  28  29
HETATM   29  O   UNL     1      18.297  52.933  47.673  1.00  0.00    -0.400 OA
HETATM   30  H   UNL     1      19.267  53.057  47.575  1.00  0.00     0.209 HD
ENDBRANCH  28  29
ENDBRANCH  11  28
BRANCH   7  31
HETATM   31  N   UNL     1      17.863  48.274  42.397  1.00  0.00    -0.366 N 
HETATM   32  H   UNL     1      17.500  47.444  41.947  1.00  0.00     0.162 HD
BRANCH  31  33
HETATM   33  C   UNL     1      19.007  48.873  41.753  1.00  0.00     0.148 C 
BRANCH  33  34
HETATM   34  C   UNL     1      19.073  50.356  42.008  1.00  0.00    -0.018 C 
HETATM   35  C   UNL     1      19.207  51.356  41.123  1.00  0.00     0.008 C 
ENDBRANCH  33  34
ENDBRANCH  31  33
ENDBRANCH   7  31
BRANCH  13  36
HETATM   36  O   UNL     1      18.678  52.124  50.244  1.00  0.00    -0.395 OA
HETATM   37  H   UNL     1      18.908  52.513  49.379  1.00  0.00     0.210 HD
ENDBRANCH  13  36
TORSDOF 10
ENDMDL
MODEL 6
REMARK VINA RESULT:      -6.7     12.382     16.891
REMARK  10 active torsions:
REMARK  status: ('A' for Active; 'I' for Inactive)
REMARK    1  A    between atoms: C_3  and  C_4 
REMARK    2  A    between atoms: C_4  and  C_5 
REMARK       I    between atoms: C_5  and  N_6 
REMARK    3  A    between atoms: N_6  and  C_7 
REMARK    4  A    between atoms: C_7  and  C_8 
REMARK    5  A    between atoms: C_18  and  N_19 
REMARK    6  A    between atoms: N_19  and  C_20 
REMARK    7  A    between atoms: C_20  and  C_21 
REMARK    8  A    between atoms: C_26  and  C_27 
REMARK    9  A    between atoms: C_27  and  O_28 
REMARK   10  A    between atoms: C_30  and  O_31 
ROOT
HETATM    1  C   UNL     1      32.243  51.051  37.667  1.00  0.00     0.016 C 
HETATM    2  C   UNL     1      31.530  51.058  39.066  1.00  0.00    -0.030 C 
HETATM    3  C   UNL     1      32.274  49.904  39.908  1.00  0.00     0.056 C 
HETATM    4  C   UNL     1      33.459  50.470  40.652  1.00  0.00     0.056 A 
HETATM    5  C   UNL     1      33.807  51.798  40.689  1.00  0.00     0.012 A 
HETATM    6  S   UNL     1      35.211  52.023  41.626  1.00  0.00    -0.055 SA
HETATM    7  C   UNL     1      35.315  50.319  41.862  1.00  0.00     0.167 A 
HETATM    8  N   UNL     1      34.340  49.634  41.310  1.00  0.00    -0.228 NA
HETATM    9  C   UNL     1      33.125  52.913  39.993  1.00  0.00     0.055 C 
HETATM   10  C   UNL     1      31.661  52.544  39.639  1.00  0.00     0.012 C 
HETATM   11  C   UNL     1      30.602  53.005  40.725  1.00  0.00     0.008 C 
HETATM   12  C   UNL     1      30.594  54.563  40.805  1.00  0.00     0.020 C 
HETATM   13  C   UNL     1      29.177  52.587  40.254  1.00  0.00     0.128 C 
HETATM   14  C   UNL     1      29.067  51.119  39.867  1.00  0.00     0.033 C 
HETATM   15  C   UNL     1      30.041  50.758  38.756  1.00  0.00     0.013 C 
ENDROOT
BRANCH   3  16
HETATM   16  C   UNL     1      31.384  49.010  40.792  1.00  0.00     0.114 C 
BRANCH  16  17
HETATM   17  C   UNL     1      31.527  47.523  40.515  1.00  0.00     0.218 C 
HETATM   18  N   UNL     1      30.618  46.894  39.713  1.00  0.00    -0.357 N 
HETATM   19  H   UNL     1      30.882  45.944  39.498  1.00  0.00     0.162 HD
HETATM   20  O   UNL     1      32.491  46.888  40.943  1.00  0.00    -0.274 OA
BRANCH  18  21
HETATM   21  C   UNL     1      29.425  47.459  39.115  1.00  0.00     0.162 C 
BRANCH  21  22
HETATM   22  C   UNL     1      28.128  47.176  39.820  1.00  0.00    -0.023 A 
HETATM   23  C   UNL     1      27.029  48.028  39.830  1.00  0.00     0.125 A 
HETATM   24  N   UNL     1      25.853  47.760  40.449  1.00  0.00    -0.273 NA
HETATM   25  C   UNL     1      25.758  46.573  41.083  1.00  0.00     0.116 A 
HETATM   26  C   UNL     1      26.783  45.647  41.134  1.00  0.00     0.020 A 
HETATM   27  C   UNL     1      27.981  45.957  40.497  1.00  0.00     0.012 A 
ENDBRANCH  21  22
ENDBRANCH  18  21
ENDBRANCH  16  17
ENDBRANCH   3  16
BRANCH  11  28
HETATM   28  C   UNL     1      30.925  52.494  42.153  1.00  0.00     0.176 C 
BRANCH  28  29
HETATM   29  O   UNL     1      30.118  53.096  43.160  1.00  0.00    -0.400 OA
HETATM   30  H   UNL     1      29.587  53.791  42.711  1.00  0.00     0.209 HD
ENDBRANCH  28  29
ENDBRANCH  11  28
BRANCH   7  31
HETATM   31  N   UNL     1      36.340  49.806  42.572  1.00  0.00    -0.366 N 
HETATM   32  H   UNL     1      36.133  49.174  43.333  1.00  0.00     0.162 HD
BRANCH  31  33
HETATM   33  C   UNL     1      37.589  50.520  42.686  1.00  0.00     0.148 C 
BRANCH  33  34
HETATM   34  C   UNL     1      38.561  49.798  43.582  1.00  0.00    -0.018 C 
HETATM   35  C   UNL     1      39.888  49.658  43.443  1.00  0.00     0.008 C 
ENDBRANCH  33  34
ENDBRANCH  31  33
ENDBRANCH   7  31
BRANCH  13  36
HETATM   36  O   UNL     1      28.209  52.851  41.273  1.00  0.00    -0.395 OA
HETATM   37  H   UNL     1      28.402  52.251  42.018  1.00  0.00     0.210 HD
ENDBRANCH  13  36
TORSDOF 10
ENDMDL
MODEL 7
REMARK VINA RESULT:      -6.7     26.244     29.965
REMARK  10 active torsions:
REMARK  status: ('A' for Active; 'I' for Inactive)
REMARK    1  A    between atoms: C_3  and  C_4 
REMARK    2  A    between atoms: C_4  and  C_5 
REMARK       I    between atoms: C_5  and  N_6 
REMARK    3  A    between atoms: N_6  and  C_7 
REMARK    4  A    between atoms: C_7  and  C_8 
REMARK    5  A    between atoms: C_18  and  N_19 
REMARK    6  A    between atoms: N_19  and  C_20 
REMARK    7  A    between atoms: C_20  and  C_21 
REMARK    8  A    between atoms: C_26  and  C_27 
REMARK    9  A    between atoms: C_27  and  O_28 
REMARK   10  A    between atoms: C_30  and  O_31 
ROOT
HETATM    1  C   UNL     1      41.318  44.141  63.564  1.00  0.00     0.016 C 
HETATM    2  C   UNL     1      39.911  43.632  64.038  1.00  0.00    -0.030 C 
HETATM    3  C   UNL     1      40.178  42.138  64.578  1.00  0.00     0.056 C 
HETATM    4  C   UNL     1      40.524  42.157  66.046  1.00  0.00     0.056 A 
HETATM    5  C   UNL     1      40.521  43.276  66.844  1.00  0.00     0.012 A 
HETATM    6  S   UNL     1      40.980  42.878  68.435  1.00  0.00    -0.055 SA
HETATM    7  C   UNL     1      41.231  41.245  67.944  1.00  0.00     0.167 A 
HETATM    8  N   UNL     1      40.950  41.008  66.683  1.00  0.00    -0.228 NA
HETATM    9  C   UNL     1      40.219  44.664  66.423  1.00  0.00     0.055 C 
HETATM   10  C   UNL     1      39.383  44.687  65.118  1.00  0.00     0.012 C 
HETATM   11  C   UNL     1      37.818  44.765  65.359  1.00  0.00     0.008 C 
HETATM   12  C   UNL     1      37.473  46.117  66.056  1.00  0.00     0.020 C 
HETATM   13  C   UNL     1      37.092  44.790  63.981  1.00  0.00     0.128 C 
HETATM   14  C   UNL     1      37.518  43.668  63.044  1.00  0.00     0.033 C 
HETATM   15  C   UNL     1      39.015  43.701  62.775  1.00  0.00     0.013 C 
ENDROOT
BRANCH   3  16
HETATM   16  C   UNL     1      39.118  41.076  64.227  1.00  0.00     0.114 C 
BRANCH  16  17
HETATM   17  C   UNL     1      39.495  40.186  63.056  1.00  0.00     0.218 C 
HETATM   18  N   UNL     1      40.147  39.008  63.284  1.00  0.00    -0.357 N 
HETATM   19  H   UNL     1      40.233  38.444  62.450  1.00  0.00     0.162 HD
HETATM   20  O   UNL     1      39.160  40.473  61.906  1.00  0.00    -0.274 OA
BRANCH  18  21
HETATM   21  C   UNL     1      40.625  38.491  64.551  1.00  0.00     0.162 C 
BRANCH  21  22
HETATM   22  C   UNL     1      42.069  38.077  64.599  1.00  0.00    -0.023 A 
HETATM   23  C   UNL     1      42.539  36.805  64.294  1.00  0.00     0.125 A 
HETATM   24  N   UNL     1      43.845  36.441  64.318  1.00  0.00    -0.273 NA
HETATM   25  C   UNL     1      44.736  37.398  64.650  1.00  0.00     0.116 A 
HETATM   26  C   UNL     1      44.383  38.697  64.968  1.00  0.00     0.020 A 
HETATM   27  C   UNL     1      43.033  39.035  64.944  1.00  0.00     0.012 A 
ENDBRANCH  21  22
ENDBRANCH  18  21
ENDBRANCH  16  17
ENDBRANCH   3  16
BRANCH  11  28
HETATM   28  C   UNL     1      37.283  43.644  66.286  1.00  0.00     0.176 C 
BRANCH  28  29
HETATM   29  O   UNL     1      36.125  44.029  67.022  1.00  0.00    -0.400 OA
HETATM   30  H   UNL     1      35.360  43.608  66.573  1.00  0.00     0.209 HD
ENDBRANCH  28  29
ENDBRANCH  11  28
BRANCH   7  31
HETATM   31  N   UNL     1      41.676  40.342  68.839  1.00  0.00    -0.366 N 
HETATM   32  H   UNL     1      42.545  40.527  69.321  1.00  0.00     0.162 HD
BRANCH  31  33
HETATM   33  C   UNL     1      41.322  38.947  68.720  1.00  0.00     0.148 C 
BRANCH  33  34
HETATM   34  C   UNL     1      42.543  38.075  68.587  1.00  0.00    -0.018 C 
HETATM   35  C   UNL     1      42.652  36.862  68.023  1.00  0.00     0.008 C 
ENDBRANCH  33  34
ENDBRANCH  31  33
ENDBRANCH   7  31
BRANCH  13  36
HETATM   36  O   UNL     1      35.675  44.710  64.153  1.00  0.00    -0.395 OA
HETATM   37  H   UNL     1      35.342  45.622  64.248  1.00  0.00     0.210 HD
ENDBRANCH  13  36
TORSDOF 10
ENDMDL
MODEL 8
REMARK VINA RESULT:      -6.7     12.699     15.670
REMARK  10 active torsions:
REMARK  status: ('A' for Active; 'I' for Inactive)
REMARK    1  A    between atoms: C_3  and  C_4 
REMARK    2  A    between atoms: C_4  and  C_5 
REMARK       I    between atoms: C_5  and  N_6 
REMARK    3  A    between atoms: N_6  and  C_7 
REMARK    4  A    between atoms: C_7  and  C_8 
REMARK    5  A    between atoms: C_18  and  N_19 
REMARK    6  A    between atoms: N_19  and  C_20 
REMARK    7  A    between atoms: C_20  and  C_21 
REMARK    8  A    between atoms: C_26  and  C_27 
REMARK    9  A    between atoms: C_27  and  O_28 
REMARK   10  A    between atoms: C_30  and  O_31 
ROOT
HETATM    1  C   UNL     1      27.138  46.356  41.294  1.00  0.00     0.016 C 
HETATM    2  C   UNL     1      27.287  47.288  40.040  1.00  0.00    -0.030 C 
HETATM    3  C   UNL     1      28.680  46.843  39.364  1.00  0.00     0.056 C 
HETATM    4  C   UNL     1      28.455  45.741  38.359  1.00  0.00     0.056 A 
HETATM    5  C   UNL     1      27.227  45.245  37.993  1.00  0.00     0.012 A 
HETATM    6  S   UNL     1      27.402  44.003  36.842  1.00  0.00    -0.055 SA
HETATM    7  C   UNL     1      29.116  44.149  36.959  1.00  0.00     0.167 A 
HETATM    8  N   UNL     1      29.526  45.093  37.776  1.00  0.00    -0.228 NA
HETATM    9  C   UNL     1      25.909  45.658  38.527  1.00  0.00     0.055 C 
HETATM   10  C   UNL     1      25.974  47.076  39.153  1.00  0.00     0.012 C 
HETATM   11  C   UNL     1      25.570  48.238  38.154  1.00  0.00     0.008 C 
HETATM   12  C   UNL     1      24.073  48.070  37.748  1.00  0.00     0.020 C 
HETATM   13  C   UNL     1      25.668  49.604  38.898  1.00  0.00     0.128 C 
HETATM   14  C   UNL     1      27.001  49.825  39.598  1.00  0.00     0.033 C 
HETATM   15  C   UNL     1      27.290  48.729  40.612  1.00  0.00     0.013 C 
ENDROOT
BRANCH   3  16
HETATM   16  C   UNL     1      29.578  47.973  38.824  1.00  0.00     0.114 C 
BRANCH  16  17
HETATM   17  C   UNL     1      30.965  48.013  39.441  1.00  0.00     0.218 C 
HETATM   18  N   UNL     1      31.731  49.135  39.312  1.00  0.00    -0.357 N 
HETATM   19  H   UNL     1      32.575  49.096  39.865  1.00  0.00     0.162 HD
HETATM   20  O   UNL     1      31.384  47.075  40.121  1.00  0.00    -0.274 OA
BRANCH  18  21
HETATM   21  C   UNL     1      31.423  50.336  38.561  1.00  0.00     0.162 C 
BRANCH  21  22
HETATM   22  C   UNL     1      30.484  51.310  39.217  1.00  0.00    -0.023 A 
HETATM   23  C   UNL     1      30.350  51.478  40.591  1.00  0.00     0.125 A 
HETATM   24  N   UNL     1      29.518  52.372  41.179  1.00  0.00    -0.273 NA
HETATM   25  C   UNL     1      28.788  53.153  40.357  1.00  0.00     0.116 A 
HETATM   26  C   UNL     1      28.842  53.077  38.978  1.00  0.00     0.020 A 
HETATM   27  C   UNL     1      29.699  52.141  38.406  1.00  0.00     0.012 A 
ENDBRANCH  21  22
ENDBRANCH  18  21
ENDBRANCH  16  17
ENDBRANCH   3  16
BRANCH  11  28
HETATM   28  C   UNL     1      26.386  48.226  36.836  1.00  0.00     0.176 C 
BRANCH  28  29
HETATM   29  O   UNL     1      25.783  48.989  35.795  1.00  0.00    -0.400 OA
HETATM   30  H   UNL     1      25.773  49.921  36.105  1.00  0.00     0.209 HD
ENDBRANCH  28  29
ENDBRANCH  11  28
BRANCH   7  31
HETATM   31  N   UNL     1      29.905  43.329  36.238  1.00  0.00    -0.366 N 
HETATM   32  H   UNL     1      30.628  43.737  35.660  1.00  0.00     0.162 HD
BRANCH  31  33
HETATM   33  C   UNL     1      29.429  42.036  35.806  1.00  0.00     0.148 C 
BRANCH  33  34
HETATM   34  C   UNL     1      29.808  40.952  36.781  1.00  0.00    -0.018 C 
HETATM   35  C   UNL     1      30.924  40.209  36.820  1.00  0.00     0.008 C 
ENDBRANCH  33  34
ENDBRANCH  31  33
ENDBRANCH   7  31
BRANCH  13  36
HETATM   36  O   UNL     1      25.456  50.690  37.992  1.00  0.00    -0.395 OA
HETATM   37  H   UNL     1      24.737  51.238  38.359  1.00  0.00     0.210 HD
ENDBRANCH  13  36
TORSDOF 10
ENDMDL
MODEL 9
REMARK VINA RESULT:      -6.6     11.997     15.333
REMARK  10 active torsions:
REMARK  status: ('A' for Active; 'I' for Inactive)
REMARK    1  A    between atoms: C_3  and  C_4 
REMARK    2  A    between atoms: C_4  and  C_5 
REMARK       I    between atoms: C_5  and  N_6 
REMARK    3  A    between atoms: N_6  and  C_7 
REMARK    4  A    between atoms: C_7  and  C_8 
REMARK    5  A    between atoms: C_18  and  N_19 
REMARK    6  A    between atoms: N_19  and  C_20 
REMARK    7  A    between atoms: C_20  and  C_21 
REMARK    8  A    between atoms: C_26  and  C_27 
REMARK    9  A    between atoms: C_27  and  O_28 
REMARK   10  A    between atoms: C_30  and  O_31 
ROOT
HETATM    1  C   UNL     1      29.767  51.872  37.503  1.00  0.00     0.016 C 
HETATM    2  C   UNL     1      29.348  51.488  38.966  1.00  0.00    -0.030 C 
HETATM    3  C   UNL     1      28.258  50.316  38.785  1.00  0.00     0.056 C 
HETATM    4  C   UNL     1      28.930  48.965  38.760  1.00  0.00     0.056 A 
HETATM    5  C   UNL     1      30.271  48.746  38.958  1.00  0.00     0.012 A 
HETATM    6  S   UNL     1      30.631  47.087  38.839  1.00  0.00    -0.055 SA
HETATM    7  C   UNL     1      28.982  46.767  38.451  1.00  0.00     0.167 A 
HETATM    8  N   UNL     1      28.209  47.828  38.451  1.00  0.00    -0.228 NA
HETATM    9  C   UNL     1      31.311  49.774  39.197  1.00  0.00     0.055 C 
HETATM   10  C   UNL     1      30.691  51.088  39.737  1.00  0.00     0.012 C 
HETATM   11  C   UNL     1      30.685  51.194  41.318  1.00  0.00     0.008 C 
HETATM   12  C   UNL     1      32.157  51.226  41.836  1.00  0.00     0.020 C 
HETATM   13  C   UNL     1      30.049  52.553  41.735  1.00  0.00     0.128 C 
HETATM   14  C   UNL     1      28.693  52.816  41.093  1.00  0.00     0.033 C 
HETATM   15  C   UNL     1      28.780  52.796  39.575  1.00  0.00     0.013 C 
ENDROOT
BRANCH   3  16
HETATM   16  C   UNL     1      27.035  50.359  39.720  1.00  0.00     0.114 C 
BRANCH  16  17
HETATM   17  C   UNL     1      25.775  49.756  39.123  1.00  0.00     0.218 C 
HETATM   18  N   UNL     1      25.213  48.654  39.700  1.00  0.00    -0.357 N 
HETATM   19  H   UNL     1      24.317  48.419  39.298  1.00  0.00     0.162 HD
HETATM   20  O   UNL     1      25.209  50.287  38.166  1.00  0.00    -0.274 OA
BRANCH  18  21
HETATM   21  C   UNL     1      25.717  47.887  40.823  1.00  0.00     0.162 C 
BRANCH  21  22
HETATM   22  C   UNL     1      25.840  46.404  40.615  1.00  0.00    -0.023 A 
HETATM   23  C   UNL     1      25.201  45.689  39.608  1.00  0.00     0.125 A 
HETATM   24  N   UNL     1      25.331  44.354  39.410  1.00  0.00    -0.273 NA
HETATM   25  C   UNL     1      26.154  43.694  40.250  1.00  0.00     0.116 A 
HETATM   26  C   UNL     1      26.844  44.301  41.282  1.00  0.00     0.020 A 
HETATM   27  C   UNL     1      26.680  45.671  41.466  1.00  0.00     0.012 A 
ENDBRANCH  21  22
ENDBRANCH  18  21
ENDBRANCH  16  17
ENDBRANCH   3  16
BRANCH  11  28
HETATM   28  C   UNL     1      30.003  49.986  42.012  1.00  0.00     0.176 C 
BRANCH  28  29
HETATM   29  O   UNL     1      30.921  49.143  42.701  1.00  0.00    -0.400 OA
HETATM   30  H   UNL     1      31.090  48.376  42.110  1.00  0.00     0.209 HD
ENDBRANCH  28  29
ENDBRANCH  11  28
BRANCH   7  31
HETATM   31  N   UNL     1      28.594  45.504  38.185  1.00  0.00    -0.366 N 
HETATM   32  H   UNL     1      27.605  45.292  38.184  1.00  0.00     0.162 HD
BRANCH  31  33
HETATM   33  C   UNL     1      29.463  44.388  38.471  1.00  0.00     0.148 C 
BRANCH  33  34
HETATM   34  C   UNL     1      28.919  43.102  37.907  1.00  0.00    -0.018 C 
HETATM   35  C   UNL     1      29.575  41.971  37.606  1.00  0.00     0.008 C 
ENDBRANCH  33  34
ENDBRANCH  31  33
ENDBRANCH   7  31
BRANCH  13  36
HETATM   36  O   UNL     1      29.888  52.624  43.154  1.00  0.00    -0.395 OA
HETATM   37  H   UNL     1      30.552  53.255  43.490  1.00  0.00     0.210 HD
ENDBRANCH  13  36
TORSDOF 10
ENDMDL
MODEL 10
REMARK VINA RESULT:      -6.5      3.513      7.693
REMARK  10 active torsions:
REMARK  status: ('A' for Active; 'I' for Inactive)
REMARK    1  A    between atoms: C_3  and  C_4 
REMARK    2  A    between atoms: C_4  and  C_5 
REMARK       I    between atoms: C_5  and  N_6 
REMARK    3  A    between atoms: N_6  and  C_7 
REMARK    4  A    between atoms: C_7  and  C_8 
REMARK    5  A    between atoms: C_18  and  N_19 
REMARK    6  A    between atoms: N_19  and  C_20 
REMARK    7  A    between atoms: C_20  and  C_21 
REMARK    8  A    between atoms: C_26  and  C_27 
REMARK    9  A    between atoms: C_27  and  O_28 
REMARK   10  A    between atoms: C_30  and  O_31 
ROOT
HETATM    1  C   UNL     1      18.838  50.740  45.119  1.00  0.00     0.016 C 
HETATM    2  C   UNL     1      18.158  50.616  46.528  1.00  0.00    -0.030 C 
HETATM    3  C   UNL     1      17.068  49.443  46.353  1.00  0.00     0.056 C 
HETATM    4  C   UNL     1      17.677  48.100  46.671  1.00  0.00     0.056 A 
HETATM    5  C   UNL     1      18.955  47.902  47.137  1.00  0.00     0.012 A 
HETATM    6  S   UNL     1      19.260  46.242  47.359  1.00  0.00    -0.055 SA
HETATM    7  C   UNL     1      17.691  45.880  46.744  1.00  0.00     0.167 A 
HETATM    8  N   UNL     1      16.974  46.935  46.432  1.00  0.00    -0.228 NA
HETATM    9  C   UNL     1      19.980  48.943  47.382  1.00  0.00     0.055 C 
HETATM   10  C   UNL     1      19.331  50.337  47.579  1.00  0.00     0.012 C 
HETATM   11  C   UNL     1      19.058  50.710  49.095  1.00  0.00     0.008 C 
HETATM   12  C   UNL     1      20.418  50.813  49.852  1.00  0.00     0.020 C 
HETATM   13  C   UNL     1      18.416  52.128  49.162  1.00  0.00     0.128 C 
HETATM   14  C   UNL     1      17.203  52.294  48.256  1.00  0.00     0.033 C 
HETATM   15  C   UNL     1      17.549  52.015  46.802  1.00  0.00     0.013 C 
ENDROOT
BRANCH   3  16
HETATM   16  C   UNL     1      15.705  49.659  47.038  1.00  0.00     0.114 C 
BRANCH  16  17
HETATM   17  C   UNL     1      14.513  49.236  46.196  1.00  0.00     0.218 C 
HETATM   18  N   UNL     1      14.038  50.071  45.227  1.00  0.00    -0.357 N 
HETATM   19  H   UNL     1      13.332  49.636  44.651  1.00  0.00     0.162 HD
HETATM   20  O   UNL     1      14.011  48.118  46.325  1.00  0.00    -0.274 OA
BRANCH  18  21
HETATM   21  C   UNL     1      14.487  51.414  44.917  1.00  0.00     0.162 C 
BRANCH  21  22
HETATM   22  C   UNL     1      15.479  51.543  43.796  1.00  0.00    -0.023 A 
HETATM   23  C   UNL     1      15.825  50.518  42.923  1.00  0.00     0.125 A 
HETATM   24  N   UNL     1      16.705  50.644  41.898  1.00  0.00    -0.273 NA
HETATM   25  C   UNL     1      17.261  51.860  41.722  1.00  0.00     0.116 A 
HETATM   26  C   UNL     1      16.988  52.952  42.526  1.00  0.00     0.020 A 
HETATM   27  C   UNL     1      16.089  52.786  43.575  1.00  0.00     0.012 A 
ENDBRANCH  21  22
ENDBRANCH  18  21
ENDBRANCH  16  17
ENDBRANCH   3  16
BRANCH  11  28
HETATM   28  C   UNL     1      18.217  49.647  49.847  1.00  0.00     0.176 C 
BRANCH  28  29
HETATM   29  O   UNL     1      18.581  49.510  51.218  1.00  0.00    -0.400 OA
HETATM   30  H   UNL     1      18.100  48.722  51.554  1.00  0.00     0.209 HD
ENDBRANCH  28  29
ENDBRANCH  11  28
BRANCH   7  31
HETATM   31  N   UNL     1      17.302  44.595  46.626  1.00  0.00    -0.366 N 
HETATM   32  H   UNL     1      17.659  43.919  47.288  1.00  0.00     0.162 HD
BRANCH  31  33
HETATM   33  C   UNL     1      16.910  44.056  45.346  1.00  0.00     0.148 C 
BRANCH  33  34
HETATM   34  C   UNL     1      18.103  43.804  44.462  1.00  0.00    -0.018 C 
HETATM   35  C   UNL     1      19.179  43.038  44.700  1.00  0.00     0.008 C 
ENDBRANCH  33  34
ENDBRANCH  31  33
ENDBRANCH   7  31
BRANCH  13  36
HETATM   36  O   UNL     1      18.017  52.441  50.498  1.00  0.00    -0.395 OA
HETATM   37  H   UNL     1      17.181  52.940  50.442  1.00  0.00     0.210 HD
ENDBRANCH  13  36
TORSDOF 10
ENDMDL
