MODEL 1
REMARK VINA RESULT:      -8.6      0.000      0.000
REMARK  9 active torsions:
REMARK  status: ('A' for Active; 'I' for Inactive)
REMARK    1  A    between atoms: C_2  and  O_3 
REMARK    2  A    between atoms: O_3  and  C_4 
REMARK    3  A    between atoms: C_5  and  O_6 
REMARK    4  A    between atoms: O_6  and  C_7 
REMARK    5  A    between atoms: C_7  and  C_8 
REMARK       I    between atoms: C_8  and  N_9 
REMARK    6  A    between atoms: N_9  and  C_10 
REMARK    7  A    between atoms: C_19  and  C_20 
REMARK    8  A    between atoms: C_21  and  C_22 
REMARK    9  A    between atoms: C_27  and  C_28 
ROOT
HETATM    1  C   UNL     1      25.993  45.301  52.025  1.00  0.00     0.102 A 
HETATM    2  C   UNL     1      25.457  46.604  52.024  1.00  0.00     0.102 A 
HETATM    3  C   UNL     1      25.673  47.443  53.119  1.00  0.00     0.040 A 
HETATM    4  C   UNL     1      26.450  47.006  54.195  1.00  0.00     0.014 A 
HETATM    5  C   UNL     1      27.015  45.728  54.190  1.00  0.00    -0.033 A 
HETATM    6  C   UNL     1      26.762  44.871  53.112  1.00  0.00     0.051 A 
ENDROOT
BRANCH   2   7
HETATM    7  O   UNL     1      24.749  46.959  50.900  1.00  0.00    -0.339 OA
BRANCH   7   8
HETATM    8  C   UNL     1      25.388  47.789  49.941  1.00  0.00     0.278 C 
BRANCH   8   9
HETATM    9  C   UNL     1      24.473  48.752  49.169  1.00  0.00     0.246 C 
HETATM   10  N   UNL     1      23.147  48.645  49.550  1.00  0.00    -0.325 N 
HETATM   11  H   UNL     1      22.951  47.919  50.234  1.00  0.00     0.169 HD
HETATM   12  O   UNL     1      24.943  49.534  48.347  1.00  0.00    -0.271 OA
BRANCH  10  13
HETATM   13  C   UNL     1      22.037  49.343  49.039  1.00  0.00     0.034 A 
HETATM   14  C   UNL     1      21.193  48.847  48.046  1.00  0.00     0.029 A 
HETATM   15  C   UNL     1      20.104  49.603  47.598  1.00  0.00     0.002 A 
HETATM   16  C   UNL     1      19.853  50.862  48.140  1.00  0.00     0.000 A 
HETATM   17  C   UNL     1      20.690  51.365  49.132  1.00  0.00     0.002 A 
HETATM   18  C   UNL     1      21.777  50.609  49.579  1.00  0.00     0.029 A 
ENDBRANCH  10  13
ENDBRANCH   8   9
ENDBRANCH   7   8
ENDBRANCH   2   7
BRANCH   1  19
HETATM   19  O   UNL     1      25.749  44.552  50.900  1.00  0.00    -0.349 OA
BRANCH  19  20
HETATM   20  C   UNL     1      26.840  44.324  50.010  1.00  0.00     0.171 C 
HETATM   21  C   UNL     1      26.917  42.832  49.739  1.00  0.00     0.034 C 
ENDBRANCH  19  20
ENDBRANCH   1  19
BRANCH   5  22
HETATM   22  C   UNL     1      27.869  45.263  55.286  1.00  0.00     0.014 C 
HETATM   23  C   UNL     1      28.945  45.953  55.703  1.00  0.00     0.035 C 
BRANCH  23  24
HETATM   24  C   UNL     1      29.849  45.525  56.732  1.00  0.00     0.091 A 
HETATM   25  N   UNL     1      29.957  46.143  57.921  1.00  0.00    -0.175 NA
HETATM   26  N   UNL     1      30.877  45.440  58.588  1.00  0.00    -0.288 N 
HETATM   27  H   UNL     1      31.117  45.737  59.529  1.00  0.00     0.188 HD
HETATM   28  C   UNL     1      31.371  44.386  57.883  1.00  0.00     0.126 A 
HETATM   29  C   UNL     1      30.730  44.405  56.660  1.00  0.00     0.049 A 
BRANCH  29  30
HETATM   30  C   UNL     1      30.963  43.454  55.594  1.00  0.00     0.273 C 
HETATM   31  O   UNL     1      30.110  42.709  55.124  1.00  0.00    -0.301 OA
ENDBRANCH  29  30
ENDBRANCH  23  24
ENDBRANCH   5  22
TORSDOF 9
ENDMDL
MODEL 2
REMARK VINA RESULT:      -8.6      1.578      1.915
REMARK  9 active torsions:
REMARK  status: ('A' for Active; 'I' for Inactive)
REMARK    1  A    between atoms: C_2  and  O_3 
REMARK    2  A    between atoms: O_3  and  C_4 
REMARK    3  A    between atoms: C_5  and  O_6 
REMARK    4  A    between atoms: O_6  and  C_7 
REMARK    5  A    between atoms: C_7  and  C_8 
REMARK       I    between atoms: C_8  and  N_9 
REMARK    6  A    between atoms: N_9  and  C_10 
REMARK    7  A    between atoms: C_19  and  C_20 
REMARK    8  A    between atoms: C_21  and  C_22 
REMARK    9  A    between atoms: C_27  and  C_28 
ROOT
HETATM    1  C   UNL     1      25.089  44.849  52.262  1.00  0.00     0.102 A 
HETATM    2  C   UNL     1      25.154  46.212  51.911  1.00  0.00     0.102 A 
HETATM    3  C   UNL     1      26.057  47.054  52.563  1.00  0.00     0.040 A 
HETATM    4  C   UNL     1      26.921  46.539  53.533  1.00  0.00     0.014 A 
HETATM    5  C   UNL     1      26.889  45.181  53.863  1.00  0.00    -0.033 A 
HETATM    6  C   UNL     1      25.953  44.346  53.241  1.00  0.00     0.051 A 
ENDROOT
BRANCH   2   7
HETATM    7  O   UNL     1      24.299  46.614  50.912  1.00  0.00    -0.339 OA
BRANCH   7   8
HETATM    8  C   UNL     1      24.850  47.288  49.790  1.00  0.00     0.278 C 
BRANCH   8   9
HETATM    9  C   UNL     1      24.149  48.591  49.376  1.00  0.00     0.246 C 
HETATM   10  N   UNL     1      22.769  48.496  49.445  1.00  0.00    -0.325 N 
HETATM   11  H   UNL     1      22.411  47.580  49.701  1.00  0.00     0.169 HD
HETATM   12  O   UNL     1      24.804  49.582  49.069  1.00  0.00    -0.271 OA
BRANCH  10  13
HETATM   13  C   UNL     1      21.813  49.474  49.114  1.00  0.00     0.034 A 
HETATM   14  C   UNL     1      21.309  50.410  50.018  1.00  0.00     0.029 A 
HETATM   15  C   UNL     1      20.364  51.356  49.605  1.00  0.00     0.002 A 
HETATM   16  C   UNL     1      19.916  51.372  48.286  1.00  0.00     0.000 A 
HETATM   17  C   UNL     1      20.414  50.442  47.377  1.00  0.00     0.002 A 
HETATM   18  C   UNL     1      21.357  49.498  47.790  1.00  0.00     0.029 A 
ENDBRANCH  10  13
ENDBRANCH   8   9
ENDBRANCH   7   8
ENDBRANCH   2   7
BRANCH   1  19
HETATM   19  O   UNL     1      24.187  44.091  51.557  1.00  0.00    -0.349 OA
BRANCH  19  20
HETATM   20  C   UNL     1      24.685  42.948  50.864  1.00  0.00     0.171 C 
HETATM   21  C   UNL     1      25.502  43.438  49.682  1.00  0.00     0.034 C 
ENDBRANCH  19  20
ENDBRANCH   1  19
BRANCH   5  22
HETATM   22  C   UNL     1      27.813  44.609  54.846  1.00  0.00     0.014 C 
HETATM   23  C   UNL     1      29.088  45.021  54.960  1.00  0.00     0.035 C 
BRANCH  23  24
HETATM   24  C   UNL     1      30.055  44.466  55.863  1.00  0.00     0.091 A 
HETATM   25  N   UNL     1      30.808  43.393  55.566  1.00  0.00    -0.175 NA
HETATM   26  N   UNL     1      31.578  43.209  56.644  1.00  0.00    -0.288 N 
HETATM   27  H   UNL     1      32.238  42.437  56.634  1.00  0.00     0.188 HD
HETATM   28  C   UNL     1      31.359  44.121  57.630  1.00  0.00     0.126 A 
HETATM   29  C   UNL     1      30.366  44.962  57.164  1.00  0.00     0.049 A 
BRANCH  29  30
HETATM   30  C   UNL     1      29.821  46.080  57.905  1.00  0.00     0.273 C 
HETATM   31  O   UNL     1      28.627  46.261  58.118  1.00  0.00    -0.301 OA
ENDBRANCH  29  30
ENDBRANCH  23  24
ENDBRANCH   5  22
TORSDOF 9
ENDMDL
MODEL 3
REMARK VINA RESULT:      -8.6      2.250     10.046
REMARK  9 active torsions:
REMARK  status: ('A' for Active; 'I' for Inactive)
REMARK    1  A    between atoms: C_2  and  O_3 
REMARK    2  A    between atoms: O_3  and  C_4 
REMARK    3  A    between atoms: C_5  and  O_6 
REMARK    4  A    between atoms: O_6  and  C_7 
REMARK    5  A    between atoms: C_7  and  C_8 
REMARK       I    between atoms: C_8  and  N_9 
REMARK    6  A    between atoms: N_9  and  C_10 
REMARK    7  A    between atoms: C_19  and  C_20 
REMARK    8  A    between atoms: C_21  and  C_22 
REMARK    9  A    between atoms: C_27  and  C_28 
ROOT
HETATM    1  C   UNL     1      25.514  44.682  51.828  1.00  0.00     0.102 A 
HETATM    2  C   UNL     1      26.685  44.129  51.271  1.00  0.00     0.102 A 
HETATM    3  C   UNL     1      27.285  44.741  50.169  1.00  0.00     0.040 A 
HETATM    4  C   UNL     1      26.750  45.919  49.644  1.00  0.00     0.014 A 
HETATM    5  C   UNL     1      25.609  46.495  50.210  1.00  0.00    -0.033 A 
HETATM    6  C   UNL     1      24.982  45.858  51.287  1.00  0.00     0.051 A 
ENDROOT
BRANCH   2   7
HETATM    7  O   UNL     1      27.163  42.997  51.889  1.00  0.00    -0.339 OA
BRANCH   7   8
HETATM    8  C   UNL     1      28.553  42.926  52.173  1.00  0.00     0.278 C 
BRANCH   8   9
HETATM    9  C   UNL     1      28.931  42.798  53.657  1.00  0.00     0.246 C 
HETATM   10  N   UNL     1      29.615  43.905  54.128  1.00  0.00    -0.325 N 
HETATM   11  H   UNL     1      29.820  44.616  53.431  1.00  0.00     0.169 HD
HETATM   12  O   UNL     1      28.594  41.810  54.303  1.00  0.00    -0.271 OA
BRANCH  10  13
HETATM   13  C   UNL     1      30.137  44.120  55.417  1.00  0.00     0.034 A 
HETATM   14  C   UNL     1      31.070  43.283  56.030  1.00  0.00     0.029 A 
HETATM   15  C   UNL     1      31.546  43.572  57.314  1.00  0.00     0.002 A 
HETATM   16  C   UNL     1      31.092  44.700  57.993  1.00  0.00     0.000 A 
HETATM   17  C   UNL     1      30.161  45.541  57.390  1.00  0.00     0.002 A 
HETATM   18  C   UNL     1      29.686  45.252  56.108  1.00  0.00     0.029 A 
ENDBRANCH  10  13
ENDBRANCH   8   9
ENDBRANCH   7   8
ENDBRANCH   2   7
BRANCH   1  19
HETATM   19  O   UNL     1      25.003  44.027  52.921  1.00  0.00    -0.349 OA
BRANCH  19  20
HETATM   20  C   UNL     1      25.150  44.654  54.193  1.00  0.00     0.171 C 
HETATM   21  C   UNL     1      25.701  43.623  55.162  1.00  0.00     0.034 C 
ENDBRANCH  19  20
ENDBRANCH   1  19
BRANCH   5  22
HETATM   22  C   UNL     1      25.054  47.753  49.703  1.00  0.00     0.014 C 
HETATM   23  C   UNL     1      23.749  48.061  49.816  1.00  0.00     0.035 C 
BRANCH  23  24
HETATM   24  C   UNL     1      23.136  49.248  49.295  1.00  0.00     0.091 A 
HETATM   25  N   UNL     1      23.797  50.406  49.126  1.00  0.00    -0.175 NA
HETATM   26  N   UNL     1      22.891  51.244  48.612  1.00  0.00    -0.288 N 
HETATM   27  H   UNL     1      23.184  52.194  48.402  1.00  0.00     0.188 HD
HETATM   28  C   UNL     1      21.666  50.679  48.437  1.00  0.00     0.126 A 
HETATM   29  C   UNL     1      21.778  49.373  48.875  1.00  0.00     0.049 A 
BRANCH  29  30
HETATM   30  C   UNL     1      20.697  48.409  48.870  1.00  0.00     0.273 C 
HETATM   31  O   UNL     1      19.753  48.415  49.652  1.00  0.00    -0.301 OA
ENDBRANCH  29  30
ENDBRANCH  23  24
ENDBRANCH   5  22
TORSDOF 9
ENDMDL
MODEL 4
REMARK VINA RESULT:      -8.5      1.582      2.413
REMARK  9 active torsions:
REMARK  status: ('A' for Active; 'I' for Inactive)
REMARK    1  A    between atoms: C_2  and  O_3 
REMARK    2  A    between atoms: O_3  and  C_4 
REMARK    3  A    between atoms: C_5  and  O_6 
REMARK    4  A    between atoms: O_6  and  C_7 
REMARK    5  A    between atoms: C_7  and  C_8 
REMARK       I    between atoms: C_8  and  N_9 
REMARK    6  A    between atoms: N_9  and  C_10 
REMARK    7  A    between atoms: C_19  and  C_20 
REMARK    8  A    between atoms: C_21  and  C_22 
REMARK    9  A    between atoms: C_27  and  C_28 
ROOT
HETATM    1  C   UNL     1      25.732  47.199  50.980  1.00  0.00     0.102 A 
HETATM    2  C   UNL     1      24.874  46.146  50.601  1.00  0.00     0.102 A 
HETATM    3  C   UNL     1      24.669  45.073  51.470  1.00  0.00     0.040 A 
HETATM    4  C   UNL     1      25.282  45.060  52.726  1.00  0.00     0.014 A 
HETATM    5  C   UNL     1      26.107  46.115  53.124  1.00  0.00    -0.033 A 
HETATM    6  C   UNL     1      26.347  47.171  52.236  1.00  0.00     0.051 A 
ENDROOT
BRANCH   2   7
HETATM    7  O   UNL     1      24.280  46.273  49.369  1.00  0.00    -0.339 OA
BRANCH   7   8
HETATM    8  C   UNL     1      22.884  46.535  49.321  1.00  0.00     0.278 C 
BRANCH   8   9
HETATM    9  C   UNL     1      22.476  47.912  48.775  1.00  0.00     0.246 C 
HETATM   10  N   UNL     1      21.269  48.352  49.291  1.00  0.00    -0.325 N 
HETATM   11  H   UNL     1      20.797  47.695  49.907  1.00  0.00     0.169 HD
HETATM   12  O   UNL     1      23.209  48.517  47.998  1.00  0.00    -0.271 OA
BRANCH  10  13
HETATM   13  C   UNL     1      20.580  49.542  48.995  1.00  0.00     0.034 A 
HETATM   14  C   UNL     1      20.056  49.848  47.739  1.00  0.00     0.029 A 
HETATM   15  C   UNL     1      19.376  51.053  47.529  1.00  0.00     0.002 A 
HETATM   16  C   UNL     1      19.215  51.960  48.574  1.00  0.00     0.000 A 
HETATM   17  C   UNL     1      19.735  51.663  49.831  1.00  0.00     0.002 A 
HETATM   18  C   UNL     1      20.414  50.460  50.040  1.00  0.00     0.029 A 
ENDBRANCH  10  13
ENDBRANCH   8   9
ENDBRANCH   7   8
ENDBRANCH   2   7
BRANCH   1  19
HETATM   19  O   UNL     1      25.861  48.222  50.073  1.00  0.00    -0.349 OA
BRANCH  19  20
HETATM   20  C   UNL     1      27.084  48.308  49.345  1.00  0.00     0.171 C 
HETATM   21  C   UNL     1      27.182  49.706  48.760  1.00  0.00     0.034 C 
ENDBRANCH  19  20
ENDBRANCH   1  19
BRANCH   5  22
HETATM   22  C   UNL     1      26.726  46.146  54.452  1.00  0.00     0.014 C 
HETATM   23  C   UNL     1      28.031  45.886  54.643  1.00  0.00     0.035 C 
BRANCH  23  24
HETATM   24  C   UNL     1      28.685  45.847  55.920  1.00  0.00     0.091 A 
HETATM   25  N   UNL     1      28.253  46.537  56.990  1.00  0.00    -0.175 NA
HETATM   26  N   UNL     1      29.109  46.222  57.967  1.00  0.00    -0.288 N 
HETATM   27  H   UNL     1      28.966  46.640  58.881  1.00  0.00     0.188 HD
HETATM   28  C   UNL     1      30.080  45.351  57.578  1.00  0.00     0.126 A 
HETATM   29  C   UNL     1      29.844  45.081  56.243  1.00  0.00     0.049 A 
BRANCH  29  30
HETATM   30  C   UNL     1      30.652  44.198  55.428  1.00  0.00     0.273 C 
HETATM   31  O   UNL     1      31.040  43.088  55.776  1.00  0.00    -0.301 OA
ENDBRANCH  29  30
ENDBRANCH  23  24
ENDBRANCH   5  22
TORSDOF 9
ENDMDL
MODEL 5
REMARK VINA RESULT:      -8.4      1.984     10.242
REMARK  9 active torsions:
REMARK  status: ('A' for Active; 'I' for Inactive)
REMARK    1  A    between atoms: C_2  and  O_3 
REMARK    2  A    between atoms: O_3  and  C_4 
REMARK    3  A    between atoms: C_5  and  O_6 
REMARK    4  A    between atoms: O_6  and  C_7 
REMARK    5  A    between atoms: C_7  and  C_8 
REMARK       I    between atoms: C_8  and  N_9 
REMARK    6  A    between atoms: N_9  and  C_10 
REMARK    7  A    between atoms: C_19  and  C_20 
REMARK    8  A    between atoms: C_21  and  C_22 
REMARK    9  A    between atoms: C_27  and  C_28 
ROOT
HETATM    1  C   UNL     1      25.941  45.799  51.408  1.00  0.00     0.102 A 
HETATM    2  C   UNL     1      26.518  44.662  50.807  1.00  0.00     0.102 A 
HETATM    3  C   UNL     1      25.976  44.150  49.627  1.00  0.00     0.040 A 
HETATM    4  C   UNL     1      24.887  44.785  49.023  1.00  0.00     0.014 A 
HETATM    5  C   UNL     1      24.329  45.932  49.592  1.00  0.00    -0.033 A 
HETATM    6  C   UNL     1      24.845  46.420  50.799  1.00  0.00     0.051 A 
ENDROOT
BRANCH   2   7
HETATM    7  O   UNL     1      27.615  44.139  51.449  1.00  0.00    -0.339 OA
BRANCH   7   8
HETATM    8  C   UNL     1      27.422  43.019  52.301  1.00  0.00     0.278 C 
BRANCH   8   9
HETATM    9  C   UNL     1      27.797  43.223  53.777  1.00  0.00     0.246 C 
HETATM   10  N   UNL     1      29.064  43.759  53.934  1.00  0.00    -0.325 N 
HETATM   11  H   UNL     1      29.587  43.891  53.072  1.00  0.00     0.169 HD
HETATM   12  O   UNL     1      26.995  42.955  54.667  1.00  0.00    -0.271 OA
BRANCH  10  13
HETATM   13  C   UNL     1      29.743  44.049  55.131  1.00  0.00     0.034 A 
HETATM   14  C   UNL     1      30.753  43.251  55.669  1.00  0.00     0.029 A 
HETATM   15  C   UNL     1      31.384  43.615  56.863  1.00  0.00     0.002 A 
HETATM   16  C   UNL     1      31.008  44.779  57.530  1.00  0.00     0.000 A 
HETATM   17  C   UNL     1      30.001  45.582  57.002  1.00  0.00     0.002 A 
HETATM   18  C   UNL     1      29.371  45.218  55.809  1.00  0.00     0.029 A 
ENDBRANCH  10  13
ENDBRANCH   8   9
ENDBRANCH   7   8
ENDBRANCH   2   7
BRANCH   1  19
HETATM   19  O   UNL     1      26.551  46.245  52.555  1.00  0.00    -0.349 OA
BRANCH  19  20
HETATM   20  C   UNL     1      25.897  47.279  53.288  1.00  0.00     0.171 C 
HETATM   21  C   UNL     1      26.346  47.179  54.735  1.00  0.00     0.034 C 
ENDBRANCH  19  20
ENDBRANCH   1  19
BRANCH   5  22
HETATM   22  C   UNL     1      23.215  46.640  48.955  1.00  0.00     0.014 C 
HETATM   23  C   UNL     1      22.895  47.908  49.267  1.00  0.00     0.035 C 
BRANCH  23  24
HETATM   24  C   UNL     1      21.787  48.636  48.720  1.00  0.00     0.091 A 
HETATM   25  N   UNL     1      20.517  48.199  48.779  1.00  0.00    -0.175 NA
HETATM   26  N   UNL     1      19.800  49.157  48.182  1.00  0.00    -0.288 N 
HETATM   27  H   UNL     1      18.794  49.030  48.116  1.00  0.00     0.188 HD
HETATM   28  C   UNL     1      20.550  50.201  47.739  1.00  0.00     0.126 A 
HETATM   29  C   UNL     1      21.859  49.902  48.065  1.00  0.00     0.049 A 
BRANCH  29  30
HETATM   30  C   UNL     1      22.994  50.750  47.769  1.00  0.00     0.273 C 
HETATM   31  O   UNL     1      24.034  50.366  47.243  1.00  0.00    -0.301 OA
ENDBRANCH  29  30
ENDBRANCH  23  24
ENDBRANCH   5  22
TORSDOF 9
ENDMDL
MODEL 6
REMARK VINA RESULT:      -8.3      4.590      5.480
REMARK  9 active torsions:
REMARK  status: ('A' for Active; 'I' for Inactive)
REMARK    1  A    between atoms: C_2  and  O_3 
REMARK    2  A    between atoms: O_3  and  C_4 
REMARK    3  A    between atoms: C_5  and  O_6 
REMARK    4  A    between atoms: O_6  and  C_7 
REMARK    5  A    between atoms: C_7  and  C_8 
REMARK       I    between atoms: C_8  and  N_9 
REMARK    6  A    between atoms: N_9  and  C_10 
REMARK    7  A    between atoms: C_19  and  C_20 
REMARK    8  A    between atoms: C_21  and  C_22 
REMARK    9  A    between atoms: C_27  and  C_28 
ROOT
HETATM    1  C   UNL     1      26.159  46.990  50.020  1.00  0.00     0.102 A 
HETATM    2  C   UNL     1      24.751  46.943  49.995  1.00  0.00     0.102 A 
HETATM    3  C   UNL     1      24.100  45.717  49.840  1.00  0.00     0.040 A 
HETATM    4  C   UNL     1      24.842  44.537  49.747  1.00  0.00     0.014 A 
HETATM    5  C   UNL     1      26.238  44.569  49.805  1.00  0.00    -0.033 A 
HETATM    6  C   UNL     1      26.892  45.802  49.917  1.00  0.00     0.051 A 
ENDROOT
BRANCH   2   7
HETATM    7  O   UNL     1      24.110  48.150  50.143  1.00  0.00    -0.339 OA
BRANCH   7   8
HETATM    8  C   UNL     1      23.240  48.579  49.105  1.00  0.00     0.278 C 
BRANCH   8   9
HETATM    9  C   UNL     1      22.371  49.806  49.419  1.00  0.00     0.246 C 
HETATM   10  N   UNL     1      21.072  49.669  48.960  1.00  0.00    -0.325 N 
HETATM   11  H   UNL     1      20.886  48.817  48.438  1.00  0.00     0.169 HD
HETATM   12  O   UNL     1      22.834  50.753  50.048  1.00  0.00    -0.271 OA
BRANCH  10  13
HETATM   13  C   UNL     1      20.019  50.598  49.042  1.00  0.00     0.034 A 
HETATM   14  C   UNL     1      19.972  51.791  48.320  1.00  0.00     0.029 A 
HETATM   15  C   UNL     1      18.882  52.658  48.454  1.00  0.00     0.002 A 
HETATM   16  C   UNL     1      17.833  52.340  49.313  1.00  0.00     0.000 A 
HETATM   17  C   UNL     1      17.872  51.153  50.039  1.00  0.00     0.002 A 
HETATM   18  C   UNL     1      18.960  50.287  49.904  1.00  0.00     0.029 A 
ENDBRANCH  10  13
ENDBRANCH   8   9
ENDBRANCH   7   8
ENDBRANCH   2   7
BRANCH   1  19
HETATM   19  O   UNL     1      26.714  48.234  50.196  1.00  0.00    -0.349 OA
BRANCH  19  20
HETATM   20  C   UNL     1      27.509  48.757  49.134  1.00  0.00     0.171 C 
HETATM   21  C   UNL     1      26.687  49.810  48.412  1.00  0.00     0.034 C 
ENDBRANCH  19  20
ENDBRANCH   1  19
BRANCH   5  22
HETATM   22  C   UNL     1      27.036  43.341  49.753  1.00  0.00     0.014 C 
HETATM   23  C   UNL     1      26.923  42.369  50.675  1.00  0.00     0.035 C 
BRANCH  23  24
HETATM   24  C   UNL     1      27.712  41.171  50.710  1.00  0.00     0.091 A 
HETATM   25  N   UNL     1      28.489  40.830  51.752  1.00  0.00    -0.175 NA
HETATM   26  N   UNL     1      29.031  39.659  51.403  1.00  0.00    -0.288 N 
HETATM   27  H   UNL     1      29.664  39.211  52.059  1.00  0.00     0.188 HD
HETATM   28  C   UNL     1      28.638  39.222  50.176  1.00  0.00     0.126 A 
HETATM   29  C   UNL     1      27.776  40.183  49.683  1.00  0.00     0.049 A 
BRANCH  29  30
HETATM   30  C   UNL     1      27.124  40.117  48.392  1.00  0.00     0.273 C 
HETATM   31  O   UNL     1      26.096  39.489  48.160  1.00  0.00    -0.301 OA
ENDBRANCH  29  30
ENDBRANCH  23  24
ENDBRANCH   5  22
TORSDOF 9
ENDMDL
MODEL 7
REMARK VINA RESULT:      -8.1      3.616      5.318
REMARK  9 active torsions:
REMARK  status: ('A' for Active; 'I' for Inactive)
REMARK    1  A    between atoms: C_2  and  O_3 
REMARK    2  A    between atoms: O_3  and  C_4 
REMARK    3  A    between atoms: C_5  and  O_6 
REMARK    4  A    between atoms: O_6  and  C_7 
REMARK    5  A    between atoms: C_7  and  C_8 
REMARK       I    between atoms: C_8  and  N_9 
REMARK    6  A    between atoms: N_9  and  C_10 
REMARK    7  A    between atoms: C_19  and  C_20 
REMARK    8  A    between atoms: C_21  and  C_22 
REMARK    9  A    between atoms: C_27  and  C_28 
ROOT
HETATM    1  C   UNL     1      25.814  46.544  51.853  1.00  0.00     0.102 A 
HETATM    2  C   UNL     1      25.108  46.784  50.656  1.00  0.00     0.102 A 
HETATM    3  C   UNL     1      25.254  45.909  49.578  1.00  0.00     0.040 A 
HETATM    4  C   UNL     1      26.066  44.779  49.697  1.00  0.00     0.014 A 
HETATM    5  C   UNL     1      26.743  44.513  50.890  1.00  0.00    -0.033 A 
HETATM    6  C   UNL     1      26.632  45.414  51.957  1.00  0.00     0.051 A 
ENDROOT
BRANCH   2   7
HETATM    7  O   UNL     1      24.297  47.894  50.654  1.00  0.00    -0.339 OA
BRANCH   7   8
HETATM    8  C   UNL     1      23.992  48.498  49.404  1.00  0.00     0.278 C 
BRANCH   8   9
HETATM    9  C   UNL     1      22.503  48.758  49.129  1.00  0.00     0.246 C 
HETATM   10  N   UNL     1      22.091  50.003  49.572  1.00  0.00    -0.325 N 
HETATM   11  H   UNL     1      22.799  50.545  50.061  1.00  0.00     0.169 HD
HETATM   12  O   UNL     1      21.822  47.924  48.539  1.00  0.00    -0.271 OA
BRANCH  10  13
HETATM   13  C   UNL     1      20.801  50.562  49.516  1.00  0.00     0.034 A 
HETATM   14  C   UNL     1      19.728  50.131  50.297  1.00  0.00     0.029 A 
HETATM   15  C   UNL     1      18.477  50.747  50.185  1.00  0.00     0.002 A 
HETATM   16  C   UNL     1      18.289  51.798  49.290  1.00  0.00     0.000 A 
HETATM   17  C   UNL     1      19.353  52.235  48.506  1.00  0.00     0.002 A 
HETATM   18  C   UNL     1      20.602  51.620  48.618  1.00  0.00     0.029 A 
ENDBRANCH  10  13
ENDBRANCH   8   9
ENDBRANCH   7   8
ENDBRANCH   2   7
BRANCH   1  19
HETATM   19  O   UNL     1      25.597  47.444  52.867  1.00  0.00    -0.349 OA
BRANCH  19  20
HETATM   20  C   UNL     1      25.871  47.014  54.199  1.00  0.00     0.171 C 
HETATM   21  C   UNL     1      27.011  47.860  54.738  1.00  0.00     0.034 C 
ENDBRANCH  19  20
ENDBRANCH   1  19
BRANCH   5  22
HETATM   22  C   UNL     1      27.567  43.312  51.054  1.00  0.00     0.014 C 
HETATM   23  C   UNL     1      27.308  42.168  50.397  1.00  0.00     0.035 C 
BRANCH  23  24
HETATM   24  C   UNL     1      28.043  40.945  50.554  1.00  0.00     0.091 A 
HETATM   25  N   UNL     1      28.536  40.528  51.733  1.00  0.00    -0.175 NA
HETATM   26  N   UNL     1      29.126  39.360  51.460  1.00  0.00    -0.288 N 
HETATM   27  H   UNL     1      29.572  38.860  52.224  1.00  0.00     0.188 HD
HETATM   28  C   UNL     1      29.036  38.997  50.152  1.00  0.00     0.126 A 
HETATM   29  C   UNL     1      28.338  40.008  49.519  1.00  0.00     0.049 A 
BRANCH  29  30
HETATM   30  C   UNL     1      28.019  40.027  48.107  1.00  0.00     0.273 C 
HETATM   31  O   UNL     1      27.784  39.032  47.431  1.00  0.00    -0.301 OA
ENDBRANCH  29  30
ENDBRANCH  23  24
ENDBRANCH   5  22
TORSDOF 9
ENDMDL
MODEL 8
REMARK VINA RESULT:      -8.1      2.260      2.779
REMARK  9 active torsions:
REMARK  status: ('A' for Active; 'I' for Inactive)
REMARK    1  A    between atoms: C_2  and  O_3 
REMARK    2  A    between atoms: O_3  and  C_4 
REMARK    3  A    between atoms: C_5  and  O_6 
REMARK    4  A    between atoms: O_6  and  C_7 
REMARK    5  A    between atoms: C_7  and  C_8 
REMARK       I    between atoms: C_8  and  N_9 
REMARK    6  A    between atoms: N_9  and  C_10 
REMARK    7  A    between atoms: C_19  and  C_20 
REMARK    8  A    between atoms: C_21  and  C_22 
REMARK    9  A    between atoms: C_27  and  C_28 
ROOT
HETATM    1  C   UNL     1      24.957  45.051  50.046  1.00  0.00     0.102 A 
HETATM    2  C   UNL     1      24.592  46.378  50.352  1.00  0.00     0.102 A 
HETATM    3  C   UNL     1      25.129  47.002  51.480  1.00  0.00     0.040 A 
HETATM    4  C   UNL     1      26.053  46.328  52.281  1.00  0.00     0.014 A 
HETATM    5  C   UNL     1      26.448  45.025  51.967  1.00  0.00    -0.033 A 
HETATM    6  C   UNL     1      25.877  44.383  50.861  1.00  0.00     0.051 A 
ENDROOT
BRANCH   2   7
HETATM    7  O   UNL     1      23.715  46.973  49.477  1.00  0.00    -0.339 OA
BRANCH   7   8
HETATM    8  C   UNL     1      23.508  48.375  49.585  1.00  0.00     0.278 C 
BRANCH   8   9
HETATM    9  C   UNL     1      22.194  48.908  48.995  1.00  0.00     0.246 C 
HETATM   10  N   UNL     1      21.675  49.965  49.724  1.00  0.00    -0.325 N 
HETATM   11  H   UNL     1      22.191  50.205  50.565  1.00  0.00     0.169 HD
HETATM   12  O   UNL     1      21.733  48.428  47.963  1.00  0.00    -0.271 OA
BRANCH  10  13
HETATM   13  C   UNL     1      20.481  50.673  49.496  1.00  0.00     0.034 A 
HETATM   14  C   UNL     1      20.350  51.703  48.563  1.00  0.00     0.029 A 
HETATM   15  C   UNL     1      19.123  52.353  48.392  1.00  0.00     0.002 A 
HETATM   16  C   UNL     1      18.018  51.979  49.154  1.00  0.00     0.000 A 
HETATM   17  C   UNL     1      18.139  50.953  50.088  1.00  0.00     0.002 A 
HETATM   18  C   UNL     1      19.364  50.304  50.257  1.00  0.00     0.029 A 
ENDBRANCH  10  13
ENDBRANCH   8   9
ENDBRANCH   7   8
ENDBRANCH   2   7
BRANCH   1  19
HETATM   19  O   UNL     1      24.398  44.523  48.908  1.00  0.00    -0.349 OA
BRANCH  19  20
HETATM   20  C   UNL     1      24.379  43.103  48.782  1.00  0.00     0.171 C 
HETATM   21  C   UNL     1      23.081  42.597  49.386  1.00  0.00     0.034 C 
ENDBRANCH  19  20
ENDBRANCH   1  19
BRANCH   5  22
HETATM   22  C   UNL     1      27.448  44.313  52.768  1.00  0.00     0.014 C 
HETATM   23  C   UNL     1      28.140  44.911  53.753  1.00  0.00     0.035 C 
BRANCH  23  24
HETATM   24  C   UNL     1      29.167  44.285  54.535  1.00  0.00     0.091 A 
HETATM   25  N   UNL     1      29.733  43.111  54.204  1.00  0.00    -0.175 NA
HETATM   26  N   UNL     1      30.638  42.887  55.162  1.00  0.00    -0.288 N 
HETATM   27  H   UNL     1      31.193  42.039  55.106  1.00  0.00     0.188 HD
HETATM   28  C   UNL     1      30.687  43.869  56.103  1.00  0.00     0.126 A 
HETATM   29  C   UNL     1      29.738  44.803  55.736  1.00  0.00     0.049 A 
BRANCH  29  30
HETATM   30  C   UNL     1      29.452  46.018  56.470  1.00  0.00     0.273 C 
HETATM   31  O   UNL     1      28.357  46.307  56.942  1.00  0.00    -0.301 OA
ENDBRANCH  29  30
ENDBRANCH  23  24
ENDBRANCH   5  22
TORSDOF 9
ENDMDL
MODEL 9
REMARK VINA RESULT:      -8.0      2.290      3.223
REMARK  9 active torsions:
REMARK  status: ('A' for Active; 'I' for Inactive)
REMARK    1  A    between atoms: C_2  and  O_3 
REMARK    2  A    between atoms: O_3  and  C_4 
REMARK    3  A    between atoms: C_5  and  O_6 
REMARK    4  A    between atoms: O_6  and  C_7 
REMARK    5  A    between atoms: C_7  and  C_8 
REMARK       I    between atoms: C_8  and  N_9 
REMARK    6  A    between atoms: N_9  and  C_10 
REMARK    7  A    between atoms: C_19  and  C_20 
REMARK    8  A    between atoms: C_21  and  C_22 
REMARK    9  A    between atoms: C_27  and  C_28 
ROOT
HETATM    1  C   UNL     1      26.208  45.159  50.016  1.00  0.00     0.102 A 
HETATM    2  C   UNL     1      25.198  44.253  49.634  1.00  0.00     0.102 A 
HETATM    3  C   UNL     1      25.018  43.071  50.354  1.00  0.00     0.040 A 
HETATM    4  C   UNL     1      25.810  42.805  51.473  1.00  0.00     0.014 A 
HETATM    5  C   UNL     1      26.791  43.713  51.881  1.00  0.00    -0.033 A 
HETATM    6  C   UNL     1      27.001  44.877  51.133  1.00  0.00     0.051 A 
ENDROOT
BRANCH   2   7
HETATM    7  O   UNL     1      24.438  44.627  48.551  1.00  0.00    -0.339 OA
BRANCH   7   8
HETATM    8  C   UNL     1      23.064  44.916  48.764  1.00  0.00     0.278 C 
BRANCH   8   9
HETATM    9  C   UNL     1      22.560  46.250  48.193  1.00  0.00     0.246 C 
HETATM   10  N   UNL     1      22.551  47.263  49.137  1.00  0.00    -0.325 N 
HETATM   11  H   UNL     1      22.820  46.981  50.076  1.00  0.00     0.169 HD
HETATM   12  O   UNL     1      22.254  46.346  47.008  1.00  0.00    -0.271 OA
BRANCH  10  13
HETATM   13  C   UNL     1      22.127  48.595  48.979  1.00  0.00     0.034 A 
HETATM   14  C   UNL     1      20.811  49.021  49.156  1.00  0.00     0.029 A 
HETATM   15  C   UNL     1      20.473  50.369  48.986  1.00  0.00     0.002 A 
HETATM   16  C   UNL     1      21.450  51.299  48.636  1.00  0.00     0.000 A 
HETATM   17  C   UNL     1      22.766  50.882  48.457  1.00  0.00     0.002 A 
HETATM   18  C   UNL     1      23.102  49.537  48.627  1.00  0.00     0.029 A 
ENDBRANCH  10  13
ENDBRANCH   8   9
ENDBRANCH   7   8
ENDBRANCH   2   7
BRANCH   1  19
HETATM   19  O   UNL     1      26.301  46.305  49.264  1.00  0.00    -0.349 OA
BRANCH  19  20
HETATM   20  C   UNL     1      26.008  47.542  49.909  1.00  0.00     0.171 C 
HETATM   21  C   UNL     1      26.930  48.601  49.330  1.00  0.00     0.034 C 
ENDBRANCH  19  20
ENDBRANCH   1  19
BRANCH   5  22
HETATM   22  C   UNL     1      27.606  43.476  53.076  1.00  0.00     0.014 C 
HETATM   23  C   UNL     1      28.623  44.284  53.426  1.00  0.00     0.035 C 
BRANCH  23  24
HETATM   24  C   UNL     1      29.489  44.077  54.550  1.00  0.00     0.091 A 
HETATM   25  N   UNL     1      30.313  43.020  54.661  1.00  0.00    -0.175 NA
HETATM   26  N   UNL     1      30.948  43.205  55.823  1.00  0.00    -0.288 N 
HETATM   27  H   UNL     1      31.632  42.511  56.109  1.00  0.00     0.188 HD
HETATM   28  C   UNL     1      30.574  44.340  56.472  1.00  0.00     0.126 A 
HETATM   29  C   UNL     1      29.617  44.942  55.678  1.00  0.00     0.049 A 
BRANCH  29  30
HETATM   30  C   UNL     1      28.943  46.182  55.999  1.00  0.00     0.273 C 
HETATM   31  O   UNL     1      28.647  47.048  55.183  1.00  0.00    -0.301 OA
ENDBRANCH  29  30
ENDBRANCH  23  24
ENDBRANCH   5  22
TORSDOF 9
ENDMDL
MODEL 10
REMARK VINA RESULT:      -7.9      2.637      4.452
REMARK  9 active torsions:
REMARK  status: ('A' for Active; 'I' for Inactive)
REMARK    1  A    between atoms: C_2  and  O_3 
REMARK    2  A    between atoms: O_3  and  C_4 
REMARK    3  A    between atoms: C_5  and  O_6 
REMARK    4  A    between atoms: O_6  and  C_7 
REMARK    5  A    between atoms: C_7  and  C_8 
REMARK       I    between atoms: C_8  and  N_9 
REMARK    6  A    between atoms: N_9  and  C_10 
REMARK    7  A    between atoms: C_19  and  C_20 
REMARK    8  A    between atoms: C_21  and  C_22 
REMARK    9  A    between atoms: C_27  and  C_28 
ROOT
HETATM    1  C   UNL     1      23.917  47.205  49.309  1.00  0.00     0.102 A 
HETATM    2  C   UNL     1      23.178  46.022  49.109  1.00  0.00     0.102 A 
HETATM    3  C   UNL     1      23.520  44.864  49.809  1.00  0.00     0.040 A 
HETATM    4  C   UNL     1      24.568  44.887  50.733  1.00  0.00     0.014 A 
HETATM    5  C   UNL     1      25.285  46.064  50.964  1.00  0.00    -0.033 A 
HETATM    6  C   UNL     1      24.970  47.214  50.230  1.00  0.00     0.051 A 
ENDROOT
BRANCH   2   7
HETATM    7  O   UNL     1      22.136  46.112  48.217  1.00  0.00    -0.339 OA
BRANCH   7   8
HETATM    8  C   UNL     1      20.815  45.934  48.710  1.00  0.00     0.278 C 
BRANCH   8   9
HETATM    9  C   UNL     1      19.873  47.138  48.559  1.00  0.00     0.246 C 
HETATM   10  N   UNL     1      20.526  48.348  48.722  1.00  0.00    -0.325 N 
HETATM   11  H   UNL     1      21.509  48.278  48.970  1.00  0.00     0.169 HD
HETATM   12  O   UNL     1      18.688  46.972  48.283  1.00  0.00    -0.271 OA
BRANCH  10  13
HETATM   13  C   UNL     1      19.978  49.643  48.683  1.00  0.00     0.034 A 
HETATM   14  C   UNL     1      19.573  50.284  47.512  1.00  0.00     0.029 A 
HETATM   15  C   UNL     1      19.030  51.572  47.560  1.00  0.00     0.002 A 
HETATM   16  C   UNL     1      18.890  52.230  48.781  1.00  0.00     0.000 A 
HETATM   17  C   UNL     1      19.293  51.599  49.954  1.00  0.00     0.002 A 
HETATM   18  C   UNL     1      19.834  50.312  49.905  1.00  0.00     0.029 A 
ENDBRANCH  10  13
ENDBRANCH   8   9
ENDBRANCH   7   8
ENDBRANCH   2   7
BRANCH   1  19
HETATM   19  O   UNL     1      23.499  48.301  48.594  1.00  0.00    -0.349 OA
BRANCH  19  20
HETATM   20  C   UNL     1      24.315  49.470  48.642  1.00  0.00     0.171 C 
HETATM   21  C   UNL     1      23.530  50.613  48.023  1.00  0.00     0.034 C 
ENDBRANCH  19  20
ENDBRANCH   1  19
BRANCH   5  22
HETATM   22  C   UNL     1      26.360  46.125  51.959  1.00  0.00     0.014 C 
HETATM   23  C   UNL     1      26.240  45.578  53.181  1.00  0.00     0.035 C 
BRANCH  23  24
HETATM   24  C   UNL     1      27.232  45.650  54.215  1.00  0.00     0.091 A 
HETATM   25  N   UNL     1      28.060  44.634  54.514  1.00  0.00    -0.175 NA
HETATM   26  N   UNL     1      28.828  45.100  55.504  1.00  0.00    -0.288 N 
HETATM   27  H   UNL     1      29.538  44.484  55.888  1.00  0.00     0.188 HD
HETATM   28  C   UNL     1      28.537  46.380  55.860  1.00  0.00     0.126 A 
HETATM   29  C   UNL     1      27.495  46.780  55.046  1.00  0.00     0.049 A 
BRANCH  29  30
HETATM   30  C   UNL     1      26.867  48.084  55.094  1.00  0.00     0.273 C 
HETATM   31  O   UNL     1      25.736  48.299  55.516  1.00  0.00    -0.301 OA
ENDBRANCH  29  30
ENDBRANCH  23  24
ENDBRANCH   5  22
TORSDOF 9
ENDMDL
