MODEL 1
REMARK VINA RESULT:      -6.9      0.000      0.000
REMARK  3 active torsions:
REMARK  status: ('A' for Active; 'I' for Inactive)
REMARK    1  A    between atoms: C_2  and  C_3 
REMARK    2  A    between atoms: C_4  and  N_5 
REMARK    3  A    between atoms: C_18  and  C_19 
ROOT
HETATM    1  N   UNL     1      29.833  49.942  40.903  1.00  0.00    -0.320 N 
HETATM    2  C   UNL     1      30.045  49.151  42.080  1.00  0.00     0.141 C 
HETATM    3  N   UNL     1      29.111  48.410  42.603  1.00  0.00    -0.380 N 
HETATM    4  H   UNL     1      28.199  48.392  42.168  1.00  0.00     0.158 HD
HETATM    5  H   UNL     1      29.307  47.869  43.434  1.00  0.00     0.158 HD
HETATM    6  S   UNL     1      31.649  49.284  42.711  1.00  0.00    -0.086 SA
HETATM    7  C   UNL     1      31.972  50.705  41.617  1.00  0.00     0.093 C 
HETATM    8  C   UNL     1      31.125  50.393  40.363  1.00  0.00     0.121 C 
HETATM    9  C   UNL     1      33.350  51.019  41.087  1.00  0.00     0.158 C 
HETATM   10  S   UNL     1      32.956  52.060  39.665  1.00  0.00     0.147 S 
HETATM   11  O   UNL     1      33.089  53.445  40.058  1.00  0.00    -0.228 OA
HETATM   12  O   UNL     1      33.620  51.508  38.504  1.00  0.00    -0.228 OA
HETATM   13  C   UNL     1      31.201  51.667  39.556  1.00  0.00     0.167 C 
ENDROOT
BRANCH   1  14
HETATM   14  C   UNL     1      28.782  49.754  39.986  1.00  0.00     0.049 A 
HETATM   15  C   UNL     1      27.614  50.551  40.115  1.00  0.00    -0.031 A 
HETATM   16  C   UNL     1      26.513  50.311  39.274  1.00  0.00     0.009 A 
HETATM   17  C   UNL     1      26.555  49.315  38.307  1.00  0.00     0.001 A 
HETATM   18  C   UNL     1      27.698  48.538  38.170  1.00  0.00     0.009 A 
HETATM   19  C   UNL     1      28.819  48.738  38.998  1.00  0.00    -0.031 A 
BRANCH  15  20
HETATM   20  C   UNL     1      27.477  51.645  41.158  1.00  0.00     0.036 C 
HETATM   21  C   UNL     1      28.199  52.930  40.770  1.00  0.00     0.010 C 
ENDBRANCH  15  20
BRANCH  19  22
HETATM   22  C   UNL     1      30.009  47.830  38.758  1.00  0.00     0.036 C 
HETATM   23  C   UNL     1      29.868  46.493  39.477  1.00  0.00     0.010 C 
ENDBRANCH  19  22
ENDBRANCH   1  14
TORSDOF 3
ENDMDL
MODEL 2
REMARK VINA RESULT:      -6.7      3.307      5.352
REMARK  3 active torsions:
REMARK  status: ('A' for Active; 'I' for Inactive)
REMARK    1  A    between atoms: C_2  and  C_3 
REMARK    2  A    between atoms: C_4  and  N_5 
REMARK    3  A    between atoms: C_18  and  C_19 
ROOT
HETATM    1  N   UNL     1      30.033  49.956  40.585  1.00  0.00    -0.320 N 
HETATM    2  C   UNL     1      28.973  50.670  41.235  1.00  0.00     0.141 C 
HETATM    3  N   UNL     1      29.149  51.837  41.786  1.00  0.00    -0.380 N 
HETATM    4  H   UNL     1      30.068  52.257  41.760  1.00  0.00     0.158 HD
HETATM    5  H   UNL     1      28.372  52.303  42.233  1.00  0.00     0.158 HD
HETATM    6  S   UNL     1      27.463  49.828  41.203  1.00  0.00    -0.086 SA
HETATM    7  C   UNL     1      28.307  48.317  40.635  1.00  0.00     0.093 C 
HETATM    8  C   UNL     1      29.476  48.856  39.782  1.00  0.00     0.121 C 
HETATM    9  C   UNL     1      27.627  47.293  39.760  1.00  0.00     0.158 C 
HETATM   10  S   UNL     1      29.046  46.426  39.057  1.00  0.00     0.147 S 
HETATM   11  O   UNL     1      29.275  45.220  39.822  1.00  0.00    -0.228 OA
HETATM   12  O   UNL     1      28.907  46.425  37.617  1.00  0.00    -0.228 OA
HETATM   13  C   UNL     1      30.311  47.630  39.504  1.00  0.00     0.167 C 
ENDROOT
BRANCH   1  14
HETATM   14  C   UNL     1      31.237  50.534  40.141  1.00  0.00     0.049 A 
HETATM   15  C   UNL     1      32.365  50.504  41.002  1.00  0.00    -0.031 A 
HETATM   16  C   UNL     1      33.548  51.162  40.621  1.00  0.00     0.009 A 
HETATM   17  C   UNL     1      33.635  51.829  39.406  1.00  0.00     0.001 A 
HETATM   18  C   UNL     1      32.538  51.853  38.555  1.00  0.00     0.009 A 
HETATM   19  C   UNL     1      31.331  51.216  38.902  1.00  0.00    -0.031 A 
BRANCH  15  20
HETATM   20  C   UNL     1      32.348  49.817  42.356  1.00  0.00     0.036 C 
HETATM   21  C   UNL     1      32.235  50.797  43.518  1.00  0.00     0.010 C 
ENDBRANCH  15  20
BRANCH  19  22
HETATM   22  C   UNL     1      30.202  51.310  37.896  1.00  0.00     0.036 C 
HETATM   23  C   UNL     1      29.324  52.535  38.128  1.00  0.00     0.010 C 
ENDBRANCH  19  22
ENDBRANCH   1  14
TORSDOF 3
ENDMDL
MODEL 3
REMARK VINA RESULT:      -6.5      3.941      5.500
REMARK  3 active torsions:
REMARK  status: ('A' for Active; 'I' for Inactive)
REMARK    1  A    between atoms: C_2  and  C_3 
REMARK    2  A    between atoms: C_4  and  N_5 
REMARK    3  A    between atoms: C_18  and  C_19 
ROOT
HETATM    1  N   UNL     1      29.127  49.284  39.545  1.00  0.00    -0.320 N 
HETATM    2  C   UNL     1      30.107  48.406  38.975  1.00  0.00     0.141 C 
HETATM    3  N   UNL     1      31.354  48.750  38.828  1.00  0.00    -0.380 N 
HETATM    4  H   UNL     1      31.646  49.672  39.124  1.00  0.00     0.158 HD
HETATM    5  H   UNL     1      32.010  48.098  38.422  1.00  0.00     0.158 HD
HETATM    6  S   UNL     1      29.461  46.869  38.516  1.00  0.00    -0.086 SA
HETATM    7  C   UNL     1      27.768  47.504  38.739  1.00  0.00     0.093 C 
HETATM    8  C   UNL     1      27.914  48.525  39.889  1.00  0.00     0.121 C 
HETATM    9  C   UNL     1      26.621  46.615  39.153  1.00  0.00     0.158 C 
HETATM   10  S   UNL     1      25.441  47.826  39.785  1.00  0.00     0.147 S 
HETATM   11  O   UNL     1      24.480  48.120  38.744  1.00  0.00    -0.228 OA
HETATM   12  O   UNL     1      25.051  47.424  41.119  1.00  0.00    -0.228 OA
HETATM   13  C   UNL     1      26.574  49.220  39.921  1.00  0.00     0.167 C 
ENDROOT
BRANCH   1  14
HETATM   14  C   UNL     1      29.420  50.418  40.326  1.00  0.00     0.049 A 
HETATM   15  C   UNL     1      29.239  51.704  39.754  1.00  0.00    -0.031 A 
HETATM   16  C   UNL     1      29.620  52.848  40.479  1.00  0.00     0.009 A 
HETATM   17  C   UNL     1      30.159  52.738  41.754  1.00  0.00     0.001 A 
HETATM   18  C   UNL     1      30.329  51.483  42.323  1.00  0.00     0.009 A 
HETATM   19  C   UNL     1      29.971  50.312  41.628  1.00  0.00    -0.031 A 
BRANCH  15  20
HETATM   20  C   UNL     1      28.678  51.912  38.358  1.00  0.00     0.036 C 
HETATM   21  C   UNL     1      28.753  53.364  37.898  1.00  0.00     0.010 C 
ENDBRANCH  15  20
BRANCH  19  22
HETATM   22  C   UNL     1      30.204  48.999  42.347  1.00  0.00     0.036 C 
HETATM   23  C   UNL     1      31.686  48.723  42.576  1.00  0.00     0.010 C 
ENDBRANCH  19  22
ENDBRANCH   1  14
TORSDOF 3
ENDMDL
MODEL 4
REMARK VINA RESULT:      -6.5      3.330      5.230
REMARK  3 active torsions:
REMARK  status: ('A' for Active; 'I' for Inactive)
REMARK    1  A    between atoms: C_2  and  C_3 
REMARK    2  A    between atoms: C_4  and  N_5 
REMARK    3  A    between atoms: C_18  and  C_19 
ROOT
HETATM    1  N   UNL     1      29.935  49.891  40.572  1.00  0.00    -0.320 N 
HETATM    2  C   UNL     1      28.839  50.566  41.203  1.00  0.00     0.141 C 
HETATM    3  N   UNL     1      28.968  51.731  41.771  1.00  0.00    -0.380 N 
HETATM    4  H   UNL     1      29.874  52.178  41.772  1.00  0.00     0.158 HD
HETATM    5  H   UNL     1      28.167  52.170  42.204  1.00  0.00     0.158 HD
HETATM    6  S   UNL     1      27.355  49.682  41.125  1.00  0.00    -0.086 SA
HETATM    7  C   UNL     1      28.257  48.202  40.562  1.00  0.00     0.093 C 
HETATM    8  C   UNL     1      29.431  48.784  39.743  1.00  0.00     0.121 C 
HETATM    9  C   UNL     1      27.629  47.169  39.660  1.00  0.00     0.158 C 
HETATM   10  S   UNL     1      29.089  46.351  38.982  1.00  0.00     0.147 S 
HETATM   11  O   UNL     1      29.334  45.144  39.740  1.00  0.00    -0.228 OA
HETATM   12  O   UNL     1      28.985  46.363  37.540  1.00  0.00    -0.228 OA
HETATM   13  C   UNL     1      30.307  47.585  39.473  1.00  0.00     0.167 C 
ENDROOT
BRANCH   1  14
HETATM   14  C   UNL     1      31.133  50.508  40.164  1.00  0.00     0.049 A 
HETATM   15  C   UNL     1      31.174  51.143  38.896  1.00  0.00    -0.031 A 
HETATM   16  C   UNL     1      32.387  51.678  38.426  1.00  0.00     0.009 A 
HETATM   17  C   UNL     1      33.544  51.606  39.191  1.00  0.00     0.001 A 
HETATM   18  C   UNL     1      33.507  50.994  40.437  1.00  0.00     0.009 A 
HETATM   19  C   UNL     1      32.317  50.436  40.941  1.00  0.00    -0.031 A 
BRANCH  15  20
HETATM   20  C   UNL     1      29.962  51.246  37.988  1.00  0.00     0.036 C 
HETATM   21  C   UNL     1      29.211  52.563  38.145  1.00  0.00     0.010 C 
ENDBRANCH  15  20
BRANCH  19  22
HETATM   22  C   UNL     1      32.397  49.793  42.311  1.00  0.00     0.036 C 
HETATM   23  C   UNL     1      32.288  50.816  43.435  1.00  0.00     0.010 C 
ENDBRANCH  19  22
ENDBRANCH   1  14
TORSDOF 3
ENDMDL
MODEL 5
REMARK VINA RESULT:      -6.5     12.220     14.130
REMARK  3 active torsions:
REMARK  status: ('A' for Active; 'I' for Inactive)
REMARK    1  A    between atoms: C_2  and  C_3 
REMARK    2  A    between atoms: C_4  and  N_5 
REMARK    3  A    between atoms: C_18  and  C_19 
ROOT
HETATM    1  N   UNL     1      19.200  48.540  48.171  1.00  0.00    -0.320 N 
HETATM    2  C   UNL     1      18.560  47.955  49.313  1.00  0.00     0.141 C 
HETATM    3  N   UNL     1      19.173  47.787  50.450  1.00  0.00    -0.380 N 
HETATM    4  H   UNL     1      20.138  48.076  50.533  1.00  0.00     0.158 HD
HETATM    5  H   UNL     1      18.681  47.371  51.228  1.00  0.00     0.158 HD
HETATM    6  S   UNL     1      16.915  47.511  49.021  1.00  0.00    -0.086 SA
HETATM    7  C   UNL     1      17.156  47.760  47.232  1.00  0.00     0.093 C 
HETATM    8  C   UNL     1      18.191  48.905  47.164  1.00  0.00     0.121 C 
HETATM    9  C   UNL     1      16.036  48.195  46.320  1.00  0.00     0.158 C 
HETATM   10  S   UNL     1      16.956  48.844  44.909  1.00  0.00     0.147 S 
HETATM   11  O   UNL     1      17.022  47.819  43.891  1.00  0.00    -0.228 OA
HETATM   12  O   UNL     1      16.485  50.185  44.641  1.00  0.00    -0.228 OA
HETATM   13  C   UNL     1      18.569  48.958  45.704  1.00  0.00     0.167 C 
ENDROOT
BRANCH   1  14
HETATM   14  C   UNL     1      20.375  49.313  48.216  1.00  0.00     0.049 A 
HETATM   15  C   UNL     1      21.600  48.714  47.824  1.00  0.00    -0.031 A 
HETATM   16  C   UNL     1      22.801  49.435  47.956  1.00  0.00     0.009 A 
HETATM   17  C   UNL     1      22.804  50.732  48.450  1.00  0.00     0.001 A 
HETATM   18  C   UNL     1      21.607  51.328  48.826  1.00  0.00     0.009 A 
HETATM   19  C   UNL     1      20.384  50.638  48.721  1.00  0.00    -0.031 A 
BRANCH  15  20
HETATM   20  C   UNL     1      21.689  47.293  47.294  1.00  0.00     0.036 C 
HETATM   21  C   UNL     1      22.416  46.349  48.245  1.00  0.00     0.010 C 
ENDBRANCH  15  20
BRANCH  19  22
HETATM   22  C   UNL     1      19.144  51.388  49.162  1.00  0.00     0.036 C 
HETATM   23  C   UNL     1      18.825  52.563  48.246  1.00  0.00     0.010 C 
ENDBRANCH  19  22
ENDBRANCH   1  14
TORSDOF 3
ENDMDL
MODEL 6
REMARK VINA RESULT:      -6.4     11.961     13.748
REMARK  3 active torsions:
REMARK  status: ('A' for Active; 'I' for Inactive)
REMARK    1  A    between atoms: C_2  and  C_3 
REMARK    2  A    between atoms: C_4  and  N_5 
REMARK    3  A    between atoms: C_18  and  C_19 
ROOT
HETATM    1  N   UNL     1      26.148  43.910  52.057  1.00  0.00    -0.320 N 
HETATM    2  C   UNL     1      26.082  44.148  53.470  1.00  0.00     0.141 C 
HETATM    3  N   UNL     1      26.105  43.184  54.345  1.00  0.00    -0.380 N 
HETATM    4  H   UNL     1      26.169  42.229  54.019  1.00  0.00     0.158 HD
HETATM    5  H   UNL     1      26.057  43.399  55.330  1.00  0.00     0.158 HD
HETATM    6  S   UNL     1      25.975  45.826  53.875  1.00  0.00    -0.086 SA
HETATM    7  C   UNL     1      25.640  46.234  52.131  1.00  0.00     0.093 C 
HETATM    8  C   UNL     1      26.439  45.167  51.351  1.00  0.00     0.121 C 
HETATM    9  C   UNL     1      26.049  47.551  51.518  1.00  0.00     0.158 C 
HETATM   10  S   UNL     1      26.032  47.146  49.759  1.00  0.00     0.147 S 
HETATM   11  O   UNL     1      24.773  47.586  49.197  1.00  0.00    -0.228 OA
HETATM   12  O   UNL     1      27.312  47.517  49.197  1.00  0.00    -0.228 OA
HETATM   13  C   UNL     1      25.982  45.353  49.924  1.00  0.00     0.167 C 
ENDROOT
BRANCH   1  14
HETATM   14  C   UNL     1      26.600  42.717  51.463  1.00  0.00     0.049 A 
HETATM   15  C   UNL     1      25.661  41.891  50.793  1.00  0.00    -0.031 A 
HETATM   16  C   UNL     1      26.071  40.647  50.280  1.00  0.00     0.009 A 
HETATM   17  C   UNL     1      27.387  40.221  50.406  1.00  0.00     0.001 A 
HETATM   18  C   UNL     1      28.313  41.030  51.051  1.00  0.00     0.009 A 
HETATM   19  C   UNL     1      27.942  42.277  51.589  1.00  0.00    -0.031 A 
BRANCH  15  20
HETATM   20  C   UNL     1      24.200  42.270  50.632  1.00  0.00     0.036 C 
HETATM   21  C   UNL     1      23.732  42.227  49.182  1.00  0.00     0.010 C 
ENDBRANCH  15  20
BRANCH  19  22
HETATM   22  C   UNL     1      29.037  43.071  52.272  1.00  0.00     0.036 C 
HETATM   23  C   UNL     1      29.595  42.351  53.494  1.00  0.00     0.010 C 
ENDBRANCH  19  22
ENDBRANCH   1  14
TORSDOF 3
ENDMDL
MODEL 7
REMARK VINA RESULT:      -6.3     12.159     13.795
REMARK  3 active torsions:
REMARK  status: ('A' for Active; 'I' for Inactive)
REMARK    1  A    between atoms: C_2  and  C_3 
REMARK    2  A    between atoms: C_4  and  N_5 
REMARK    3  A    between atoms: C_18  and  C_19 
ROOT
HETATM    1  N   UNL     1      19.246  48.460  48.282  1.00  0.00    -0.320 N 
HETATM    2  C   UNL     1      18.515  47.980  49.419  1.00  0.00     0.141 C 
HETATM    3  N   UNL     1      19.051  47.872  50.601  1.00  0.00    -0.380 N 
HETATM    4  H   UNL     1      20.020  48.132  50.725  1.00  0.00     0.158 HD
HETATM    5  H   UNL     1      18.497  47.529  51.373  1.00  0.00     0.158 HD
HETATM    6  S   UNL     1      16.875  47.573  49.053  1.00  0.00    -0.086 SA
HETATM    7  C   UNL     1      17.235  47.686  47.271  1.00  0.00     0.093 C 
HETATM    8  C   UNL     1      18.315  48.787  47.190  1.00  0.00     0.121 C 
HETATM    9  C   UNL     1      16.190  48.093  46.262  1.00  0.00     0.158 C 
HETATM   10  S   UNL     1      17.219  48.609  44.871  1.00  0.00     0.147 S 
HETATM   11  O   UNL     1      17.307  47.512  43.932  1.00  0.00    -0.228 OA
HETATM   12  O   UNL     1      16.817  49.943  44.481  1.00  0.00    -0.228 OA
HETATM   13  C   UNL     1      18.784  48.723  45.757  1.00  0.00     0.167 C 
ENDROOT
BRANCH   1  14
HETATM   14  C   UNL     1      20.446  49.193  48.348  1.00  0.00     0.049 A 
HETATM   15  C   UNL     1      20.387  50.564  48.711  1.00  0.00    -0.031 A 
HETATM   16  C   UNL     1      21.560  51.340  48.686  1.00  0.00     0.009 A 
HETATM   17  C   UNL     1      22.779  50.782  48.325  1.00  0.00     0.001 A 
HETATM   18  C   UNL     1      22.844  49.438  47.978  1.00  0.00     0.009 A 
HETATM   19  C   UNL     1      21.693  48.628  47.980  1.00  0.00    -0.031 A 
BRANCH  15  20
HETATM   20  C   UNL     1      19.093  51.258  49.097  1.00  0.00     0.036 C 
HETATM   21  C   UNL     1      18.845  52.536  48.303  1.00  0.00     0.010 C 
ENDBRANCH  15  20
BRANCH  19  22
HETATM   22  C   UNL     1      21.885  47.178  47.582  1.00  0.00     0.036 C 
HETATM   23  C   UNL     1      22.796  46.431  48.549  1.00  0.00     0.010 C 
ENDBRANCH  19  22
ENDBRANCH   1  14
TORSDOF 3
ENDMDL
MODEL 8
REMARK VINA RESULT:      -6.2      3.982      5.831
REMARK  3 active torsions:
REMARK  status: ('A' for Active; 'I' for Inactive)
REMARK    1  A    between atoms: C_2  and  C_3 
REMARK    2  A    between atoms: C_4  and  N_5 
REMARK    3  A    between atoms: C_18  and  C_19 
ROOT
HETATM    1  N   UNL     1      29.019  49.180  39.510  1.00  0.00    -0.320 N 
HETATM    2  C   UNL     1      30.014  48.298  38.975  1.00  0.00     0.141 C 
HETATM    3  N   UNL     1      31.255  48.659  38.813  1.00  0.00    -0.380 N 
HETATM    4  H   UNL     1      31.530  49.597  39.071  1.00  0.00     0.158 HD
HETATM    5  H   UNL     1      31.922  48.003  38.432  1.00  0.00     0.158 HD
HETATM    6  S   UNL     1      29.397  46.732  38.579  1.00  0.00    -0.086 SA
HETATM    7  C   UNL     1      27.693  47.344  38.778  1.00  0.00     0.093 C 
HETATM    8  C   UNL     1      27.820  48.413  39.886  1.00  0.00     0.121 C 
HETATM    9  C   UNL     1      26.563  46.451  39.229  1.00  0.00     0.158 C 
HETATM   10  S   UNL     1      25.361  47.665  39.813  1.00  0.00     0.147 S 
HETATM   11  O   UNL     1      24.394  47.899  38.763  1.00  0.00    -0.228 OA
HETATM   12  O   UNL     1      24.979  47.309  41.163  1.00  0.00    -0.228 OA
HETATM   13  C   UNL     1      26.468  49.084  39.891  1.00  0.00     0.167 C 
ENDROOT
BRANCH   1  14
HETATM   14  C   UNL     1      29.291  50.350  40.244  1.00  0.00     0.049 A 
HETATM   15  C   UNL     1      29.801  50.224  41.562  1.00  0.00    -0.031 A 
HETATM   16  C   UNL     1      29.986  51.375  42.349  1.00  0.00     0.009 A 
HETATM   17  C   UNL     1      29.690  52.637  41.851  1.00  0.00     0.001 A 
HETATM   18  C   UNL     1      29.200  52.767  40.558  1.00  0.00     0.009 A 
HETATM   19  C   UNL     1      28.990  51.641  39.740  1.00  0.00    -0.031 A 
BRANCH  15  20
HETATM   20  C   UNL     1      30.129  48.882  42.193  1.00  0.00     0.036 C 
HETATM   21  C   UNL     1      31.595  48.755  42.591  1.00  0.00     0.010 C 
ENDBRANCH  15  20
BRANCH  19  22
HETATM   22  C   UNL     1      28.451  51.905  38.349  1.00  0.00     0.036 C 
HETATM   23  C   UNL     1      28.784  53.309  37.859  1.00  0.00     0.010 C 
ENDBRANCH  19  22
ENDBRANCH   1  14
TORSDOF 3
ENDMDL
MODEL 9
REMARK VINA RESULT:      -6.1     11.895     13.703
REMARK  3 active torsions:
REMARK  status: ('A' for Active; 'I' for Inactive)
REMARK    1  A    between atoms: C_2  and  C_3 
REMARK    2  A    between atoms: C_4  and  N_5 
REMARK    3  A    between atoms: C_18  and  C_19 
ROOT
HETATM    1  N   UNL     1      26.044  43.959  52.047  1.00  0.00    -0.320 N 
HETATM    2  C   UNL     1      26.026  44.205  53.459  1.00  0.00     0.141 C 
HETATM    3  N   UNL     1      26.006  43.243  54.337  1.00  0.00    -0.380 N 
HETATM    4  H   UNL     1      26.001  42.285  54.014  1.00  0.00     0.158 HD
HETATM    5  H   UNL     1      25.994  43.464  55.323  1.00  0.00     0.158 HD
HETATM    6  S   UNL     1      26.035  45.887  53.860  1.00  0.00    -0.086 SA
HETATM    7  C   UNL     1      25.688  46.312  52.122  1.00  0.00     0.093 C 
HETATM    8  C   UNL     1      26.399  45.193  51.329  1.00  0.00     0.121 C 
HETATM    9  C   UNL     1      26.166  47.598  51.495  1.00  0.00     0.158 C 
HETATM   10  S   UNL     1      26.084  47.190  49.738  1.00  0.00     0.147 S 
HETATM   11  O   UNL     1      24.844  47.708  49.203  1.00  0.00    -0.228 OA
HETATM   12  O   UNL     1      27.373  47.477  49.147  1.00  0.00    -0.228 OA
HETATM   13  C   UNL     1      25.923  45.404  49.912  1.00  0.00     0.167 C 
ENDROOT
BRANCH   1  14
HETATM   14  C   UNL     1      26.406  42.738  51.447  1.00  0.00     0.049 A 
HETATM   15  C   UNL     1      27.763  42.329  51.499  1.00  0.00    -0.031 A 
HETATM   16  C   UNL     1      28.165  41.164  50.822  1.00  0.00     0.009 A 
HETATM   17  C   UNL     1      27.249  40.398  50.113  1.00  0.00     0.001 A 
HETATM   18  C   UNL     1      25.917  40.788  50.067  1.00  0.00     0.009 A 
HETATM   19  C   UNL     1      25.474  41.953  50.722  1.00  0.00    -0.031 A 
BRANCH  15  20
HETATM   20  C   UNL     1      28.833  43.119  52.232  1.00  0.00     0.036 C 
HETATM   21  C   UNL     1      29.682  42.255  53.157  1.00  0.00     0.010 C 
ENDBRANCH  15  20
BRANCH  19  22
HETATM   22  C   UNL     1      24.000  42.279  50.600  1.00  0.00     0.036 C 
HETATM   23  C   UNL     1      23.538  42.324  49.148  1.00  0.00     0.010 C 
ENDBRANCH  19  22
ENDBRANCH   1  14
TORSDOF 3
ENDMDL
MODEL 10
REMARK VINA RESULT:      -6.1     12.268     14.127
REMARK  3 active torsions:
REMARK  status: ('A' for Active; 'I' for Inactive)
REMARK    1  A    between atoms: C_2  and  C_3 
REMARK    2  A    between atoms: C_4  and  N_5 
REMARK    3  A    between atoms: C_18  and  C_19 
ROOT
HETATM    1  N   UNL     1      18.994  48.456  47.747  1.00  0.00    -0.320 N 
HETATM    2  C   UNL     1      19.066  47.402  48.717  1.00  0.00     0.141 C 
HETATM    3  N   UNL     1      19.308  47.625  49.977  1.00  0.00    -0.380 N 
HETATM    4  H   UNL     1      19.453  48.576  50.287  1.00  0.00     0.158 HD
HETATM    5  H   UNL     1      19.349  46.851  50.625  1.00  0.00     0.158 HD
HETATM    6  S   UNL     1      18.798  45.833  48.041  1.00  0.00    -0.086 SA
HETATM    7  C   UNL     1      18.950  46.522  46.361  1.00  0.00     0.093 C 
HETATM    8  C   UNL     1      18.387  47.953  46.505  1.00  0.00     0.121 C 
HETATM    9  C   UNL     1      18.219  45.934  45.179  1.00  0.00     0.158 C 
HETATM   10  S   UNL     1      18.250  47.316  44.017  1.00  0.00     0.147 S 
HETATM   11  O   UNL     1      19.345  47.116  43.093  1.00  0.00    -0.228 OA
HETATM   12  O   UNL     1      16.894  47.570  43.582  1.00  0.00    -0.228 OA
HETATM   13  C   UNL     1      18.723  48.604  45.185  1.00  0.00     0.167 C 
ENDROOT
BRANCH   1  14
HETATM   14  C   UNL     1      18.804  49.817  48.052  1.00  0.00     0.049 A 
HETATM   15  C   UNL     1      19.940  50.666  48.113  1.00  0.00    -0.031 A 
HETATM   16  C   UNL     1      19.786  52.006  48.513  1.00  0.00     0.009 A 
HETATM   17  C   UNL     1      18.536  52.516  48.836  1.00  0.00     0.001 A 
HETATM   18  C   UNL     1      17.419  51.693  48.769  1.00  0.00     0.009 A 
HETATM   19  C   UNL     1      17.530  50.343  48.383  1.00  0.00    -0.031 A 
BRANCH  15  20
HETATM   20  C   UNL     1      21.345  50.184  47.798  1.00  0.00     0.036 C 
HETATM   21  C   UNL     1      22.422  50.972  48.535  1.00  0.00     0.010 C 
ENDBRANCH  15  20
BRANCH  19  22
HETATM   22  C   UNL     1      16.244  49.541  48.348  1.00  0.00     0.036 C 
HETATM   23  C   UNL     1      15.359  49.925  47.168  1.00  0.00     0.010 C 
ENDBRANCH  19  22
ENDBRANCH   1  14
TORSDOF 3
ENDMDL
