MODEL 1
REMARK VINA RESULT:      -9.0      0.000      0.000
REMARK  4 active torsions:
REMARK  status: ('A' for Active; 'I' for Inactive)
REMARK    1  A    between atoms: C_4  and  N_5 
REMARK    2  A    between atoms: N_5  and  C_6 
REMARK    3  A    between atoms: C_6  and  C_7 
REMARK    4  A    between atoms: N_17  and  N_19 
ROOT
HETATM    1  C   UNL     1      26.245  44.583  51.236  1.00  0.00     0.145 C 
HETATM    2  N   UNL     1      26.748  43.508  50.613  1.00  0.00    -0.307 N 
HETATM    3  H   UNL     1      27.078  42.760  51.220  1.00  0.00     0.182 HD
ENDROOT
BRANCH   1   4
HETATM    4  N   UNL     1      26.224  44.524  52.668  1.00  0.00    -0.339 N 
HETATM    5  H   UNL     1      25.351  44.189  53.061  1.00  0.00     0.167 HD
BRANCH   4   6
HETATM    6  C   UNL     1      27.186  44.882  53.631  1.00  0.00     0.040 A 
HETATM    7  C   UNL     1      28.255  44.020  53.928  1.00  0.00     0.036 A 
HETATM    8  C   UNL     1      29.259  44.382  54.835  1.00  0.00    -0.060 A 
HETATM    9  C   UNL     1      30.365  43.425  55.174  1.00  0.00     0.048 C 
HETATM   10  C   UNL     1      29.179  45.619  55.473  1.00  0.00     0.007 A 
HETATM   11  C   UNL     1      28.126  46.489  55.191  1.00  0.00     0.009 A 
HETATM   12  C   UNL     1      27.131  46.139  54.263  1.00  0.00    -0.035 A 
HETATM   13  C   UNL     1      26.024  47.121  53.986  1.00  0.00     0.050 C 
ENDBRANCH   4   6
ENDBRANCH   1   4
BRANCH   1  14
HETATM   14  C   UNL     1      25.751  45.833  50.576  1.00  0.00     0.102 A 
HETATM   15  N   UNL     1      26.703  46.691  50.115  1.00  0.00    -0.245 NA
HETATM   16  C   UNL     1      26.323  47.839  49.519  1.00  0.00     0.068 A 
HETATM   17  C   UNL     1      24.970  48.173  49.325  1.00  0.00    -0.007 A 
HETATM   18  C   UNL     1      27.290  48.731  49.074  1.00  0.00     0.032 A 
HETATM   19  C   UNL     1      24.003  47.269  49.774  1.00  0.00     0.016 A 
HETATM   20  C   UNL     1      24.620  49.380  48.693  1.00  0.00     0.014 A 
HETATM   21  C   UNL     1      24.394  46.089  50.400  1.00  0.00     0.036 A 
HETATM   22  C   UNL     1      25.609  50.257  48.254  1.00  0.00     0.001 A 
HETATM   23  C   UNL     1      26.947  49.933  48.446  1.00  0.00     0.002 A 
ENDBRANCH   1  14
BRANCH   2  24
HETATM   24  N   UNL     1      26.934  43.487  49.245  1.00  0.00    -0.248 NA
HETATM   25  H   UNL     1      26.363  42.754  48.804  1.00  0.00     0.143 HD
HETATM   26  H   UNL     1      27.918  43.369  49.010  1.00  0.00     0.143 HD
ENDBRANCH   2  24
TORSDOF 4
ENDMDL
MODEL 2
REMARK VINA RESULT:      -8.7      4.423      5.740
REMARK  4 active torsions:
REMARK  status: ('A' for Active; 'I' for Inactive)
REMARK    1  A    between atoms: C_4  and  N_5 
REMARK    2  A    between atoms: N_5  and  C_6 
REMARK    3  A    between atoms: C_6  and  C_7 
REMARK    4  A    between atoms: N_17  and  N_19 
ROOT
HETATM    1  C   UNL     1      27.437  44.075  53.610  1.00  0.00     0.145 C 
HETATM    2  N   UNL     1      26.221  44.454  54.026  1.00  0.00    -0.307 N 
HETATM    3  H   UNL     1      26.197  45.276  54.628  1.00  0.00     0.182 HD
ENDROOT
BRANCH   1   4
HETATM    4  N   UNL     1      28.532  44.887  54.054  1.00  0.00    -0.339 N 
HETATM    5  H   UNL     1      28.917  45.496  53.340  1.00  0.00     0.167 HD
BRANCH   4   6
HETATM    6  C   UNL     1      29.195  44.964  55.292  1.00  0.00     0.040 A 
HETATM    7  C   UNL     1      30.225  44.061  55.608  1.00  0.00     0.036 A 
HETATM    8  C   UNL     1      30.943  44.157  56.807  1.00  0.00    -0.060 A 
HETATM    9  C   UNL     1      32.005  43.152  57.145  1.00  0.00     0.048 C 
HETATM   10  C   UNL     1      30.609  45.161  57.715  1.00  0.00     0.007 A 
HETATM   11  C   UNL     1      29.591  46.068  57.419  1.00  0.00     0.009 A 
HETATM   12  C   UNL     1      28.886  45.988  56.207  1.00  0.00    -0.035 A 
HETATM   13  C   UNL     1      27.806  47.001  55.932  1.00  0.00     0.050 C 
ENDBRANCH   4   6
ENDBRANCH   1   4
BRANCH   1  14
HETATM   14  C   UNL     1      27.746  42.873  52.772  1.00  0.00     0.102 A 
HETATM   15  N   UNL     1      27.328  42.915  51.476  1.00  0.00    -0.245 NA
HETATM   16  C   UNL     1      27.568  41.860  50.672  1.00  0.00     0.068 A 
HETATM   17  C   UNL     1      28.266  40.721  51.113  1.00  0.00    -0.007 A 
HETATM   18  C   UNL     1      27.117  41.886  49.358  1.00  0.00     0.032 A 
HETATM   19  C   UNL     1      28.718  40.704  52.436  1.00  0.00     0.016 A 
HETATM   20  C   UNL     1      28.498  39.646  50.237  1.00  0.00     0.014 A 
HETATM   21  C   UNL     1      28.460  41.788  53.271  1.00  0.00     0.036 A 
HETATM   22  C   UNL     1      28.037  39.697  48.924  1.00  0.00     0.001 A 
HETATM   23  C   UNL     1      27.344  40.819  48.483  1.00  0.00     0.002 A 
ENDBRANCH   1  14
BRANCH   2  24
HETATM   24  N   UNL     1      25.098  43.693  53.769  1.00  0.00    -0.248 NA
HETATM   25  H   UNL     1      25.354  42.739  53.482  1.00  0.00     0.143 HD
HETATM   26  H   UNL     1      24.508  44.134  53.065  1.00  0.00     0.143 HD
ENDBRANCH   2  24
TORSDOF 4
ENDMDL
MODEL 3
REMARK VINA RESULT:      -8.6      2.169      3.900
REMARK  4 active torsions:
REMARK  status: ('A' for Active; 'I' for Inactive)
REMARK    1  A    between atoms: C_4  and  N_5 
REMARK    2  A    between atoms: N_5  and  C_6 
REMARK    3  A    between atoms: C_6  and  C_7 
REMARK    4  A    between atoms: N_17  and  N_19 
ROOT
HETATM    1  C   UNL     1      26.814  44.718  53.740  1.00  0.00     0.145 C 
HETATM    2  N   UNL     1      26.294  43.998  54.744  1.00  0.00    -0.307 N 
HETATM    3  H   UNL     1      26.968  43.607  55.401  1.00  0.00     0.182 HD
ENDROOT
BRANCH   1   4
HETATM    4  N   UNL     1      28.242  44.854  53.741  1.00  0.00    -0.339 N 
HETATM    5  H   UNL     1      28.634  45.158  52.856  1.00  0.00     0.167 HD
BRANCH   4   6
HETATM    6  C   UNL     1      29.203  44.605  54.738  1.00  0.00     0.040 A 
HETATM    7  C   UNL     1      29.288  45.433  55.870  1.00  0.00     0.036 A 
HETATM    8  C   UNL     1      30.193  45.168  56.906  1.00  0.00    -0.060 A 
HETATM    9  C   UNL     1      30.302  46.095  58.082  1.00  0.00     0.048 C 
HETATM   10  C   UNL     1      31.043  44.068  56.796  1.00  0.00     0.007 A 
HETATM   11  C   UNL     1      30.971  43.233  55.681  1.00  0.00     0.009 A 
HETATM   12  C   UNL     1      30.048  43.482  54.652  1.00  0.00    -0.035 A 
HETATM   13  C   UNL     1      30.004  42.541  53.477  1.00  0.00     0.050 C 
ENDBRANCH   4   6
ENDBRANCH   1   4
BRANCH   1  14
HETATM   14  C   UNL     1      26.048  45.346  52.617  1.00  0.00     0.102 A 
HETATM   15  N   UNL     1      25.181  44.535  51.948  1.00  0.00    -0.245 NA
HETATM   16  C   UNL     1      24.469  45.038  50.921  1.00  0.00     0.068 A 
HETATM   17  C   UNL     1      24.561  46.387  50.529  1.00  0.00    -0.007 A 
HETATM   18  C   UNL     1      23.606  44.208  50.217  1.00  0.00     0.032 A 
HETATM   19  C   UNL     1      25.431  47.216  51.245  1.00  0.00     0.016 A 
HETATM   20  C   UNL     1      23.794  46.869  49.454  1.00  0.00     0.014 A 
HETATM   21  C   UNL     1      26.177  46.695  52.298  1.00  0.00     0.036 A 
HETATM   22  C   UNL     1      22.935  46.016  48.765  1.00  0.00     0.001 A 
HETATM   23  C   UNL     1      22.841  44.682  49.146  1.00  0.00     0.002 A 
ENDBRANCH   1  14
BRANCH   2  24
HETATM   24  N   UNL     1      24.949  43.693  54.793  1.00  0.00    -0.248 NA
HETATM   25  H   UNL     1      24.801  42.702  55.024  1.00  0.00     0.143 HD
HETATM   26  H   UNL     1      24.486  43.933  53.918  1.00  0.00     0.143 HD
ENDBRANCH   2  24
TORSDOF 4
ENDMDL
MODEL 4
REMARK VINA RESULT:      -8.6      1.427      6.380
REMARK  4 active torsions:
REMARK  status: ('A' for Active; 'I' for Inactive)
REMARK    1  A    between atoms: C_4  and  N_5 
REMARK    2  A    between atoms: N_5  and  C_6 
REMARK    3  A    between atoms: C_6  and  C_7 
REMARK    4  A    between atoms: N_17  and  N_19 
ROOT
HETATM    1  C   UNL     1      27.034  43.091  51.269  1.00  0.00     0.145 C 
HETATM    2  N   UNL     1      26.767  41.785  51.132  1.00  0.00    -0.307 N 
HETATM    3  H   UNL     1      26.359  41.509  50.240  1.00  0.00     0.182 HD
ENDROOT
BRANCH   1   4
HETATM    4  N   UNL     1      26.727  43.915  50.136  1.00  0.00    -0.339 N 
HETATM    5  H   UNL     1      26.926  43.485  49.239  1.00  0.00     0.167 HD
BRANCH   4   6
HETATM    6  C   UNL     1      26.234  45.230  50.044  1.00  0.00     0.040 A 
HETATM    7  C   UNL     1      27.091  46.292  49.710  1.00  0.00     0.036 A 
HETATM    8  C   UNL     1      26.612  47.599  49.550  1.00  0.00    -0.060 A 
HETATM    9  C   UNL     1      27.554  48.726  49.242  1.00  0.00     0.048 C 
HETATM   10  C   UNL     1      25.255  47.850  49.750  1.00  0.00     0.007 A 
HETATM   11  C   UNL     1      24.388  46.808  50.081  1.00  0.00     0.009 A 
HETATM   12  C   UNL     1      24.862  45.493  50.218  1.00  0.00    -0.035 A 
HETATM   13  C   UNL     1      23.881  44.404  50.563  1.00  0.00     0.050 C 
ENDBRANCH   4   6
ENDBRANCH   1   4
BRANCH   1  14
HETATM   14  C   UNL     1      27.577  43.756  52.496  1.00  0.00     0.102 A 
HETATM   15  N   UNL     1      28.737  43.247  52.998  1.00  0.00    -0.245 NA
HETATM   16  C   UNL     1      29.271  43.796  54.107  1.00  0.00     0.068 A 
HETATM   17  C   UNL     1      28.691  44.903  54.753  1.00  0.00    -0.007 A 
HETATM   18  C   UNL     1      30.437  43.262  54.639  1.00  0.00     0.032 A 
HETATM   19  C   UNL     1      27.518  45.436  54.210  1.00  0.00     0.016 A 
HETATM   20  C   UNL     1      29.287  45.446  55.905  1.00  0.00     0.014 A 
HETATM   21  C   UNL     1      26.958  44.862  53.072  1.00  0.00     0.036 A 
HETATM   22  C   UNL     1      30.458  44.892  56.419  1.00  0.00     0.001 A 
HETATM   23  C   UNL     1      31.034  43.797  55.785  1.00  0.00     0.002 A 
ENDBRANCH   1  14
BRANCH   2  24
HETATM   24  N   UNL     1      26.904  40.905  52.187  1.00  0.00    -0.248 NA
HETATM   25  H   UNL     1      26.189  41.074  52.907  1.00  0.00     0.143 HD
HETATM   26  H   UNL     1      27.840  40.956  52.588  1.00  0.00     0.143 HD
ENDBRANCH   2  24
TORSDOF 4
ENDMDL
MODEL 5
REMARK VINA RESULT:      -8.4      3.391      4.327
REMARK  4 active torsions:
REMARK  status: ('A' for Active; 'I' for Inactive)
REMARK    1  A    between atoms: C_4  and  N_5 
REMARK    2  A    between atoms: N_5  and  C_6 
REMARK    3  A    between atoms: C_6  and  C_7 
REMARK    4  A    between atoms: N_17  and  N_19 
ROOT
HETATM    1  C   UNL     1      27.757  43.028  53.223  1.00  0.00     0.145 C 
HETATM    2  N   UNL     1      28.109  41.808  53.651  1.00  0.00    -0.307 N 
HETATM    3  H   UNL     1      28.989  41.757  54.163  1.00  0.00     0.182 HD
ENDROOT
BRANCH   1   4
HETATM    4  N   UNL     1      28.656  44.094  53.558  1.00  0.00    -0.339 N 
HETATM    5  H   UNL     1      28.951  44.656  52.767  1.00  0.00     0.167 HD
BRANCH   4   6
HETATM    6  C   UNL     1      29.233  44.477  54.782  1.00  0.00     0.040 A 
HETATM    7  C   UNL     1      30.272  43.721  55.350  1.00  0.00     0.036 A 
HETATM    8  C   UNL     1      30.905  44.117  56.535  1.00  0.00    -0.060 A 
HETATM    9  C   UNL     1      31.978  43.267  57.150  1.00  0.00     0.048 C 
HETATM   10  C   UNL     1      30.475  45.280  57.174  1.00  0.00     0.007 A 
HETATM   11  C   UNL     1      29.447  46.046  56.625  1.00  0.00     0.009 A 
HETATM   12  C   UNL     1      28.826  45.663  55.424  1.00  0.00    -0.035 A 
HETATM   13  C   UNL     1      27.731  46.533  54.868  1.00  0.00     0.050 C 
ENDBRANCH   4   6
ENDBRANCH   1   4
BRANCH   1  14
HETATM   14  C   UNL     1      26.549  43.358  52.402  1.00  0.00     0.102 A 
HETATM   15  N   UNL     1      26.231  42.479  51.411  1.00  0.00    -0.245 NA
HETATM   16  C   UNL     1      25.160  42.725  50.631  1.00  0.00     0.068 A 
HETATM   17  C   UNL     1      24.331  43.846  50.823  1.00  0.00    -0.007 A 
HETATM   18  C   UNL     1      24.849  41.848  49.600  1.00  0.00     0.032 A 
HETATM   19  C   UNL     1      24.649  44.723  51.864  1.00  0.00     0.016 A 
HETATM   20  C   UNL     1      23.220  44.060  49.988  1.00  0.00     0.014 A 
HETATM   21  C   UNL     1      25.762  44.477  52.662  1.00  0.00     0.036 A 
HETATM   22  C   UNL     1      22.929  43.164  48.961  1.00  0.00     0.001 A 
HETATM   23  C   UNL     1      23.746  42.056  48.766  1.00  0.00     0.002 A 
ENDBRANCH   1  14
BRANCH   2  24
HETATM   24  N   UNL     1      27.395  40.682  53.295  1.00  0.00    -0.248 NA
HETATM   25  H   UNL     1      26.688  40.901  52.581  1.00  0.00     0.143 HD
HETATM   26  H   UNL     1      26.963  40.248  54.110  1.00  0.00     0.143 HD
ENDBRANCH   2  24
TORSDOF 4
ENDMDL
MODEL 6
REMARK VINA RESULT:      -8.3      3.962      5.203
REMARK  4 active torsions:
REMARK  status: ('A' for Active; 'I' for Inactive)
REMARK    1  A    between atoms: C_4  and  N_5 
REMARK    2  A    between atoms: N_5  and  C_6 
REMARK    3  A    between atoms: C_6  and  C_7 
REMARK    4  A    between atoms: N_17  and  N_19 
ROOT
HETATM    1  C   UNL     1      26.736  44.135  53.475  1.00  0.00     0.145 C 
HETATM    2  N   UNL     1      25.967  44.476  54.519  1.00  0.00    -0.307 N 
HETATM    3  H   UNL     1      26.430  45.013  55.251  1.00  0.00     0.182 HD
ENDROOT
BRANCH   1   4
HETATM    4  N   UNL     1      28.096  44.586  53.525  1.00  0.00    -0.339 N 
HETATM    5  H   UNL     1      28.412  45.056  52.683  1.00  0.00     0.167 HD
BRANCH   4   6
HETATM    6  C   UNL     1      29.085  44.461  54.518  1.00  0.00     0.040 A 
HETATM    7  C   UNL     1      29.064  45.288  55.654  1.00  0.00     0.036 A 
HETATM    8  C   UNL     1      30.000  45.140  56.686  1.00  0.00    -0.060 A 
HETATM    9  C   UNL     1      29.989  46.066  57.867  1.00  0.00     0.048 C 
HETATM   10  C   UNL     1      30.987  44.162  56.567  1.00  0.00     0.007 A 
HETATM   11  C   UNL     1      31.023  43.331  55.448  1.00  0.00     0.009 A 
HETATM   12  C   UNL     1      30.071  43.461  54.423  1.00  0.00    -0.035 A 
HETATM   13  C   UNL     1      30.148  42.529  53.243  1.00  0.00     0.050 C 
ENDBRANCH   4   6
ENDBRANCH   1   4
BRANCH   1  14
HETATM   14  C   UNL     1      26.313  43.301  52.305  1.00  0.00     0.102 A 
HETATM   15  N   UNL     1      25.115  43.617  51.738  1.00  0.00    -0.245 NA
HETATM   16  C   UNL     1      24.674  42.898  50.687  1.00  0.00     0.068 A 
HETATM   17  C   UNL     1      25.423  41.846  50.127  1.00  0.00    -0.007 A 
HETATM   18  C   UNL     1      23.440  43.196  50.124  1.00  0.00     0.032 A 
HETATM   19  C   UNL     1      26.665  41.554  50.698  1.00  0.00     0.016 A 
HETATM   20  C   UNL     1      24.925  41.126  49.026  1.00  0.00     0.014 A 
HETATM   21  C   UNL     1      27.116  42.287  51.792  1.00  0.00     0.036 A 
HETATM   22  C   UNL     1      23.685  41.447  48.480  1.00  0.00     0.001 A 
HETATM   23  C   UNL     1      22.939  42.484  49.030  1.00  0.00     0.002 A 
ENDBRANCH   1  14
BRANCH   2  24
HETATM   24  N   UNL     1      24.676  44.005  54.650  1.00  0.00    -0.248 NA
HETATM   25  H   UNL     1      24.644  42.980  54.567  1.00  0.00     0.143 HD
HETATM   26  H   UNL     1      24.054  44.442  53.971  1.00  0.00     0.143 HD
ENDBRANCH   2  24
TORSDOF 4
ENDMDL
MODEL 7
REMARK VINA RESULT:      -8.2      4.833      8.493
REMARK  4 active torsions:
REMARK  status: ('A' for Active; 'I' for Inactive)
REMARK    1  A    between atoms: C_4  and  N_5 
REMARK    2  A    between atoms: N_5  and  C_6 
REMARK    3  A    between atoms: C_6  and  C_7 
REMARK    4  A    between atoms: N_17  and  N_19 
ROOT
HETATM    1  C   UNL     1      21.025  47.841  49.066  1.00  0.00     0.145 C 
HETATM    2  N   UNL     1      20.640  46.632  48.638  1.00  0.00    -0.307 N 
HETATM    3  H   UNL     1      19.722  46.323  48.955  1.00  0.00     0.182 HD
ENDROOT
BRANCH   1   4
HETATM    4  N   UNL     1      20.087  48.540  49.896  1.00  0.00    -0.339 N 
HETATM    5  H   UNL     1      20.004  48.170  50.836  1.00  0.00     0.167 HD
BRANCH   4   6
HETATM    6  C   UNL     1      19.232  49.625  49.628  1.00  0.00     0.040 A 
HETATM    7  C   UNL     1      17.979  49.415  49.029  1.00  0.00     0.036 A 
HETATM    8  C   UNL     1      17.084  50.471  48.811  1.00  0.00    -0.060 A 
HETATM    9  C   UNL     1      15.771  50.231  48.124  1.00  0.00     0.048 C 
HETATM   10  C   UNL     1      17.460  51.762  49.179  1.00  0.00     0.007 A 
HETATM   11  C   UNL     1      18.700  51.990  49.777  1.00  0.00     0.009 A 
HETATM   12  C   UNL     1      19.589  50.930  50.018  1.00  0.00    -0.035 A 
HETATM   13  C   UNL     1      20.908  51.230  50.679  1.00  0.00     0.050 C 
ENDBRANCH   4   6
ENDBRANCH   1   4
BRANCH   1  14
HETATM   14  C   UNL     1      22.345  48.494  48.792  1.00  0.00     0.102 A 
HETATM   15  N   UNL     1      23.437  47.920  49.371  1.00  0.00    -0.245 NA
HETATM   16  C   UNL     1      24.652  48.466  49.170  1.00  0.00     0.068 A 
HETATM   17  C   UNL     1      24.844  49.595  48.352  1.00  0.00    -0.007 A 
HETATM   18  C   UNL     1      25.764  47.903  49.782  1.00  0.00     0.032 A 
HETATM   19  C   UNL     1      23.720  50.155  47.738  1.00  0.00     0.016 A 
HETATM   20  C   UNL     1      26.132  50.128  48.167  1.00  0.00     0.014 A 
HETATM   21  C   UNL     1      22.462  49.600  47.955  1.00  0.00     0.036 A 
HETATM   22  C   UNL     1      27.231  49.543  48.791  1.00  0.00     0.001 A 
HETATM   23  C   UNL     1      27.048  48.428  49.601  1.00  0.00     0.002 A 
ENDBRANCH   1  14
BRANCH   2  24
HETATM   24  N   UNL     1      21.495  45.808  47.933  1.00  0.00    -0.248 NA
HETATM   25  H   UNL     1      22.401  46.266  47.770  1.00  0.00     0.143 HD
HETATM   26  H   UNL     1      21.076  45.511  47.053  1.00  0.00     0.143 HD
ENDBRANCH   2  24
TORSDOF 4
ENDMDL
MODEL 8
REMARK VINA RESULT:      -8.1      4.354      7.205
REMARK  4 active torsions:
REMARK  status: ('A' for Active; 'I' for Inactive)
REMARK    1  A    between atoms: C_4  and  N_5 
REMARK    2  A    between atoms: N_5  and  C_6 
REMARK    3  A    between atoms: C_6  and  C_7 
REMARK    4  A    between atoms: N_17  and  N_19 
ROOT
HETATM    1  C   UNL     1      26.836  42.589  51.578  1.00  0.00     0.145 C 
HETATM    2  N   UNL     1      25.511  42.782  51.639  1.00  0.00    -0.307 N 
HETATM    3  H   UNL     1      24.989  42.527  50.803  1.00  0.00     0.182 HD
ENDROOT
BRANCH   1   4
HETATM    4  N   UNL     1      27.332  42.033  50.353  1.00  0.00    -0.339 N 
HETATM    5  H   UNL     1      27.614  42.723  49.664  1.00  0.00     0.167 HD
BRANCH   4   6
HETATM    6  C   UNL     1      27.462  40.701  49.917  1.00  0.00     0.040 A 
HETATM    7  C   UNL     1      28.557  39.921  50.326  1.00  0.00     0.036 A 
HETATM    8  C   UNL     1      28.676  38.574  49.958  1.00  0.00    -0.060 A 
HETATM    9  C   UNL     1      29.878  37.774  50.364  1.00  0.00     0.048 C 
HETATM   10  C   UNL     1      27.692  38.006  49.148  1.00  0.00     0.007 A 
HETATM   11  C   UNL     1      26.597  38.765  48.734  1.00  0.00     0.009 A 
HETATM   12  C   UNL     1      26.463  40.108  49.121  1.00  0.00    -0.035 A 
HETATM   13  C   UNL     1      25.255  40.877  48.658  1.00  0.00     0.050 C 
ENDBRANCH   4   6
ENDBRANCH   1   4
BRANCH   1  14
HETATM   14  C   UNL     1      27.827  42.937  52.645  1.00  0.00     0.102 A 
HETATM   15  N   UNL     1      27.657  44.140  53.261  1.00  0.00    -0.245 NA
HETATM   16  C   UNL     1      28.522  44.515  54.224  1.00  0.00     0.068 A 
HETATM   17  C   UNL     1      29.584  43.693  54.643  1.00  0.00    -0.007 A 
HETATM   18  C   UNL     1      28.369  45.754  54.835  1.00  0.00     0.032 A 
HETATM   19  C   UNL     1      29.729  42.448  54.025  1.00  0.00     0.016 A 
HETATM   20  C   UNL     1      30.459  44.125  55.656  1.00  0.00     0.014 A 
HETATM   21  C   UNL     1      28.844  42.064  53.022  1.00  0.00     0.036 A 
HETATM   22  C   UNL     1      30.284  45.370  56.253  1.00  0.00     0.001 A 
HETATM   23  C   UNL     1      29.237  46.188  55.842  1.00  0.00     0.002 A 
ENDBRANCH   1  14
BRANCH   2  24
HETATM   24  N   UNL     1      24.923  43.419  52.713  1.00  0.00    -0.248 NA
HETATM   25  H   UNL     1      25.598  43.565  53.475  1.00  0.00     0.143 HD
HETATM   26  H   UNL     1      24.110  42.902  53.046  1.00  0.00     0.143 HD
ENDBRANCH   2  24
TORSDOF 4
ENDMDL
MODEL 9
REMARK VINA RESULT:      -8.1      2.344      6.972
REMARK  4 active torsions:
REMARK  status: ('A' for Active; 'I' for Inactive)
REMARK    1  A    between atoms: C_4  and  N_5 
REMARK    2  A    between atoms: N_5  and  C_6 
REMARK    3  A    between atoms: C_6  and  C_7 
REMARK    4  A    between atoms: N_17  and  N_19 
ROOT
HETATM    1  C   UNL     1      27.504  42.657  51.921  1.00  0.00     0.145 C 
HETATM    2  N   UNL     1      27.241  41.344  51.987  1.00  0.00    -0.307 N 
HETATM    3  H   UNL     1      26.890  40.921  51.129  1.00  0.00     0.182 HD
ENDROOT
BRANCH   1   4
HETATM    4  N   UNL     1      27.272  43.279  50.650  1.00  0.00    -0.339 N 
HETATM    5  H   UNL     1      28.111  43.614  50.189  1.00  0.00     0.167 HD
BRANCH   4   6
HETATM    6  C   UNL     1      26.084  43.543  49.943  1.00  0.00     0.040 A 
HETATM    7  C   UNL     1      25.193  42.503  49.630  1.00  0.00     0.036 A 
HETATM    8  C   UNL     1      23.975  42.750  48.983  1.00  0.00    -0.060 A 
HETATM    9  C   UNL     1      23.062  41.618  48.614  1.00  0.00     0.048 C 
HETATM   10  C   UNL     1      23.654  44.059  48.625  1.00  0.00     0.007 A 
HETATM   11  C   UNL     1      24.525  45.105  48.929  1.00  0.00     0.009 A 
HETATM   12  C   UNL     1      25.736  44.864  49.599  1.00  0.00    -0.035 A 
HETATM   13  C   UNL     1      26.632  46.031  49.915  1.00  0.00     0.050 C 
ENDBRANCH   4   6
ENDBRANCH   1   4
BRANCH   1  14
HETATM   14  C   UNL     1      27.970  43.520  53.052  1.00  0.00     0.102 A 
HETATM   15  N   UNL     1      29.069  43.087  53.731  1.00  0.00    -0.245 NA
HETATM   16  C   UNL     1      29.533  43.815  54.766  1.00  0.00     0.068 A 
HETATM   17  C   UNL     1      28.941  45.031  55.156  1.00  0.00    -0.007 A 
HETATM   18  C   UNL     1      30.635  43.363  55.480  1.00  0.00     0.032 A 
HETATM   19  C   UNL     1      27.833  45.480  54.431  1.00  0.00     0.016 A 
HETATM   20  C   UNL     1      29.462  45.760  56.240  1.00  0.00     0.014 A 
HETATM   21  C   UNL     1      27.345  44.723  53.370  1.00  0.00     0.036 A 
HETATM   22  C   UNL     1      30.570  45.285  56.938  1.00  0.00     0.001 A 
HETATM   23  C   UNL     1      31.157  44.084  56.559  1.00  0.00     0.002 A 
ENDBRANCH   1  14
BRANCH   2  24
HETATM   24  N   UNL     1      27.308  40.653  53.180  1.00  0.00    -0.248 NA
HETATM   25  H   UNL     1      26.647  39.866  53.191  1.00  0.00     0.143 HD
HETATM   26  H   UNL     1      27.146  41.272  53.973  1.00  0.00     0.143 HD
ENDBRANCH   2  24
TORSDOF 4
ENDMDL
MODEL 10
REMARK VINA RESULT:      -8.1      2.262      6.890
REMARK  4 active torsions:
REMARK  status: ('A' for Active; 'I' for Inactive)
REMARK    1  A    between atoms: C_4  and  N_5 
REMARK    2  A    between atoms: N_5  and  C_6 
REMARK    3  A    between atoms: C_6  and  C_7 
REMARK    4  A    between atoms: N_17  and  N_19 
ROOT
HETATM    1  C   UNL     1      27.668  43.270  51.900  1.00  0.00     0.145 C 
HETATM    2  N   UNL     1      27.026  42.124  51.636  1.00  0.00    -0.307 N 
HETATM    3  H   UNL     1      26.424  42.135  50.815  1.00  0.00     0.182 HD
ENDROOT
BRANCH   1   4
HETATM    4  N   UNL     1      27.433  44.346  50.982  1.00  0.00    -0.339 N 
HETATM    5  H   UNL     1      28.271  44.834  50.685  1.00  0.00     0.167 HD
BRANCH   4   6
HETATM    6  C   UNL     1      26.243  44.873  50.447  1.00  0.00     0.040 A 
HETATM    7  C   UNL     1      25.574  44.211  49.404  1.00  0.00     0.036 A 
HETATM    8  C   UNL     1      24.355  44.681  48.898  1.00  0.00    -0.060 A 
HETATM    9  C   UNL     1      23.684  43.986  47.750  1.00  0.00     0.048 C 
HETATM   10  C   UNL     1      23.808  45.848  49.432  1.00  0.00     0.007 A 
HETATM   11  C   UNL     1      24.456  46.518  50.469  1.00  0.00     0.009 A 
HETATM   12  C   UNL     1      25.666  46.036  50.994  1.00  0.00    -0.035 A 
HETATM   13  C   UNL     1      26.316  46.791  52.123  1.00  0.00     0.050 C 
ENDBRANCH   4   6
ENDBRANCH   1   4
BRANCH   1  14
HETATM   14  C   UNL     1      28.561  43.530  53.074  1.00  0.00     0.102 A 
HETATM   15  N   UNL     1      28.128  44.459  53.971  1.00  0.00    -0.245 NA
HETATM   16  C   UNL     1      28.890  44.744  55.045  1.00  0.00     0.068 A 
HETATM   17  C   UNL     1      30.111  44.091  55.295  1.00  0.00    -0.007 A 
HETATM   18  C   UNL     1      28.467  45.713  55.946  1.00  0.00     0.032 A 
HETATM   19  C   UNL     1      30.529  43.116  54.385  1.00  0.00     0.016 A 
HETATM   20  C   UNL     1      30.872  44.418  56.432  1.00  0.00     0.014 A 
HETATM   21  C   UNL     1      29.749  42.829  53.268  1.00  0.00     0.036 A 
HETATM   22  C   UNL     1      30.424  45.392  57.321  1.00  0.00     0.001 A 
HETATM   23  C   UNL     1      29.219  46.042  57.078  1.00  0.00     0.002 A 
ENDBRANCH   1  14
BRANCH   2  24
HETATM   24  N   UNL     1      27.073  41.052  52.505  1.00  0.00    -0.248 NA
HETATM   25  H   UNL     1      27.974  40.561  52.440  1.00  0.00     0.143 HD
HETATM   26  H   UNL     1      26.299  40.411  52.339  1.00  0.00     0.143 HD
ENDBRANCH   2  24
TORSDOF 4
ENDMDL
