MODEL 1
REMARK VINA RESULT:      -7.3      0.000      0.000
REMARK  8 active torsions:
REMARK  status: ('A' for Active; 'I' for Inactive)
REMARK    1  A    between atoms: C_4  and  C_5 
REMARK    2  A    between atoms: C_5  and  N_6 
REMARK    3  A    between atoms: N_6  and  C_9 
REMARK    4  A    between atoms: C_9  and  C_10 
REMARK    5  A    between atoms: C_10  and  C_11 
REMARK    6  A    between atoms: C_11  and  N_12 
REMARK       I    between atoms: N_12  and  C_13 
REMARK    7  A    between atoms: C_13  and  C_14 
REMARK    8  A    between atoms: C_16  and  O_17 
ROOT
HETATM    1  C   UNL     1      27.464  42.848  50.852  1.00  0.00     0.047 C 
ENDROOT
BRANCH   1   2
HETATM    2  C   UNL     1      26.058  42.413  50.466  1.00  0.00     0.235 C 
BRANCH   2   3
HETATM    3  N   UNL     1      25.108  42.851  51.533  1.00  0.00    -0.067 N 
HETATM    4  H   UNL     1      25.592  42.987  52.429  1.00  0.00     0.277 HD
HETATM    5  H   UNL     1      24.448  42.075  51.693  1.00  0.00     0.277 HD
BRANCH   3   6
HETATM    6  C   UNL     1      24.279  44.069  51.236  1.00  0.00     0.223 C 
HETATM    7  C   UNL     1      24.160  44.267  49.725  1.00  0.00     0.046 C 
BRANCH   6   8
HETATM    8  C   UNL     1      24.851  45.284  51.897  1.00  0.00     0.032 A 
HETATM    9  S   UNL     1      25.483  45.252  53.498  1.00  0.00    -0.076 SA
HETATM   10  C   UNL     1      25.878  46.920  53.372  1.00  0.00     0.071 A 
HETATM   11  C   UNL     1      26.537  47.628  54.505  1.00  0.00     0.078 C 
HETATM   12  N   UNL     1      25.560  47.482  52.227  1.00  0.00    -0.257 NA
HETATM   13  C   UNL     1      24.986  46.559  51.382  1.00  0.00     0.134 A 
ENDBRANCH   6   8
ENDBRANCH   3   6
ENDBRANCH   2   3
ENDBRANCH   1   2
BRANCH   1  14
HETATM   14  C   UNL     1      27.933  42.225  52.169  1.00  0.00     0.124 C 
BRANCH  14  15
HETATM   15  N   UNL     1      28.393  43.149  53.191  1.00  0.00    -0.357 N 
HETATM   16  C   UNL     1      29.680  43.131  53.698  1.00  0.00     0.251 C 
HETATM   17  O   UNL     1      30.611  42.542  53.162  1.00  0.00    -0.268 OA
HETATM   18  H   UNL     1      27.678  43.481  53.834  1.00  0.00     0.162 HD
BRANCH  16  19
HETATM   19  C   UNL     1      29.893  43.896  54.950  1.00  0.00     0.034 A 
HETATM   20  C   UNL     1      30.899  43.479  55.827  1.00  0.00     0.053 A 
HETATM   21  C   UNL     1      31.104  44.191  57.004  1.00  0.00     0.066 A 
HETATM   22  C   UNL     1      30.338  45.314  57.303  1.00  0.00     0.036 A 
HETATM   23  C   UNL     1      29.346  45.738  56.419  1.00  0.00     0.004 A 
HETATM   24  C   UNL     1      29.119  45.028  55.239  1.00  0.00     0.017 A 
BRANCH  21  25
HETATM   25  O   UNL     1      32.054  43.820  57.907  1.00  0.00    -0.361 OA
HETATM   26  H   UNL     1      32.214  42.864  57.841  1.00  0.00     0.217 HD
ENDBRANCH  21  25
ENDBRANCH  16  19
ENDBRANCH  14  15
ENDBRANCH   1  14
TORSDOF 8
ENDMDL
MODEL 2
REMARK VINA RESULT:      -7.0      2.722      3.709
REMARK  8 active torsions:
REMARK  status: ('A' for Active; 'I' for Inactive)
REMARK    1  A    between atoms: C_4  and  C_5 
REMARK    2  A    between atoms: C_5  and  N_6 
REMARK    3  A    between atoms: N_6  and  C_9 
REMARK    4  A    between atoms: C_9  and  C_10 
REMARK    5  A    between atoms: C_10  and  C_11 
REMARK    6  A    between atoms: C_11  and  N_12 
REMARK       I    between atoms: N_12  and  C_13 
REMARK    7  A    between atoms: C_13  and  C_14 
REMARK    8  A    between atoms: C_16  and  O_17 
ROOT
HETATM    1  C   UNL     1      25.569  45.620  53.697  1.00  0.00     0.047 C 
ENDROOT
BRANCH   1   2
HETATM    2  C   UNL     1      25.884  46.510  52.503  1.00  0.00     0.235 C 
BRANCH   2   3
HETATM    3  N   UNL     1      24.764  46.410  51.518  1.00  0.00    -0.067 N 
HETATM    4  H   UNL     1      24.055  47.135  51.688  1.00  0.00     0.277 HD
HETATM    5  H   UNL     1      24.285  45.513  51.689  1.00  0.00     0.277 HD
BRANCH   3   6
HETATM    6  C   UNL     1      25.143  46.428  50.065  1.00  0.00     0.223 C 
HETATM    7  C   UNL     1      26.594  45.979  49.896  1.00  0.00     0.046 C 
BRANCH   6   8
HETATM    8  C   UNL     1      24.925  47.784  49.468  1.00  0.00     0.032 A 
HETATM    9  S   UNL     1      23.353  48.411  49.153  1.00  0.00    -0.076 SA
HETATM   10  C   UNL     1      24.054  49.864  48.560  1.00  0.00     0.071 A 
HETATM   11  C   UNL     1      23.190  50.978  48.079  1.00  0.00     0.078 C 
HETATM   12  N   UNL     1      25.368  49.895  48.580  1.00  0.00    -0.257 NA
HETATM   13  C   UNL     1      25.869  48.724  49.101  1.00  0.00     0.134 A 
ENDBRANCH   6   8
ENDBRANCH   3   6
ENDBRANCH   2   3
ENDBRANCH   1   2
BRANCH   1  14
HETATM   14  C   UNL     1      26.568  44.472  53.857  1.00  0.00     0.124 C 
BRANCH  14  15
HETATM   15  N   UNL     1      27.683  44.711  54.756  1.00  0.00    -0.357 N 
HETATM   16  C   UNL     1      28.967  44.265  54.497  1.00  0.00     0.251 C 
HETATM   17  O   UNL     1      29.342  43.883  53.395  1.00  0.00    -0.268 OA
HETATM   18  H   UNL     1      27.442  44.789  55.741  1.00  0.00     0.162 HD
BRANCH  16  19
HETATM   19  C   UNL     1      29.905  44.290  55.645  1.00  0.00     0.034 A 
HETATM   20  C   UNL     1      29.838  45.360  56.542  1.00  0.00     0.053 A 
HETATM   21  C   UNL     1      30.716  45.392  57.621  1.00  0.00     0.066 A 
HETATM   22  C   UNL     1      31.636  44.368  57.823  1.00  0.00     0.036 A 
HETATM   23  C   UNL     1      31.690  43.292  56.937  1.00  0.00     0.004 A 
HETATM   24  C   UNL     1      30.825  43.251  55.842  1.00  0.00     0.017 A 
BRANCH  21  25
HETATM   25  O   UNL     1      30.712  46.419  58.515  1.00  0.00    -0.361 OA
HETATM   26  H   UNL     1      31.615  46.577  58.837  1.00  0.00     0.217 HD
ENDBRANCH  21  25
ENDBRANCH  16  19
ENDBRANCH  14  15
ENDBRANCH   1  14
TORSDOF 8
ENDMDL
MODEL 3
REMARK VINA RESULT:      -7.0      2.760      3.619
REMARK  8 active torsions:
REMARK  status: ('A' for Active; 'I' for Inactive)
REMARK    1  A    between atoms: C_4  and  C_5 
REMARK    2  A    between atoms: C_5  and  N_6 
REMARK    3  A    between atoms: N_6  and  C_9 
REMARK    4  A    between atoms: C_9  and  C_10 
REMARK    5  A    between atoms: C_10  and  C_11 
REMARK    6  A    between atoms: C_11  and  N_12 
REMARK       I    between atoms: N_12  and  C_13 
REMARK    7  A    between atoms: C_13  and  C_14 
REMARK    8  A    between atoms: C_16  and  O_17 
ROOT
HETATM    1  C   UNL     1      25.339  43.395  51.341  1.00  0.00     0.047 C 
ENDROOT
BRANCH   1   2
HETATM    2  C   UNL     1      24.674  44.668  50.837  1.00  0.00     0.235 C 
BRANCH   2   3
HETATM    3  N   UNL     1      25.672  45.452  50.047  1.00  0.00    -0.067 N 
HETATM    4  H   UNL     1      25.355  45.589  49.080  1.00  0.00     0.277 HD
HETATM    5  H   UNL     1      26.526  44.878  49.977  1.00  0.00     0.277 HD
BRANCH   3   6
HETATM    6  C   UNL     1      26.088  46.778  50.618  1.00  0.00     0.223 C 
HETATM    7  C   UNL     1      25.538  46.935  52.035  1.00  0.00     0.046 C 
BRANCH   6   8
HETATM    8  C   UNL     1      25.644  47.906  49.738  1.00  0.00     0.032 A 
HETATM    9  S   UNL     1      23.983  48.239  49.431  1.00  0.00    -0.076 SA
HETATM   10  C   UNL     1      24.435  49.573  48.447  1.00  0.00     0.071 A 
HETATM   11  C   UNL     1      23.395  50.418  47.797  1.00  0.00     0.078 C 
HETATM   12  N   UNL     1      25.730  49.768  48.335  1.00  0.00    -0.257 NA
HETATM   13  C   UNL     1      26.422  48.833  49.072  1.00  0.00     0.134 A 
ENDBRANCH   6   8
ENDBRANCH   3   6
ENDBRANCH   2   3
ENDBRANCH   1   2
BRANCH   1  14
HETATM   14  C   UNL     1      26.808  43.290  50.924  1.00  0.00     0.124 C 
BRANCH  14  15
HETATM   15  N   UNL     1      27.788  43.710  51.910  1.00  0.00    -0.357 N 
HETATM   16  C   UNL     1      28.153  42.925  52.989  1.00  0.00     0.251 C 
HETATM   17  O   UNL     1      27.906  41.727  53.070  1.00  0.00    -0.268 OA
HETATM   18  H   UNL     1      27.855  44.713  52.062  1.00  0.00     0.162 HD
BRANCH  16  19
HETATM   19  C   UNL     1      28.895  43.615  54.070  1.00  0.00     0.034 A 
HETATM   20  C   UNL     1      28.356  44.786  54.613  1.00  0.00     0.053 A 
HETATM   21  C   UNL     1      29.048  45.441  55.626  1.00  0.00     0.066 A 
HETATM   22  C   UNL     1      30.249  44.935  56.114  1.00  0.00     0.036 A 
HETATM   23  C   UNL     1      30.777  43.758  55.584  1.00  0.00     0.004 A 
HETATM   24  C   UNL     1      30.103  43.095  54.557  1.00  0.00     0.017 A 
BRANCH  21  25
HETATM   25  O   UNL     1      28.583  46.597  56.177  1.00  0.00    -0.361 OA
HETATM   26  H   UNL     1      29.331  47.156  56.444  1.00  0.00     0.217 HD
ENDBRANCH  21  25
ENDBRANCH  16  19
ENDBRANCH  14  15
ENDBRANCH   1  14
TORSDOF 8
ENDMDL
MODEL 4
REMARK VINA RESULT:      -7.0      2.217      2.705
REMARK  8 active torsions:
REMARK  status: ('A' for Active; 'I' for Inactive)
REMARK    1  A    between atoms: C_4  and  C_5 
REMARK    2  A    between atoms: C_5  and  N_6 
REMARK    3  A    between atoms: N_6  and  C_9 
REMARK    4  A    between atoms: C_9  and  C_10 
REMARK    5  A    between atoms: C_10  and  C_11 
REMARK    6  A    between atoms: C_11  and  N_12 
REMARK       I    between atoms: N_12  and  C_13 
REMARK    7  A    between atoms: C_13  and  C_14 
REMARK    8  A    between atoms: C_16  and  O_17 
ROOT
HETATM    1  C   UNL     1      26.943  44.319  50.937  1.00  0.00     0.047 C 
ENDROOT
BRANCH   1   2
HETATM    2  C   UNL     1      26.367  43.543  49.761  1.00  0.00     0.235 C 
BRANCH   2   3
HETATM    3  N   UNL     1      25.460  44.445  48.987  1.00  0.00    -0.067 N 
HETATM    4  H   UNL     1      25.243  44.050  48.064  1.00  0.00     0.277 HD
HETATM    5  H   UNL     1      25.981  45.314  48.798  1.00  0.00     0.277 HD
BRANCH   3   6
HETATM    6  C   UNL     1      24.177  44.846  49.660  1.00  0.00     0.223 C 
HETATM    7  C   UNL     1      23.004  44.076  49.055  1.00  0.00     0.046 C 
BRANCH   6   8
HETATM    8  C   UNL     1      23.960  46.324  49.567  1.00  0.00     0.032 A 
HETATM    9  S   UNL     1      22.696  47.013  48.623  1.00  0.00    -0.076 SA
HETATM   10  C   UNL     1      23.191  48.585  49.112  1.00  0.00     0.071 A 
HETATM   11  C   UNL     1      22.456  49.790  48.636  1.00  0.00     0.078 C 
HETATM   12  N   UNL     1      24.230  48.615  49.916  1.00  0.00    -0.257 NA
HETATM   13  C   UNL     1      24.666  47.338  50.186  1.00  0.00     0.134 A 
ENDBRANCH   6   8
ENDBRANCH   3   6
ENDBRANCH   2   3
ENDBRANCH   1   2
BRANCH   1  14
HETATM   14  C   UNL     1      27.176  43.438  52.167  1.00  0.00     0.124 C 
BRANCH  14  15
HETATM   15  N   UNL     1      27.941  44.034  53.249  1.00  0.00    -0.357 N 
HETATM   16  C   UNL     1      29.223  43.630  53.575  1.00  0.00     0.251 C 
HETATM   17  O   UNL     1      29.927  42.950  52.838  1.00  0.00    -0.268 OA
HETATM   18  H   UNL     1      27.391  44.400  54.023  1.00  0.00     0.162 HD
BRANCH  16  19
HETATM   19  C   UNL     1      29.730  44.088  54.890  1.00  0.00     0.034 A 
HETATM   20  C   UNL     1      30.713  43.327  55.532  1.00  0.00     0.053 A 
HETATM   21  C   UNL     1      31.193  43.749  56.767  1.00  0.00     0.066 A 
HETATM   22  C   UNL     1      30.724  44.921  57.354  1.00  0.00     0.036 A 
HETATM   23  C   UNL     1      29.757  45.687  56.705  1.00  0.00     0.004 A 
HETATM   24  C   UNL     1      29.254  45.272  55.471  1.00  0.00     0.017 A 
BRANCH  21  25
HETATM   25  O   UNL     1      32.133  43.037  57.449  1.00  0.00    -0.361 OA
HETATM   26  H   UNL     1      31.714  42.560  58.183  1.00  0.00     0.217 HD
ENDBRANCH  21  25
ENDBRANCH  16  19
ENDBRANCH  14  15
ENDBRANCH   1  14
TORSDOF 8
ENDMDL
MODEL 5
REMARK VINA RESULT:      -6.9      1.961      3.661
REMARK  8 active torsions:
REMARK  status: ('A' for Active; 'I' for Inactive)
REMARK    1  A    between atoms: C_4  and  C_5 
REMARK    2  A    between atoms: C_5  and  N_6 
REMARK    3  A    between atoms: N_6  and  C_9 
REMARK    4  A    between atoms: C_9  and  C_10 
REMARK    5  A    between atoms: C_10  and  C_11 
REMARK    6  A    between atoms: C_11  and  N_12 
REMARK       I    between atoms: N_12  and  C_13 
REMARK    7  A    between atoms: C_13  and  C_14 
REMARK    8  A    between atoms: C_16  and  O_17 
ROOT
HETATM    1  C   UNL     1      25.794  45.738  53.697  1.00  0.00     0.047 C 
ENDROOT
BRANCH   1   2
HETATM    2  C   UNL     1      26.090  47.034  52.957  1.00  0.00     0.235 C 
BRANCH   2   3
HETATM    3  N   UNL     1      25.066  47.223  51.885  1.00  0.00    -0.067 N 
HETATM    4  H   UNL     1      24.536  48.092  52.026  1.00  0.00     0.277 HD
HETATM    5  H   UNL     1      24.377  46.462  51.983  1.00  0.00     0.277 HD
BRANCH   3   6
HETATM    6  C   UNL     1      25.561  47.176  50.467  1.00  0.00     0.223 C 
HETATM    7  C   UNL     1      24.559  47.860  49.539  1.00  0.00     0.046 C 
BRANCH   6   8
HETATM    8  C   UNL     1      25.825  45.768  50.034  1.00  0.00     0.032 A 
HETATM    9  S   UNL     1      24.561  44.680  49.609  1.00  0.00    -0.076 SA
HETATM   10  C   UNL     1      25.725  43.462  49.271  1.00  0.00     0.071 A 
HETATM   11  C   UNL     1      25.295  42.120  48.790  1.00  0.00     0.078 C 
HETATM   12  N   UNL     1      26.975  43.819  49.464  1.00  0.00    -0.257 NA
HETATM   13  C   UNL     1      27.041  45.127  49.888  1.00  0.00     0.134 A 
ENDBRANCH   6   8
ENDBRANCH   3   6
ENDBRANCH   2   3
ENDBRANCH   1   2
BRANCH   1  14
HETATM   14  C   UNL     1      26.943  44.731  53.607  1.00  0.00     0.124 C 
BRANCH  14  15
HETATM   15  N   UNL     1      28.031  44.910  54.552  1.00  0.00    -0.357 N 
HETATM   16  C   UNL     1      29.219  44.206  54.473  1.00  0.00     0.251 C 
HETATM   17  O   UNL     1      29.576  43.588  53.477  1.00  0.00    -0.268 OA
HETATM   18  H   UNL     1      27.754  45.189  55.489  1.00  0.00     0.162 HD
BRANCH  16  19
HETATM   19  C   UNL     1      30.078  44.250  55.680  1.00  0.00     0.034 A 
HETATM   20  C   UNL     1      29.991  45.360  56.526  1.00  0.00     0.053 A 
HETATM   21  C   UNL     1      30.795  45.409  57.659  1.00  0.00     0.066 A 
HETATM   22  C   UNL     1      31.662  44.364  57.967  1.00  0.00     0.036 A 
HETATM   23  C   UNL     1      31.736  43.250  57.131  1.00  0.00     0.004 A 
HETATM   24  C   UNL     1      30.945  43.190  55.983  1.00  0.00     0.017 A 
BRANCH  21  25
HETATM   25  O   UNL     1      30.769  46.474  58.508  1.00  0.00    -0.361 OA
HETATM   26  H   UNL     1      31.654  46.615  58.884  1.00  0.00     0.217 HD
ENDBRANCH  21  25
ENDBRANCH  16  19
ENDBRANCH  14  15
ENDBRANCH   1  14
TORSDOF 8
ENDMDL
MODEL 6
REMARK VINA RESULT:      -6.9      2.508      3.055
REMARK  8 active torsions:
REMARK  status: ('A' for Active; 'I' for Inactive)
REMARK    1  A    between atoms: C_4  and  C_5 
REMARK    2  A    between atoms: C_5  and  N_6 
REMARK    3  A    between atoms: N_6  and  C_9 
REMARK    4  A    between atoms: C_9  and  C_10 
REMARK    5  A    between atoms: C_10  and  C_11 
REMARK    6  A    between atoms: C_11  and  N_12 
REMARK       I    between atoms: N_12  and  C_13 
REMARK    7  A    between atoms: C_13  and  C_14 
REMARK    8  A    between atoms: C_16  and  O_17 
ROOT
HETATM    1  C   UNL     1      26.452  43.779  52.718  1.00  0.00     0.047 C 
ENDROOT
BRANCH   1   2
HETATM    2  C   UNL     1      25.993  43.694  51.269  1.00  0.00     0.235 C 
BRANCH   2   3
HETATM    3  N   UNL     1      25.950  45.073  50.695  1.00  0.00    -0.067 N 
HETATM    4  H   UNL     1      26.408  45.107  49.776  1.00  0.00     0.277 HD
HETATM    5  H   UNL     1      26.518  45.677  51.308  1.00  0.00     0.277 HD
BRANCH   3   6
HETATM    6  C   UNL     1      24.595  45.715  50.590  1.00  0.00     0.223 C 
HETATM    7  C   UNL     1      23.635  44.795  49.838  1.00  0.00     0.046 C 
BRANCH   6   8
HETATM    8  C   UNL     1      24.685  47.057  49.932  1.00  0.00     0.032 A 
HETATM    9  S   UNL     1      23.344  47.787  49.138  1.00  0.00    -0.076 SA
HETATM   10  C   UNL     1      24.313  49.156  48.766  1.00  0.00     0.071 A 
HETATM   11  C   UNL     1      23.735  50.311  48.023  1.00  0.00     0.078 C 
HETATM   12  N   UNL     1      25.556  49.089  49.187  1.00  0.00    -0.257 NA
HETATM   13  C   UNL     1      25.772  47.906  49.857  1.00  0.00     0.134 A 
ENDBRANCH   6   8
ENDBRANCH   3   6
ENDBRANCH   2   3
ENDBRANCH   1   2
BRANCH   1  14
HETATM   14  C   UNL     1      27.967  43.954  52.847  1.00  0.00     0.124 C 
BRANCH  14  15
HETATM   15  N   UNL     1      28.496  44.005  54.199  1.00  0.00    -0.357 N 
HETATM   16  C   UNL     1      28.747  45.192  54.864  1.00  0.00     0.251 C 
HETATM   17  O   UNL     1      28.305  46.277  54.505  1.00  0.00    -0.268 OA
HETATM   18  H   UNL     1      29.090  43.224  54.466  1.00  0.00     0.162 HD
BRANCH  16  19
HETATM   19  C   UNL     1      29.587  45.087  56.081  1.00  0.00     0.034 A 
HETATM   20  C   UNL     1      30.560  44.084  56.140  1.00  0.00     0.053 A 
HETATM   21  C   UNL     1      31.350  43.978  57.279  1.00  0.00     0.066 A 
HETATM   22  C   UNL     1      31.196  44.864  58.341  1.00  0.00     0.036 A 
HETATM   23  C   UNL     1      30.237  45.874  58.274  1.00  0.00     0.004 A 
HETATM   24  C   UNL     1      29.426  45.987  57.144  1.00  0.00     0.017 A 
BRANCH  21  25
HETATM   25  O   UNL     1      32.299  43.008  57.403  1.00  0.00    -0.361 OA
HETATM   26  H   UNL     1      32.060  42.406  58.126  1.00  0.00     0.217 HD
ENDBRANCH  21  25
ENDBRANCH  16  19
ENDBRANCH  14  15
ENDBRANCH   1  14
TORSDOF 8
ENDMDL
MODEL 7
REMARK VINA RESULT:      -6.9      3.444      4.630
REMARK  8 active torsions:
REMARK  status: ('A' for Active; 'I' for Inactive)
REMARK    1  A    between atoms: C_4  and  C_5 
REMARK    2  A    between atoms: C_5  and  N_6 
REMARK    3  A    between atoms: N_6  and  C_9 
REMARK    4  A    between atoms: C_9  and  C_10 
REMARK    5  A    between atoms: C_10  and  C_11 
REMARK    6  A    between atoms: C_11  and  N_12 
REMARK       I    between atoms: N_12  and  C_13 
REMARK    7  A    between atoms: C_13  and  C_14 
REMARK    8  A    between atoms: C_16  and  O_17 
ROOT
HETATM    1  C   UNL     1      24.982  45.543  50.800  1.00  0.00     0.047 C 
ENDROOT
BRANCH   1   2
HETATM    2  C   UNL     1      26.358  46.191  50.856  1.00  0.00     0.235 C 
BRANCH   2   3
HETATM    3  N   UNL     1      26.206  47.663  50.650  1.00  0.00    -0.067 N 
HETATM    4  H   UNL     1      26.739  48.194  51.351  1.00  0.00     0.277 HD
HETATM    5  H   UNL     1      25.216  47.896  50.825  1.00  0.00     0.277 HD
BRANCH   3   6
HETATM    6  C   UNL     1      26.539  48.188  49.282  1.00  0.00     0.223 C 
HETATM    7  C   UNL     1      27.808  49.037  49.341  1.00  0.00     0.046 C 
BRANCH   6   8
HETATM    8  C   UNL     1      25.394  48.966  48.711  1.00  0.00     0.032 A 
HETATM    9  S   UNL     1      23.756  48.637  49.124  1.00  0.00    -0.076 SA
HETATM   10  C   UNL     1      23.243  49.917  48.100  1.00  0.00     0.071 A 
HETATM   11  C   UNL     1      21.796  50.246  47.969  1.00  0.00     0.078 C 
HETATM   12  N   UNL     1      24.210  50.553  47.476  1.00  0.00    -0.257 NA
HETATM   13  C   UNL     1      25.433  50.026  47.825  1.00  0.00     0.134 A 
ENDBRANCH   6   8
ENDBRANCH   3   6
ENDBRANCH   2   3
ENDBRANCH   1   2
BRANCH   1  14
HETATM   14  C   UNL     1      24.804  44.444  51.851  1.00  0.00     0.124 C 
BRANCH  14  15
HETATM   15  N   UNL     1      26.006  44.020  52.548  1.00  0.00    -0.357 N 
HETATM   16  C   UNL     1      26.312  44.425  53.834  1.00  0.00     0.251 C 
HETATM   17  O   UNL     1      25.499  44.936  54.595  1.00  0.00    -0.268 OA
HETATM   18  H   UNL     1      26.807  43.817  51.955  1.00  0.00     0.162 HD
BRANCH  16  19
HETATM   19  C   UNL     1      27.708  44.187  54.273  1.00  0.00     0.034 A 
HETATM   20  C   UNL     1      28.302  45.104  55.146  1.00  0.00     0.053 A 
HETATM   21  C   UNL     1      29.612  44.889  55.560  1.00  0.00     0.066 A 
HETATM   22  C   UNL     1      30.322  43.770  55.135  1.00  0.00     0.036 A 
HETATM   23  C   UNL     1      29.722  42.847  54.278  1.00  0.00     0.004 A 
HETATM   24  C   UNL     1      28.412  43.055  53.842  1.00  0.00     0.017 A 
BRANCH  21  25
HETATM   25  O   UNL     1      30.250  45.759  56.392  1.00  0.00    -0.361 OA
HETATM   26  H   UNL     1      29.597  46.235  56.931  1.00  0.00     0.217 HD
ENDBRANCH  21  25
ENDBRANCH  16  19
ENDBRANCH  14  15
ENDBRANCH   1  14
TORSDOF 8
ENDMDL
MODEL 8
REMARK VINA RESULT:      -6.8      1.629      2.014
REMARK  8 active torsions:
REMARK  status: ('A' for Active; 'I' for Inactive)
REMARK    1  A    between atoms: C_4  and  C_5 
REMARK    2  A    between atoms: C_5  and  N_6 
REMARK    3  A    between atoms: N_6  and  C_9 
REMARK    4  A    between atoms: C_9  and  C_10 
REMARK    5  A    between atoms: C_10  and  C_11 
REMARK    6  A    between atoms: C_11  and  N_12 
REMARK       I    between atoms: N_12  and  C_13 
REMARK    7  A    between atoms: C_13  and  C_14 
REMARK    8  A    between atoms: C_16  and  O_17 
ROOT
HETATM    1  C   UNL     1      27.130  42.425  49.921  1.00  0.00     0.047 C 
ENDROOT
BRANCH   1   2
HETATM    2  C   UNL     1      25.775  42.449  49.227  1.00  0.00     0.235 C 
BRANCH   2   3
HETATM    3  N   UNL     1      25.451  43.858  48.851  1.00  0.00    -0.067 N 
HETATM    4  H   UNL     1      25.341  43.956  47.834  1.00  0.00     0.277 HD
HETATM    5  H   UNL     1      26.269  44.436  49.095  1.00  0.00     0.277 HD
BRANCH   3   6
HETATM    6  C   UNL     1      24.264  44.479  49.533  1.00  0.00     0.223 C 
HETATM    7  C   UNL     1      23.288  45.026  48.492  1.00  0.00     0.046 C 
BRANCH   6   8
HETATM    8  C   UNL     1      24.691  45.550  50.488  1.00  0.00     0.032 A 
HETATM    9  S   UNL     1      25.034  45.227  52.144  1.00  0.00    -0.076 SA
HETATM   10  C   UNL     1      25.417  46.884  52.385  1.00  0.00     0.071 A 
HETATM   11  C   UNL     1      25.856  47.370  53.723  1.00  0.00     0.078 C 
HETATM   12  N   UNL     1      25.295  47.644  51.320  1.00  0.00    -0.257 NA
HETATM   13  C   UNL     1      24.894  46.894  50.238  1.00  0.00     0.134 A 
ENDBRANCH   6   8
ENDBRANCH   3   6
ENDBRANCH   2   3
ENDBRANCH   1   2
BRANCH   1  14
HETATM   14  C   UNL     1      27.019  42.150  51.422  1.00  0.00     0.124 C 
BRANCH  14  15
HETATM   15  N   UNL     1      27.856  42.961  52.289  1.00  0.00    -0.357 N 
HETATM   16  C   UNL     1      28.799  42.420  53.144  1.00  0.00     0.251 C 
HETATM   17  O   UNL     1      29.208  41.268  53.061  1.00  0.00    -0.268 OA
HETATM   18  H   UNL     1      27.447  43.840  52.594  1.00  0.00     0.162 HD
BRANCH  16  19
HETATM   19  C   UNL     1      29.324  43.332  54.188  1.00  0.00     0.034 A 
HETATM   20  C   UNL     1      28.612  44.500  54.479  1.00  0.00     0.053 A 
HETATM   21  C   UNL     1      29.099  45.362  55.455  1.00  0.00     0.066 A 
HETATM   22  C   UNL     1      30.266  45.065  56.153  1.00  0.00     0.036 A 
HETATM   23  C   UNL     1      30.967  43.892  55.874  1.00  0.00     0.004 A 
HETATM   24  C   UNL     1      30.499  43.022  54.887  1.00  0.00     0.017 A 
BRANCH  21  25
HETATM   25  O   UNL     1      28.460  46.524  55.766  1.00  0.00    -0.361 OA
HETATM   26  H   UNL     1      29.113  47.212  55.970  1.00  0.00     0.217 HD
ENDBRANCH  21  25
ENDBRANCH  16  19
ENDBRANCH  14  15
ENDBRANCH   1  14
TORSDOF 8
ENDMDL
MODEL 9
REMARK VINA RESULT:      -6.8     13.312     14.529
REMARK  8 active torsions:
REMARK  status: ('A' for Active; 'I' for Inactive)
REMARK    1  A    between atoms: C_4  and  C_5 
REMARK    2  A    between atoms: C_5  and  N_6 
REMARK    3  A    between atoms: N_6  and  C_9 
REMARK    4  A    between atoms: C_9  and  C_10 
REMARK    5  A    between atoms: C_10  and  C_11 
REMARK    6  A    between atoms: C_11  and  N_12 
REMARK       I    between atoms: N_12  and  C_13 
REMARK    7  A    between atoms: C_13  and  C_14 
REMARK    8  A    between atoms: C_16  and  O_17 
ROOT
HETATM    1  C   UNL     1      29.497  47.116  39.647  1.00  0.00     0.047 C 
ENDROOT
BRANCH   1   2
HETATM    2  C   UNL     1      28.254  47.692  38.985  1.00  0.00     0.235 C 
BRANCH   2   3
HETATM    3  N   UNL     1      27.584  48.622  39.944  1.00  0.00    -0.067 N 
HETATM    4  H   UNL     1      28.124  48.712  40.813  1.00  0.00     0.277 HD
HETATM    5  H   UNL     1      26.691  48.186  40.220  1.00  0.00     0.277 HD
BRANCH   3   6
HETATM    6  C   UNL     1      27.254  49.995  39.429  1.00  0.00     0.223 C 
HETATM    7  C   UNL     1      26.703  49.903  38.007  1.00  0.00     0.046 C 
BRANCH   6   8
HETATM    8  C   UNL     1      28.449  50.894  39.488  1.00  0.00     0.032 A 
HETATM    9  S   UNL     1      28.989  51.617  40.954  1.00  0.00    -0.076 SA
HETATM   10  C   UNL     1      30.284  52.364  40.106  1.00  0.00     0.071 A 
HETATM   11  C   UNL     1      31.266  53.219  40.829  1.00  0.00     0.078 C 
HETATM   12  N   UNL     1      30.324  52.111  38.817  1.00  0.00    -0.257 NA
HETATM   13  C   UNL     1      29.293  51.271  38.460  1.00  0.00     0.134 A 
ENDBRANCH   6   8
ENDBRANCH   3   6
ENDBRANCH   2   3
ENDBRANCH   1   2
BRANCH   1  14
HETATM   14  C   UNL     1      30.793  47.677  39.057  1.00  0.00     0.124 C 
BRANCH  14  15
HETATM   15  N   UNL     1      31.473  48.691  39.845  1.00  0.00    -0.357 N 
HETATM   16  C   UNL     1      32.337  48.384  40.881  1.00  0.00     0.251 C 
HETATM   17  O   UNL     1      32.818  47.271  41.055  1.00  0.00    -0.268 OA
HETATM   18  H   UNL     1      30.980  49.575  39.939  1.00  0.00     0.162 HD
BRANCH  16  19
HETATM   19  C   UNL     1      32.680  49.504  41.790  1.00  0.00     0.034 A 
HETATM   20  C   UNL     1      33.818  50.267  41.514  1.00  0.00     0.053 A 
HETATM   21  C   UNL     1      34.147  51.318  42.363  1.00  0.00     0.066 A 
HETATM   22  C   UNL     1      33.351  51.626  43.462  1.00  0.00     0.036 A 
HETATM   23  C   UNL     1      32.206  50.874  43.727  1.00  0.00     0.004 A 
HETATM   24  C   UNL     1      31.868  49.808  42.892  1.00  0.00     0.017 A 
BRANCH  21  25
HETATM   25  O   UNL     1      35.256  52.083  42.157  1.00  0.00    -0.361 OA
HETATM   26  H   UNL     1      35.429  52.158  41.205  1.00  0.00     0.217 HD
ENDBRANCH  21  25
ENDBRANCH  16  19
ENDBRANCH  14  15
ENDBRANCH   1  14
TORSDOF 8
ENDMDL
MODEL 10
REMARK VINA RESULT:      -6.6      4.040      5.002
REMARK  8 active torsions:
REMARK  status: ('A' for Active; 'I' for Inactive)
REMARK    1  A    between atoms: C_4  and  C_5 
REMARK    2  A    between atoms: C_5  and  N_6 
REMARK    3  A    between atoms: N_6  and  C_9 
REMARK    4  A    between atoms: C_9  and  C_10 
REMARK    5  A    between atoms: C_10  and  C_11 
REMARK    6  A    between atoms: C_11  and  N_12 
REMARK       I    between atoms: N_12  and  C_13 
REMARK    7  A    between atoms: C_13  and  C_14 
REMARK    8  A    between atoms: C_16  and  O_17 
ROOT
HETATM    1  C   UNL     1      25.527  46.033  50.289  1.00  0.00     0.047 C 
ENDROOT
BRANCH   1   2
HETATM    2  C   UNL     1      24.098  46.222  49.802  1.00  0.00     0.235 C 
BRANCH   2   3
HETATM    3  N   UNL     1      23.687  47.637  50.050  1.00  0.00    -0.067 N 
HETATM    4  H   UNL     1      24.337  48.105  50.693  1.00  0.00     0.277 HD
HETATM    5  H   UNL     1      22.782  47.611  50.545  1.00  0.00     0.277 HD
BRANCH   3   6
HETATM    6  C   UNL     1      23.492  48.503  48.837  1.00  0.00     0.223 C 
HETATM    7  C   UNL     1      24.648  49.492  48.707  1.00  0.00     0.046 C 
BRANCH   6   8
HETATM    8  C   UNL     1      22.175  49.214  48.889  1.00  0.00     0.032 A 
HETATM    9  S   UNL     1      22.025  50.902  48.586  1.00  0.00    -0.076 SA
HETATM   10  C   UNL     1      20.328  50.792  48.829  1.00  0.00     0.071 A 
HETATM   11  C   UNL     1      19.466  52.000  48.695  1.00  0.00     0.078 C 
HETATM   12  N   UNL     1      19.885  49.590  49.126  1.00  0.00    -0.257 NA
HETATM   13  C   UNL     1      20.924  48.689  49.152  1.00  0.00     0.134 A 
ENDBRANCH   6   8
ENDBRANCH   3   6
ENDBRANCH   2   3
ENDBRANCH   1   2
BRANCH   1  14
HETATM   14  C   UNL     1      25.650  44.933  51.347  1.00  0.00     0.124 C 
BRANCH  14  15
HETATM   15  N   UNL     1      26.849  44.959  52.166  1.00  0.00    -0.357 N 
HETATM   16  C   UNL     1      27.582  43.824  52.462  1.00  0.00     0.251 C 
HETATM   17  O   UNL     1      27.463  42.764  51.860  1.00  0.00    -0.268 OA
HETATM   18  H   UNL     1      26.882  45.693  52.869  1.00  0.00     0.162 HD
BRANCH  16  19
HETATM   19  C   UNL     1      28.563  43.958  53.565  1.00  0.00     0.034 A 
HETATM   20  C   UNL     1      28.333  44.918  54.555  1.00  0.00     0.053 A 
HETATM   21  C   UNL     1      29.251  45.050  55.592  1.00  0.00     0.066 A 
HETATM   22  C   UNL     1      30.373  44.230  55.663  1.00  0.00     0.036 A 
HETATM   23  C   UNL     1      30.593  43.262  54.683  1.00  0.00     0.004 A 
HETATM   24  C   UNL     1      29.689  43.124  53.629  1.00  0.00     0.017 A 
BRANCH  21  25
HETATM   25  O   UNL     1      29.091  45.982  56.573  1.00  0.00    -0.361 OA
HETATM   26  H   UNL     1      28.682  45.571  57.352  1.00  0.00     0.217 HD
ENDBRANCH  21  25
ENDBRANCH  16  19
ENDBRANCH  14  15
ENDBRANCH   1  14
TORSDOF 8
ENDMDL
