MODEL 1
REMARK VINA RESULT:      -8.7      0.000      0.000
REMARK  7 active torsions:
REMARK  status: ('A' for Active; 'I' for Inactive)
REMARK    1  A    between atoms: C_7  and  C_8 
REMARK    2  A    between atoms: C_8  and  N_9 
REMARK    3  A    between atoms: C_13  and  C_14 
REMARK    4  A    between atoms: C_14  and  C_15 
REMARK    5  A    between atoms: C_15  and  C_16 
REMARK    6  A    between atoms: N_26  and  C_27 
REMARK    7  A    between atoms: C_27  and  C_28 
ROOT
HETATM    1  C   UNL     1      26.290  43.319  51.186  1.00  0.00     0.123 C 
HETATM    2  N   UNL     1      25.197  43.927  51.927  1.00  0.00    -0.324 N 
HETATM    3  C   UNL     1      25.504  44.174  53.246  1.00  0.00     0.326 C 
HETATM    4  O   UNL     1      24.690  44.516  54.083  1.00  0.00    -0.247 OA
HETATM    5  N   UNL     1      26.839  43.997  53.405  1.00  0.00    -0.268 N 
HETATM    6  C   UNL     1      27.398  43.606  52.230  1.00  0.00     0.257 C 
HETATM    7  O   UNL     1      28.598  43.477  52.023  1.00  0.00    -0.270 OA
HETATM    8  H   UNL     1      24.214  43.832  51.680  1.00  0.00     0.165 HD
ENDROOT
BRANCH   1   9
HETATM    9  C   UNL     1      26.479  44.021  49.801  1.00  0.00     0.027 C 
HETATM   10  C   UNL     1      27.269  45.339  49.776  1.00  0.00     0.035 C 
HETATM   11  C   UNL     1      26.502  46.603  50.141  1.00  0.00     0.235 C 
HETATM   12  N   UNL     1      25.144  46.681  49.485  1.00  0.00    -0.067 N 
HETATM   13  H   UNL     1      25.308  46.990  48.519  1.00  0.00     0.280 HD
HETATM   14  C   UNL     1      24.347  45.406  49.431  1.00  0.00     0.235 C 
HETATM   15  C   UNL     1      25.193  44.232  48.978  1.00  0.00     0.035 C 
BRANCH  12  16
HETATM   16  C   UNL     1      24.281  47.766  50.125  1.00  0.00     0.277 C 
BRANCH  16  17
HETATM   17  C   UNL     1      23.597  48.662  49.165  1.00  0.00     0.011 A 
HETATM   18  C   UNL     1      24.209  49.582  48.264  1.00  0.00     0.060 A 
HETATM   19  C   UNL     1      25.653  49.883  48.078  1.00  0.00     0.073 C 
HETATM   20  N   UNL     1      23.300  50.208  47.516  1.00  0.00    -0.178 NA
HETATM   21  N   UNL     1      22.119  49.768  47.971  1.00  0.00    -0.284 N 
HETATM   22  C   UNL     1      20.894  50.300  47.424  1.00  0.00     0.179 C 
HETATM   23  C   UNL     1      22.242  48.812  48.940  1.00  0.00     0.122 A 
ENDBRANCH  16  17
ENDBRANCH  12  16
ENDBRANCH   1   9
BRANCH   1  24
HETATM   24  C   UNL     1      26.147  41.763  51.162  1.00  0.00     0.082 C 
BRANCH  24  25
HETATM   25  C   UNL     1      26.735  40.928  50.038  1.00  0.00    -0.034 A 
HETATM   26  C   UNL     1      26.036  40.476  48.905  1.00  0.00     0.040 A 
HETATM   27 CL   UNL     1      24.385  40.862  48.601  1.00  0.00    -0.084 Cl
HETATM   28  C   UNL     1      26.652  39.635  47.968  1.00  0.00     0.024 A 
HETATM   29  C   UNL     1      27.963  39.205  48.153  1.00  0.00     0.002 A 
HETATM   30  C   UNL     1      28.666  39.617  49.276  1.00  0.00     0.001 A 
HETATM   31  C   UNL     1      28.059  40.465  50.206  1.00  0.00     0.009 A 
ENDBRANCH  24  25
ENDBRANCH   1  24
BRANCH   5  32
HETATM   32  C   UNL     1      27.559  44.204  54.643  1.00  0.00     0.141 C 
BRANCH  32  33
HETATM   33  C   UNL     1      28.117  45.595  54.686  1.00  0.00     0.004 A 
HETATM   34  C   UNL     1      28.023  46.443  55.932  1.00  0.00     0.007 A 
HETATM   35  C   UNL     1      29.353  45.892  55.498  1.00  0.00     0.007 A 
ENDBRANCH  32  33
ENDBRANCH   5  32
TORSDOF 7
ENDMDL
MODEL 2
REMARK VINA RESULT:      -8.7      2.434      5.135
REMARK  7 active torsions:
REMARK  status: ('A' for Active; 'I' for Inactive)
REMARK    1  A    between atoms: C_7  and  C_8 
REMARK    2  A    between atoms: C_8  and  N_9 
REMARK    3  A    between atoms: C_13  and  C_14 
REMARK    4  A    between atoms: C_14  and  C_15 
REMARK    5  A    between atoms: C_15  and  C_16 
REMARK    6  A    between atoms: N_26  and  C_27 
REMARK    7  A    between atoms: C_27  and  C_28 
ROOT
HETATM    1  C   UNL     1      26.553  43.156  50.946  1.00  0.00     0.123 C 
HETATM    2  N   UNL     1      26.526  43.025  49.498  1.00  0.00    -0.324 N 
HETATM    3  C   UNL     1      27.206  41.920  49.038  1.00  0.00     0.326 C 
HETATM    4  O   UNL     1      27.453  41.712  47.865  1.00  0.00    -0.247 OA
HETATM    5  N   UNL     1      27.499  41.135  50.103  1.00  0.00    -0.268 N 
HETATM    6  C   UNL     1      27.058  41.722  51.247  1.00  0.00     0.257 C 
HETATM    7  O   UNL     1      27.073  41.210  52.359  1.00  0.00    -0.270 OA
HETATM    8  H   UNL     1      26.396  43.803  48.855  1.00  0.00     0.165 HD
ENDROOT
BRANCH   1   9
HETATM    9  C   UNL     1      25.130  43.493  51.500  1.00  0.00     0.027 C 
HETATM   10  C   UNL     1      23.921  43.065  50.653  1.00  0.00     0.035 C 
HETATM   11  C   UNL     1      23.527  43.988  49.508  1.00  0.00     0.235 C 
HETATM   12  N   UNL     1      23.527  45.447  49.897  1.00  0.00    -0.067 N 
HETATM   13  H   UNL     1      22.650  45.610  50.406  1.00  0.00     0.280 HD
HETATM   14  C   UNL     1      24.659  45.912  50.772  1.00  0.00     0.235 C 
HETATM   15  C   UNL     1      24.908  44.957  51.924  1.00  0.00     0.035 C 
BRANCH  12  16
HETATM   16  C   UNL     1      23.464  46.348  48.666  1.00  0.00     0.277 C 
BRANCH  16  17
HETATM   17  C   UNL     1      23.118  47.760  48.948  1.00  0.00     0.011 A 
HETATM   18  C   UNL     1      24.024  48.848  49.116  1.00  0.00     0.060 A 
HETATM   19  C   UNL     1      25.510  48.839  49.071  1.00  0.00     0.073 C 
HETATM   20  N   UNL     1      23.374  49.994  49.326  1.00  0.00    -0.178 NA
HETATM   21  N   UNL     1      22.079  49.650  49.374  1.00  0.00    -0.284 N 
HETATM   22  C   UNL     1      21.080  50.652  49.661  1.00  0.00     0.179 C 
HETATM   23  C   UNL     1      21.868  48.324  49.119  1.00  0.00     0.122 A 
ENDBRANCH  16  17
ENDBRANCH  12  16
ENDBRANCH   1   9
BRANCH   1  24
HETATM   24  C   UNL     1      27.715  44.099  51.395  1.00  0.00     0.082 C 
BRANCH  24  25
HETATM   25  C   UNL     1      28.520  43.824  52.655  1.00  0.00    -0.034 A 
HETATM   26  C   UNL     1      28.298  44.417  53.910  1.00  0.00     0.040 A 
HETATM   27 CL   UNL     1      27.015  45.525  54.215  1.00  0.00    -0.084 Cl
HETATM   28  C   UNL     1      29.156  44.158  54.989  1.00  0.00     0.024 A 
HETATM   29  C   UNL     1      30.264  43.331  54.832  1.00  0.00     0.002 A 
HETATM   30  C   UNL     1      30.519  42.755  53.596  1.00  0.00     0.001 A 
HETATM   31  C   UNL     1      29.659  43.000  52.522  1.00  0.00     0.009 A 
ENDBRANCH  24  25
ENDBRANCH   1  24
BRANCH   5  32
HETATM   32  C   UNL     1      28.174  39.857  50.029  1.00  0.00     0.141 C 
BRANCH  32  33
HETATM   33  C   UNL     1      27.228  38.805  49.533  1.00  0.00     0.004 A 
HETATM   34  C   UNL     1      27.527  37.998  48.293  1.00  0.00     0.007 A 
HETATM   35  C   UNL     1      27.590  37.345  49.645  1.00  0.00     0.007 A 
ENDBRANCH  32  33
ENDBRANCH   5  32
TORSDOF 7
ENDMDL
MODEL 3
REMARK VINA RESULT:      -8.5      1.862      2.578
REMARK  7 active torsions:
REMARK  status: ('A' for Active; 'I' for Inactive)
REMARK    1  A    between atoms: C_7  and  C_8 
REMARK    2  A    between atoms: C_8  and  N_9 
REMARK    3  A    between atoms: C_13  and  C_14 
REMARK    4  A    between atoms: C_14  and  C_15 
REMARK    5  A    between atoms: C_15  and  C_16 
REMARK    6  A    between atoms: N_26  and  C_27 
REMARK    7  A    between atoms: C_27  and  C_28 
ROOT
HETATM    1  C   UNL     1      26.686  42.239  50.753  1.00  0.00     0.123 C 
HETATM    2  N   UNL     1      26.715  41.286  51.851  1.00  0.00    -0.324 N 
HETATM    3  C   UNL     1      27.778  41.472  52.705  1.00  0.00     0.326 C 
HETATM    4  O   UNL     1      28.089  40.692  53.585  1.00  0.00    -0.247 OA
HETATM    5  N   UNL     1      28.357  42.660  52.401  1.00  0.00    -0.268 N 
HETATM    6  C   UNL     1      27.718  43.230  51.346  1.00  0.00     0.257 C 
HETATM    7  O   UNL     1      27.933  44.354  50.909  1.00  0.00    -0.270 OA
HETATM    8  H   UNL     1      26.288  40.363  51.820  1.00  0.00     0.165 HD
ENDROOT
BRANCH   1   9
HETATM    9  C   UNL     1      25.245  42.813  50.554  1.00  0.00     0.027 C 
HETATM   10  C   UNL     1      24.979  43.636  49.283  1.00  0.00     0.035 C 
HETATM   11  C   UNL     1      25.394  45.101  49.318  1.00  0.00     0.235 C 
HETATM   12  N   UNL     1      25.003  45.796  50.600  1.00  0.00    -0.067 N 
HETATM   13  H   UNL     1      24.005  46.020  50.513  1.00  0.00     0.280 HD
HETATM   14  C   UNL     1      25.191  45.017  51.873  1.00  0.00     0.235 C 
HETATM   15  C   UNL     1      24.669  43.598  51.748  1.00  0.00     0.035 C 
BRANCH  12  16
HETATM   16  C   UNL     1      25.719  47.138  50.742  1.00  0.00     0.277 C 
BRANCH  16  17
HETATM   17  C   UNL     1      25.335  48.155  49.737  1.00  0.00     0.011 A 
HETATM   18  C   UNL     1      26.209  49.012  49.007  1.00  0.00     0.060 A 
HETATM   19  C   UNL     1      27.690  49.114  49.080  1.00  0.00     0.073 C 
HETATM   20  N   UNL     1      25.533  49.786  48.157  1.00  0.00    -0.178 NA
HETATM   21  N   UNL     1      24.243  49.500  48.383  1.00  0.00    -0.284 N 
HETATM   22  C   UNL     1      23.212  50.219  47.673  1.00  0.00     0.179 C 
HETATM   23  C   UNL     1      24.070  48.501  49.300  1.00  0.00     0.122 A 
ENDBRANCH  16  17
ENDBRANCH  12  16
ENDBRANCH   1   9
BRANCH   1  24
HETATM   24  C   UNL     1      27.378  41.644  49.484  1.00  0.00     0.082 C 
BRANCH  24  25
HETATM   25  C   UNL     1      26.981  40.288  48.924  1.00  0.00    -0.034 A 
HETATM   26  C   UNL     1      27.615  39.067  49.214  1.00  0.00     0.040 A 
HETATM   27 CL   UNL     1      28.932  38.928  50.315  1.00  0.00    -0.084 Cl
HETATM   28  C   UNL     1      27.223  37.883  48.573  1.00  0.00     0.024 A 
HETATM   29  C   UNL     1      26.214  37.896  47.613  1.00  0.00     0.002 A 
HETATM   30  C   UNL     1      25.591  39.093  47.291  1.00  0.00     0.001 A 
HETATM   31  C   UNL     1      25.970  40.273  47.937  1.00  0.00     0.009 A 
ENDBRANCH  24  25
ENDBRANCH   1  24
BRANCH   5  32
HETATM   32  C   UNL     1      29.484  43.234  53.104  1.00  0.00     0.141 C 
BRANCH  32  33
HETATM   33  C   UNL     1      29.088  43.588  54.506  1.00  0.00     0.004 A 
HETATM   34  C   UNL     1      29.471  44.911  55.123  1.00  0.00     0.007 A 
HETATM   35  C   UNL     1      28.038  44.643  54.755  1.00  0.00     0.007 A 
ENDBRANCH  32  33
ENDBRANCH   5  32
TORSDOF 7
ENDMDL
MODEL 4
REMARK VINA RESULT:      -8.4      3.405      7.325
REMARK  7 active torsions:
REMARK  status: ('A' for Active; 'I' for Inactive)
REMARK    1  A    between atoms: C_7  and  C_8 
REMARK    2  A    between atoms: C_8  and  N_9 
REMARK    3  A    between atoms: C_13  and  C_14 
REMARK    4  A    between atoms: C_14  and  C_15 
REMARK    5  A    between atoms: C_15  and  C_16 
REMARK    6  A    between atoms: N_26  and  C_27 
REMARK    7  A    between atoms: C_27  and  C_28 
ROOT
HETATM    1  C   UNL     1      27.167  42.731  51.490  1.00  0.00     0.123 C 
HETATM    2  N   UNL     1      26.164  42.950  52.519  1.00  0.00    -0.324 N 
HETATM    3  C   UNL     1      25.253  43.929  52.192  1.00  0.00     0.326 C 
HETATM    4  O   UNL     1      24.439  44.389  52.970  1.00  0.00    -0.247 OA
HETATM    5  N   UNL     1      25.419  44.234  50.881  1.00  0.00    -0.268 N 
HETATM    6  C   UNL     1      26.441  43.504  50.361  1.00  0.00     0.257 C 
HETATM    7  O   UNL     1      26.760  43.472  49.179  1.00  0.00    -0.270 OA
HETATM    8  H   UNL     1      26.300  42.740  53.505  1.00  0.00     0.165 HD
ENDROOT
BRANCH   1   9
HETATM    9  C   UNL     1      27.370  41.202  51.229  1.00  0.00     0.027 C 
HETATM   10  C   UNL     1      28.470  40.792  50.238  1.00  0.00     0.035 C 
HETATM   11  C   UNL     1      28.111  40.842  48.758  1.00  0.00     0.235 C 
HETATM   12  N   UNL     1      26.755  40.250  48.458  1.00  0.00    -0.067 N 
HETATM   13  H   UNL     1      26.879  39.231  48.454  1.00  0.00     0.280 HD
HETATM   14  C   UNL     1      25.649  40.574  49.427  1.00  0.00     0.235 C 
HETATM   15  C   UNL     1      26.097  40.412  50.867  1.00  0.00     0.035 C 
BRANCH  12  16
HETATM   16  C   UNL     1      26.290  40.618  47.051  1.00  0.00     0.277 C 
BRANCH  16  17
HETATM   17  C   UNL     1      27.226  40.236  45.969  1.00  0.00     0.011 A 
HETATM   18  C   UNL     1      27.700  38.926  45.667  1.00  0.00     0.060 A 
HETATM   19  C   UNL     1      27.396  37.643  46.356  1.00  0.00     0.073 C 
HETATM   20  N   UNL     1      28.507  38.932  44.606  1.00  0.00    -0.178 NA
HETATM   21  N   UNL     1      28.623  40.225  44.272  1.00  0.00    -0.284 N 
HETATM   22  C   UNL     1      29.496  40.612  43.188  1.00  0.00     0.179 C 
HETATM   23  C   UNL     1      27.847  41.048  45.039  1.00  0.00     0.122 A 
ENDBRANCH  16  17
ENDBRANCH  12  16
ENDBRANCH   1   9
BRANCH   1  24
HETATM   24  C   UNL     1      28.457  43.561  51.786  1.00  0.00     0.082 C 
BRANCH  24  25
HETATM   25  C   UNL     1      29.013  43.691  53.195  1.00  0.00    -0.034 A 
HETATM   26  C   UNL     1      28.658  44.684  54.124  1.00  0.00     0.040 A 
HETATM   27 CL   UNL     1      27.472  45.892  53.805  1.00  0.00    -0.084 Cl
HETATM   28  C   UNL     1      29.297  44.765  55.369  1.00  0.00     0.024 A 
HETATM   29  C   UNL     1      30.319  43.880  55.701  1.00  0.00     0.002 A 
HETATM   30  C   UNL     1      30.706  42.908  54.791  1.00  0.00     0.001 A 
HETATM   31  C   UNL     1      30.062  42.816  53.554  1.00  0.00     0.009 A 
ENDBRANCH  24  25
ENDBRANCH   1  24
BRANCH   5  32
HETATM   32  C   UNL     1      24.620  45.192  50.147  1.00  0.00     0.141 C 
BRANCH  32  33
HETATM   33  C   UNL     1      25.455  46.379  49.773  1.00  0.00     0.004 A 
HETATM   34  C   UNL     1      24.890  47.778  49.796  1.00  0.00     0.007 A 
HETATM   35  C   UNL     1      25.895  47.360  50.831  1.00  0.00     0.007 A 
ENDBRANCH  32  33
ENDBRANCH   5  32
TORSDOF 7
ENDMDL
MODEL 5
REMARK VINA RESULT:      -8.3     10.616     13.358
REMARK  7 active torsions:
REMARK  status: ('A' for Active; 'I' for Inactive)
REMARK    1  A    between atoms: C_7  and  C_8 
REMARK    2  A    between atoms: C_8  and  N_9 
REMARK    3  A    between atoms: C_13  and  C_14 
REMARK    4  A    between atoms: C_14  and  C_15 
REMARK    5  A    between atoms: C_15  and  C_16 
REMARK    6  A    between atoms: N_26  and  C_27 
REMARK    7  A    between atoms: C_27  and  C_28 
ROOT
HETATM    1  C   UNL     1      27.198  50.091  39.467  1.00  0.00     0.123 C 
HETATM    2  N   UNL     1      26.874  51.116  40.446  1.00  0.00    -0.324 N 
HETATM    3  C   UNL     1      27.896  52.016  40.651  1.00  0.00     0.326 C 
HETATM    4  O   UNL     1      27.905  52.845  41.542  1.00  0.00    -0.247 OA
HETATM    5  N   UNL     1      28.826  51.820  39.685  1.00  0.00    -0.268 N 
HETATM    6  C   UNL     1      28.451  50.790  38.881  1.00  0.00     0.257 C 
HETATM    7  O   UNL     1      29.024  50.446  37.855  1.00  0.00    -0.270 OA
HETATM    8  H   UNL     1      26.188  51.002  41.188  1.00  0.00     0.165 HD
ENDROOT
BRANCH   1   9
HETATM    9  C   UNL     1      26.016  49.889  38.463  1.00  0.00     0.027 C 
HETATM   10  C   UNL     1      24.645  49.515  39.049  1.00  0.00     0.035 C 
HETATM   11  C   UNL     1      24.419  48.045  39.375  1.00  0.00     0.235 C 
HETATM   12  N   UNL     1      24.903  47.117  38.287  1.00  0.00    -0.067 N 
HETATM   13  H   UNL     1      24.180  47.126  37.558  1.00  0.00     0.280 HD
HETATM   14  C   UNL     1      26.215  47.464  37.638  1.00  0.00     0.235 C 
HETATM   15  C   UNL     1      26.296  48.937  37.285  1.00  0.00     0.035 C 
BRANCH  12  16
HETATM   16  C   UNL     1      24.974  45.673  38.782  1.00  0.00     0.277 C 
BRANCH  16  17
HETATM   17  C   UNL     1      26.345  45.157  38.991  1.00  0.00     0.011 A 
HETATM   18  C   UNL     1      27.093  45.176  40.205  1.00  0.00     0.060 A 
HETATM   19  C   UNL     1      26.704  45.724  41.531  1.00  0.00     0.073 C 
HETATM   20  N   UNL     1      28.285  44.597  40.051  1.00  0.00    -0.178 NA
HETATM   21  N   UNL     1      28.346  44.279  38.751  1.00  0.00    -0.284 N 
HETATM   22  C   UNL     1      29.548  43.688  38.211  1.00  0.00     0.179 C 
HETATM   23  C   UNL     1      27.193  44.563  38.075  1.00  0.00     0.122 A 
ENDBRANCH  16  17
ENDBRANCH  12  16
ENDBRANCH   1   9
BRANCH   1  24
HETATM   24  C   UNL     1      27.742  48.805  40.168  1.00  0.00     0.082 C 
BRANCH  24  25
HETATM   25  C   UNL     1      29.184  48.703  40.634  1.00  0.00    -0.034 A 
HETATM   26  C   UNL     1      30.223  48.057  39.940  1.00  0.00     0.040 A 
HETATM   27 CL   UNL     1      30.008  47.320  38.398  1.00  0.00    -0.084 Cl
HETATM   28  C   UNL     1      31.502  47.945  40.502  1.00  0.00     0.024 A 
HETATM   29  C   UNL     1      31.765  48.446  41.774  1.00  0.00     0.002 A 
HETATM   30  C   UNL     1      30.751  49.064  42.490  1.00  0.00     0.001 A 
HETATM   31  C   UNL     1      29.477  49.189  41.928  1.00  0.00     0.009 A 
ENDBRANCH  24  25
ENDBRANCH   1  24
BRANCH   5  32
HETATM   32  C   UNL     1      30.036  52.600  39.531  1.00  0.00     0.141 C 
BRANCH  32  33
HETATM   33  C   UNL     1      31.216  51.821  40.028  1.00  0.00     0.004 A 
HETATM   34  C   UNL     1      32.269  51.298  39.081  1.00  0.00     0.007 A 
HETATM   35  C   UNL     1      32.593  52.435  40.009  1.00  0.00     0.007 A 
ENDBRANCH  32  33
ENDBRANCH   5  32
TORSDOF 7
ENDMDL
MODEL 6
REMARK VINA RESULT:      -8.1      2.576      6.768
REMARK  7 active torsions:
REMARK  status: ('A' for Active; 'I' for Inactive)
REMARK    1  A    between atoms: C_7  and  C_8 
REMARK    2  A    between atoms: C_8  and  N_9 
REMARK    3  A    between atoms: C_13  and  C_14 
REMARK    4  A    between atoms: C_14  and  C_15 
REMARK    5  A    between atoms: C_15  and  C_16 
REMARK    6  A    between atoms: N_26  and  C_27 
REMARK    7  A    between atoms: C_27  and  C_28 
ROOT
HETATM    1  C   UNL     1      24.803  45.439  50.512  1.00  0.00     0.123 C 
HETATM    2  N   UNL     1      25.973  45.031  49.752  1.00  0.00    -0.324 N 
HETATM    3  C   UNL     1      26.937  44.419  50.522  1.00  0.00     0.326 C 
HETATM    4  O   UNL     1      28.057  44.155  50.129  1.00  0.00    -0.247 OA
HETATM    5  N   UNL     1      26.396  44.156  51.737  1.00  0.00    -0.268 N 
HETATM    6  C   UNL     1      25.118  44.615  51.786  1.00  0.00     0.257 C 
HETATM    7  O   UNL     1      24.331  44.428  52.705  1.00  0.00    -0.270 OA
HETATM    8  H   UNL     1      26.269  45.463  48.879  1.00  0.00     0.165 HD
ENDROOT
BRANCH   1   9
HETATM    9  C   UNL     1      23.488  45.037  49.765  1.00  0.00     0.027 C 
HETATM   10  C   UNL     1      22.674  43.869  50.342  1.00  0.00     0.035 C 
HETATM   11  C   UNL     1      23.134  42.465  49.971  1.00  0.00     0.235 C 
HETATM   12  N   UNL     1      23.472  42.321  48.506  1.00  0.00    -0.067 N 
HETATM   13  H   UNL     1      22.577  42.222  48.012  1.00  0.00     0.280 HD
HETATM   14  C   UNL     1      24.222  43.461  47.873  1.00  0.00     0.235 C 
HETATM   15  C   UNL     1      23.627  44.805  48.248  1.00  0.00     0.035 C 
BRANCH  12  16
HETATM   16  C   UNL     1      24.239  41.028  48.240  1.00  0.00     0.277 C 
BRANCH  16  17
HETATM   17  C   UNL     1      25.598  40.981  48.824  1.00  0.00     0.011 A 
HETATM   18  C   UNL     1      26.836  40.980  48.117  1.00  0.00     0.060 A 
HETATM   19  C   UNL     1      27.071  41.004  46.649  1.00  0.00     0.073 C 
HETATM   20  N   UNL     1      27.874  40.966  48.954  1.00  0.00    -0.178 NA
HETATM   21  N   UNL     1      27.329  40.879  50.175  1.00  0.00    -0.284 N 
HETATM   22  C   UNL     1      28.180  40.770  51.337  1.00  0.00     0.179 C 
HETATM   23  C   UNL     1      25.963  40.919  50.155  1.00  0.00     0.122 A 
ENDBRANCH  16  17
ENDBRANCH  12  16
ENDBRANCH   1   9
BRANCH   1  24
HETATM   24  C   UNL     1      24.921  46.933  50.954  1.00  0.00     0.082 C 
BRANCH  24  25
HETATM   25  C   UNL     1      25.323  48.023  49.975  1.00  0.00    -0.034 A 
HETATM   26  C   UNL     1      24.445  48.732  49.138  1.00  0.00     0.040 A 
HETATM   27 CL   UNL     1      22.739  48.495  49.145  1.00  0.00    -0.084 Cl
HETATM   28  C   UNL     1      24.932  49.660  48.206  1.00  0.00     0.024 A 
HETATM   29  C   UNL     1      26.300  49.878  48.070  1.00  0.00     0.002 A 
HETATM   30  C   UNL     1      27.188  49.171  48.866  1.00  0.00     0.001 A 
HETATM   31  C   UNL     1      26.706  48.255  49.805  1.00  0.00     0.009 A 
ENDBRANCH  24  25
ENDBRANCH   1  24
BRANCH   5  32
HETATM   32  C   UNL     1      27.080  43.477  52.817  1.00  0.00     0.141 C 
BRANCH  32  33
HETATM   33  C   UNL     1      28.117  44.381  53.415  1.00  0.00     0.004 A 
HETATM   34  C   UNL     1      28.072  44.775  54.872  1.00  0.00     0.007 A 
HETATM   35  C   UNL     1      29.135  43.831  54.384  1.00  0.00     0.007 A 
ENDBRANCH  32  33
ENDBRANCH   5  32
TORSDOF 7
ENDMDL
MODEL 7
REMARK VINA RESULT:      -8.0      5.915     12.361
REMARK  7 active torsions:
REMARK  status: ('A' for Active; 'I' for Inactive)
REMARK    1  A    between atoms: C_7  and  C_8 
REMARK    2  A    between atoms: C_8  and  N_9 
REMARK    3  A    between atoms: C_13  and  C_14 
REMARK    4  A    between atoms: C_14  and  C_15 
REMARK    5  A    between atoms: C_15  and  C_16 
REMARK    6  A    between atoms: N_26  and  C_27 
REMARK    7  A    between atoms: C_27  and  C_28 
ROOT
HETATM    1  C   UNL     1      17.479  50.478  48.678  1.00  0.00     0.123 C 
HETATM    2  N   UNL     1      16.186  49.841  48.492  1.00  0.00    -0.324 N 
HETATM    3  C   UNL     1      15.958  49.438  47.195  1.00  0.00     0.326 C 
HETATM    4  O   UNL     1      14.884  49.043  46.783  1.00  0.00    -0.247 OA
HETATM    5  N   UNL     1      17.127  49.537  46.515  1.00  0.00    -0.268 N 
HETATM    6  C   UNL     1      18.097  50.030  47.330  1.00  0.00     0.257 C 
HETATM    7  O   UNL     1      19.283  50.128  47.042  1.00  0.00    -0.270 OA
HETATM    8  H   UNL     1      15.375  50.006  49.085  1.00  0.00     0.165 HD
ENDROOT
BRANCH   1   9
HETATM    9  C   UNL     1      18.191  49.923  49.956  1.00  0.00     0.027 C 
HETATM   10  C   UNL     1      19.540  50.550  50.343  1.00  0.00     0.035 C 
HETATM   11  C   UNL     1      20.771  50.025  49.616  1.00  0.00     0.235 C 
HETATM   12  N   UNL     1      20.796  48.520  49.503  1.00  0.00    -0.067 N 
HETATM   13  H   UNL     1      21.112  48.168  50.415  1.00  0.00     0.280 HD
HETATM   14  C   UNL     1      19.489  47.847  49.179  1.00  0.00     0.235 C 
HETATM   15  C   UNL     1      18.351  48.392  50.021  1.00  0.00     0.035 C 
BRANCH  12  16
HETATM   16  C   UNL     1      21.843  48.057  48.493  1.00  0.00     0.277 C 
BRANCH  16  17
HETATM   17  C   UNL     1      23.245  48.175  48.956  1.00  0.00     0.011 A 
HETATM   18  C   UNL     1      24.160  49.227  48.661  1.00  0.00     0.060 A 
HETATM   19  C   UNL     1      23.953  50.434  47.818  1.00  0.00     0.073 C 
HETATM   20  N   UNL     1      25.333  49.036  49.267  1.00  0.00    -0.178 NA
HETATM   21  N   UNL     1      25.214  47.849  49.878  1.00  0.00    -0.284 N 
HETATM   22  C   UNL     1      26.341  47.288  50.585  1.00  0.00     0.179 C 
HETATM   23  C   UNL     1      23.967  47.304  49.750  1.00  0.00     0.122 A 
ENDBRANCH  16  17
ENDBRANCH  12  16
ENDBRANCH   1   9
BRANCH   1  24
HETATM   24  C   UNL     1      17.354  52.031  48.572  1.00  0.00     0.082 C 
BRANCH  24  25
HETATM   25  C   UNL     1      16.077  52.755  48.966  1.00  0.00    -0.034 A 
HETATM   26  C   UNL     1      15.084  53.201  48.076  1.00  0.00     0.040 A 
HETATM   27 CL   UNL     1      15.153  52.933  46.377  1.00  0.00    -0.084 Cl
HETATM   28  C   UNL     1      13.984  53.938  48.538  1.00  0.00     0.024 A 
HETATM   29  C   UNL     1      13.866  54.269  49.885  1.00  0.00     0.002 A 
HETATM   30  C   UNL     1      14.847  53.863  50.778  1.00  0.00     0.001 A 
HETATM   31  C   UNL     1      15.938  53.118  50.324  1.00  0.00     0.009 A 
ENDBRANCH  24  25
ENDBRANCH   1  24
BRANCH   5  32
HETATM   32  C   UNL     1      17.311  49.165  45.129  1.00  0.00     0.141 C 
BRANCH  32  33
HETATM   33  C   UNL     1      17.193  50.375  44.253  1.00  0.00     0.004 A 
HETATM   34  C   UNL     1      18.370  50.892  43.461  1.00  0.00     0.007 A 
HETATM   35  C   UNL     1      17.222  50.230  42.751  1.00  0.00     0.007 A 
ENDBRANCH  32  33
ENDBRANCH   5  32
TORSDOF 7
ENDMDL
MODEL 8
REMARK VINA RESULT:      -7.9      3.488      6.100
REMARK  7 active torsions:
REMARK  status: ('A' for Active; 'I' for Inactive)
REMARK    1  A    between atoms: C_7  and  C_8 
REMARK    2  A    between atoms: C_8  and  N_9 
REMARK    3  A    between atoms: C_13  and  C_14 
REMARK    4  A    between atoms: C_14  and  C_15 
REMARK    5  A    between atoms: C_15  and  C_16 
REMARK    6  A    between atoms: N_26  and  C_27 
REMARK    7  A    between atoms: C_27  and  C_28 
ROOT
HETATM    1  C   UNL     1      26.589  43.095  50.681  1.00  0.00     0.123 C 
HETATM    2  N   UNL     1      26.585  42.945  49.235  1.00  0.00    -0.324 N 
HETATM    3  C   UNL     1      27.241  41.814  48.803  1.00  0.00     0.326 C 
HETATM    4  O   UNL     1      27.505  41.583  47.638  1.00  0.00    -0.247 OA
HETATM    5  N   UNL     1      27.491  41.036  49.885  1.00  0.00    -0.268 N 
HETATM    6  C   UNL     1      27.046  41.652  51.012  1.00  0.00     0.257 C 
HETATM    7  O   UNL     1      27.024  41.155  52.131  1.00  0.00    -0.270 OA
HETATM    8  H   UNL     1      26.492  43.717  48.579  1.00  0.00     0.165 HD
ENDROOT
BRANCH   1   9
HETATM    9  C   UNL     1      25.166  43.481  51.203  1.00  0.00     0.027 C 
HETATM   10  C   UNL     1      23.978  42.643  50.706  1.00  0.00     0.035 C 
HETATM   11  C   UNL     1      23.409  43.005  49.341  1.00  0.00     0.235 C 
HETATM   12  N   UNL     1      23.243  44.492  49.144  1.00  0.00    -0.067 N 
HETATM   13  H   UNL     1      22.382  44.755  49.637  1.00  0.00     0.280 HD
HETATM   14  C   UNL     1      24.353  45.368  49.660  1.00  0.00     0.235 C 
HETATM   15  C   UNL     1      24.783  44.967  51.058  1.00  0.00     0.035 C 
BRANCH  12  16
HETATM   16  C   UNL     1      23.000  44.833  47.675  1.00  0.00     0.277 C 
BRANCH  16  17
HETATM   17  C   UNL     1      21.794  44.209  47.086  1.00  0.00     0.011 A 
HETATM   18  C   UNL     1      20.436  44.476  47.428  1.00  0.00     0.060 A 
HETATM   19  C   UNL     1      19.900  45.410  48.452  1.00  0.00     0.073 C 
HETATM   20  N   UNL     1      19.596  43.761  46.677  1.00  0.00    -0.178 NA
HETATM   21  N   UNL     1      20.386  42.988  45.920  1.00  0.00    -0.284 N 
HETATM   22  C   UNL     1      19.798  42.022  45.022  1.00  0.00     0.179 C 
HETATM   23  C   UNL     1      21.716  43.242  46.101  1.00  0.00     0.122 A 
ENDBRANCH  16  17
ENDBRANCH  12  16
ENDBRANCH   1   9
BRANCH   1  24
HETATM   24  C   UNL     1      27.770  44.010  51.141  1.00  0.00     0.082 C 
BRANCH  24  25
HETATM   25  C   UNL     1      28.453  43.811  52.484  1.00  0.00    -0.034 A 
HETATM   26  C   UNL     1      28.068  44.416  53.693  1.00  0.00     0.040 A 
HETATM   27 CL   UNL     1      26.699  45.451  53.834  1.00  0.00    -0.084 Cl
HETATM   28  C   UNL     1      28.823  44.233  54.861  1.00  0.00     0.024 A 
HETATM   29  C   UNL     1      29.987  43.470  54.841  1.00  0.00     0.002 A 
HETATM   30  C   UNL     1      30.402  42.885  53.654  1.00  0.00     0.001 A 
HETATM   31  C   UNL     1      29.646  43.054  52.491  1.00  0.00     0.009 A 
ENDBRANCH  24  25
ENDBRANCH   1  24
BRANCH   5  32
HETATM   32  C   UNL     1      28.129  39.738  49.840  1.00  0.00     0.141 C 
BRANCH  32  33
HETATM   33  C   UNL     1      27.115  38.677  49.534  1.00  0.00     0.004 A 
HETATM   34  C   UNL     1      27.181  37.868  48.262  1.00  0.00     0.007 A 
HETATM   35  C   UNL     1      27.504  37.220  49.579  1.00  0.00     0.007 A 
ENDBRANCH  32  33
ENDBRANCH   5  32
TORSDOF 7
ENDMDL
MODEL 9
REMARK VINA RESULT:      -7.9     11.047     12.964
REMARK  7 active torsions:
REMARK  status: ('A' for Active; 'I' for Inactive)
REMARK    1  A    between atoms: C_7  and  C_8 
REMARK    2  A    between atoms: C_8  and  N_9 
REMARK    3  A    between atoms: C_13  and  C_14 
REMARK    4  A    between atoms: C_14  and  C_15 
REMARK    5  A    between atoms: C_15  and  C_16 
REMARK    6  A    between atoms: N_26  and  C_27 
REMARK    7  A    between atoms: C_27  and  C_28 
ROOT
HETATM    1  C   UNL     1      29.573  48.392  40.076  1.00  0.00     0.123 C 
HETATM    2  N   UNL     1      30.867  47.751  39.914  1.00  0.00    -0.324 N 
HETATM    3  C   UNL     1      31.768  48.087  40.899  1.00  0.00     0.326 C 
HETATM    4  O   UNL     1      32.951  47.803  40.866  1.00  0.00    -0.247 OA
HETATM    5  N   UNL     1      31.094  48.736  41.880  1.00  0.00    -0.268 N 
HETATM    6  C   UNL     1      29.785  48.862  41.537  1.00  0.00     0.257 C 
HETATM    7  O   UNL     1      28.900  49.301  42.261  1.00  0.00    -0.270 OA
HETATM    8  H   UNL     1      31.238  47.427  39.024  1.00  0.00     0.165 HD
ENDROOT
BRANCH   1   9
HETATM    9  C   UNL     1      28.413  47.363  39.867  1.00  0.00     0.027 C 
HETATM   10  C   UNL     1      27.912  47.142  38.431  1.00  0.00     0.035 C 
HETATM   11  C   UNL     1      26.907  48.153  37.895  1.00  0.00     0.235 C 
HETATM   12  N   UNL     1      25.819  48.488  38.887  1.00  0.00    -0.067 N 
HETATM   13  H   UNL     1      25.147  47.713  38.852  1.00  0.00     0.280 HD
HETATM   14  C   UNL     1      26.244  48.662  40.321  1.00  0.00     0.235 C 
HETATM   15  C   UNL     1      27.179  47.555  40.769  1.00  0.00     0.035 C 
BRANCH  12  16
HETATM   16  C   UNL     1      25.042  49.731  38.458  1.00  0.00     0.277 C 
BRANCH  16  17
HETATM   17  C   UNL     1      23.693  49.460  37.912  1.00  0.00     0.011 A 
HETATM   18  C   UNL     1      22.451  49.958  38.406  1.00  0.00     0.060 A 
HETATM   19  C   UNL     1      22.200  50.838  39.577  1.00  0.00     0.073 C 
HETATM   20  N   UNL     1      21.428  49.544  37.656  1.00  0.00    -0.178 NA
HETATM   21  N   UNL     1      21.978  48.731  36.744  1.00  0.00    -0.284 N 
HETATM   22  C   UNL     1      21.136  48.040  35.796  1.00  0.00     0.179 C 
HETATM   23  C   UNL     1      23.341  48.672  36.832  1.00  0.00     0.122 A 
ENDBRANCH  16  17
ENDBRANCH  12  16
ENDBRANCH   1   9
BRANCH   1  24
HETATM   24  C   UNL     1      29.495  49.706  39.234  1.00  0.00     0.082 C 
BRANCH  24  25
HETATM   25  C   UNL     1      30.112  51.004  39.726  1.00  0.00    -0.034 A 
HETATM   26  C   UNL     1      29.419  52.048  40.364  1.00  0.00     0.040 A 
HETATM   27 CL   UNL     1      27.739  51.975  40.733  1.00  0.00    -0.084 Cl
HETATM   28  C   UNL     1      30.070  53.243  40.701  1.00  0.00     0.024 A 
HETATM   29  C   UNL     1      31.413  53.434  40.385  1.00  0.00     0.002 A 
HETATM   30  C   UNL     1      32.112  52.429  39.732  1.00  0.00     0.001 A 
HETATM   31  C   UNL     1      31.470  51.231  39.406  1.00  0.00     0.009 A 
ENDBRANCH  24  25
ENDBRANCH   1  24
BRANCH   5  32
HETATM   32  C   UNL     1      31.684  49.215  43.112  1.00  0.00     0.141 C 
BRANCH  32  33
HETATM   33  C   UNL     1      31.936  50.690  43.020  1.00  0.00     0.004 A 
HETATM   34  C   UNL     1      32.445  51.476  44.204  1.00  0.00     0.007 A 
HETATM   35  C   UNL     1      33.348  51.220  43.030  1.00  0.00     0.007 A 
ENDBRANCH  32  33
ENDBRANCH   5  32
TORSDOF 7
ENDMDL
MODEL 10
REMARK VINA RESULT:      -7.7     18.100     21.148
REMARK  7 active torsions:
REMARK  status: ('A' for Active; 'I' for Inactive)
REMARK    1  A    between atoms: C_7  and  C_8 
REMARK    2  A    between atoms: C_8  and  N_9 
REMARK    3  A    between atoms: C_13  and  C_14 
REMARK    4  A    between atoms: C_14  and  C_15 
REMARK    5  A    between atoms: C_15  and  C_16 
REMARK    6  A    between atoms: N_26  and  C_27 
REMARK    7  A    between atoms: C_27  and  C_28 
ROOT
HETATM    1  C   UNL     1      38.741  44.423  64.853  1.00  0.00     0.123 C 
HETATM    2  N   UNL     1      37.731  44.940  63.944  1.00  0.00    -0.324 N 
HETATM    3  C   UNL     1      37.249  46.177  64.311  1.00  0.00     0.326 C 
HETATM    4  O   UNL     1      36.288  46.714  63.795  1.00  0.00    -0.247 OA
HETATM    5  N   UNL     1      38.047  46.662  65.294  1.00  0.00    -0.268 N 
HETATM    6  C   UNL     1      39.012  45.754  65.598  1.00  0.00     0.257 C 
HETATM    7  O   UNL     1      39.950  45.944  66.363  1.00  0.00    -0.270 OA
HETATM    8  H   UNL     1      37.141  44.359  63.352  1.00  0.00     0.165 HD
ENDROOT
BRANCH   1   9
HETATM    9  C   UNL     1      39.957  43.842  64.059  1.00  0.00     0.027 C 
HETATM   10  C   UNL     1      39.655  42.834  62.939  1.00  0.00     0.035 C 
HETATM   11  C   UNL     1      39.436  41.388  63.363  1.00  0.00     0.235 C 
HETATM   12  N   UNL     1      40.448  40.907  64.374  1.00  0.00    -0.067 N 
HETATM   13  H   UNL     1      41.300  40.684  63.846  1.00  0.00     0.280 HD
HETATM   14  C   UNL     1      40.824  41.874  65.464  1.00  0.00     0.235 C 
HETATM   15  C   UNL     1      41.098  43.261  64.916  1.00  0.00     0.035 C 
BRANCH  12  16
HETATM   16  C   UNL     1      40.006  39.595  65.020  1.00  0.00     0.277 C 
BRANCH  16  17
HETATM   17  C   UNL     1      41.045  38.542  65.057  1.00  0.00     0.011 A 
HETATM   18  C   UNL     1      40.941  37.256  65.663  1.00  0.00     0.060 A 
HETATM   19  C   UNL     1      39.798  36.667  66.410  1.00  0.00     0.073 C 
HETATM   20  N   UNL     1      42.053  36.541  65.483  1.00  0.00    -0.178 NA
HETATM   21  N   UNL     1      42.893  37.369  64.845  1.00  0.00    -0.284 N 
HETATM   22  C   UNL     1      44.238  36.938  64.547  1.00  0.00     0.179 C 
HETATM   23  C   UNL     1      42.325  38.573  64.535  1.00  0.00     0.122 A 
ENDBRANCH  16  17
ENDBRANCH  12  16
ENDBRANCH   1   9
BRANCH   1  24
HETATM   24  C   UNL     1      38.096  43.483  65.922  1.00  0.00     0.082 C 
BRANCH  24  25
HETATM   25  C   UNL     1      36.614  43.150  65.897  1.00  0.00    -0.034 A 
HETATM   26  C   UNL     1      35.611  43.835  66.604  1.00  0.00     0.040 A 
HETATM   27 CL   UNL     1      35.924  45.219  67.580  1.00  0.00    -0.084 Cl
HETATM   28  C   UNL     1      34.281  43.389  66.579  1.00  0.00     0.024 A 
HETATM   29  C   UNL     1      33.931  42.240  65.877  1.00  0.00     0.002 A 
HETATM   30  C   UNL     1      34.908  41.531  65.193  1.00  0.00     0.001 A 
HETATM   31  C   UNL     1      36.231  41.979  65.204  1.00  0.00     0.009 A 
ENDBRANCH  24  25
ENDBRANCH   1  24
BRANCH   5  32
HETATM   32  C   UNL     1      37.896  47.959  65.918  1.00  0.00     0.141 C 
BRANCH  32  33
HETATM   33  C   UNL     1      38.369  49.034  64.987  1.00  0.00     0.004 A 
HETATM   34  C   UNL     1      39.283  50.139  65.459  1.00  0.00     0.007 A 
HETATM   35  C   UNL     1      39.809  49.072  64.540  1.00  0.00     0.007 A 
ENDBRANCH  32  33
ENDBRANCH   5  32
TORSDOF 7
ENDMDL
