MODEL 1
REMARK VINA RESULT:      -9.0      0.000      0.000
REMARK  8 active torsions:
REMARK  status: ('A' for Active; 'I' for Inactive)
REMARK    1  A    between atoms: C_2  and  C_3 
REMARK    2  A    between atoms: C_3  and  O_4 
REMARK    3  A    between atoms: O_4  and  C_5 
REMARK    4  A    between atoms: C_8  and  C_9 
REMARK    5  A    between atoms: C_13  and  C_14 
REMARK       I    between atoms: C_14  and  N_15 
REMARK    6  A    between atoms: N_15  and  N_16 
REMARK    7  A    between atoms: C_17  and  C_18 
REMARK    8  A    between atoms: C_19  and  O_20 
ROOT
HETATM    1  C   UNL     1      25.862  45.818  52.031  1.00  0.00     0.089 A 
HETATM    2  N   UNL     1      24.925  45.004  51.523  1.00  0.00    -0.174 NA
HETATM    3  N   UNL     1      24.196  45.789  50.715  1.00  0.00    -0.272 N 
HETATM    4  H   UNL     1      23.409  45.386  50.215  1.00  0.00     0.189 HD
HETATM    5  C   UNL     1      24.641  47.079  50.636  1.00  0.00     0.121 A 
HETATM    6  C   UNL     1      25.711  47.132  51.506  1.00  0.00     0.071 A 
ENDROOT
BRANCH   5   7
HETATM    7  C   UNL     1      24.015  48.039  49.761  1.00  0.00     0.289 C 
HETATM    8  N   UNL     1      22.683  47.775  49.474  1.00  0.00    -0.242 N 
HETATM    9  H   UNL     1      22.224  46.971  49.878  1.00  0.00     0.192 HD
HETATM   10  O   UNL     1      24.628  49.016  49.337  1.00  0.00    -0.264 OA
BRANCH   8  11
HETATM   11  N   UNL     1      21.957  48.653  48.725  1.00  0.00    -0.183 NA
HETATM   12  C   UNL     1      20.922  49.166  49.311  1.00  0.00     0.153 C 
BRANCH  12  13
HETATM   13  C   UNL     1      20.063  50.148  48.623  1.00  0.00     0.016 A 
HETATM   14  C   UNL     1      19.382  49.845  47.439  1.00  0.00     0.077 A 
HETATM   15  C   UNL     1      18.591  50.809  46.820  1.00  0.00     0.037 A 
HETATM   16  C   UNL     1      18.478  52.082  47.380  1.00  0.00     0.003 A 
HETATM   17  C   UNL     1      19.155  52.391  48.560  1.00  0.00     0.001 A 
HETATM   18  C   UNL     1      19.948  51.426  49.185  1.00  0.00     0.016 A 
BRANCH  14  19
HETATM   19  O   UNL     1      19.444  48.623  46.825  1.00  0.00    -0.360 OA
HETATM   20  H   UNL     1      19.466  48.765  45.852  1.00  0.00     0.217 HD
ENDBRANCH  14  19
ENDBRANCH  12  13
ENDBRANCH   8  11
ENDBRANCH   5   7
BRANCH   1  21
HETATM   21  C   UNL     1      26.893  45.339  52.953  1.00  0.00    -0.005 A 
HETATM   22  C   UNL     1      27.603  44.163  52.674  1.00  0.00     0.016 A 
HETATM   23  C   UNL     1      28.638  43.733  53.513  1.00  0.00     0.037 A 
HETATM   24  C   UNL     1      28.974  44.476  54.644  1.00  0.00     0.068 A 
HETATM   25  C   UNL     1      28.240  45.620  54.954  1.00  0.00     0.037 A 
HETATM   26  C   UNL     1      27.212  46.057  54.113  1.00  0.00     0.016 A 
BRANCH  24  27
HETATM   27  O   UNL     1      29.974  44.169  55.523  1.00  0.00    -0.351 OA
BRANCH  27  28
HETATM   28  C   UNL     1      30.265  45.167  56.504  1.00  0.00     0.175 C 
BRANCH  28  29
HETATM   29  C   UNL     1      31.029  44.494  57.640  1.00  0.00     0.022 C 
HETATM   30  C   UNL     1      31.796  43.273  57.162  1.00  0.00     0.007 C 
ENDBRANCH  28  29
ENDBRANCH  27  28
ENDBRANCH  24  27
ENDBRANCH   1  21
TORSDOF 8
ENDMDL
MODEL 2
REMARK VINA RESULT:      -8.6      1.870      2.374
REMARK  8 active torsions:
REMARK  status: ('A' for Active; 'I' for Inactive)
REMARK    1  A    between atoms: C_2  and  C_3 
REMARK    2  A    between atoms: C_3  and  O_4 
REMARK    3  A    between atoms: O_4  and  C_5 
REMARK    4  A    between atoms: C_8  and  C_9 
REMARK    5  A    between atoms: C_13  and  C_14 
REMARK       I    between atoms: C_14  and  N_15 
REMARK    6  A    between atoms: N_15  and  N_16 
REMARK    7  A    between atoms: C_17  and  C_18 
REMARK    8  A    between atoms: C_19  and  O_20 
ROOT
HETATM    1  C   UNL     1      26.965  44.312  51.221  1.00  0.00     0.089 A 
HETATM    2  N   UNL     1      27.290  44.223  49.923  1.00  0.00    -0.174 NA
HETATM    3  N   UNL     1      26.212  44.686  49.271  1.00  0.00    -0.272 N 
HETATM    4  H   UNL     1      26.222  44.710  48.256  1.00  0.00     0.189 HD
HETATM    5  C   UNL     1      25.205  45.118  50.090  1.00  0.00     0.121 A 
HETATM    6  C   UNL     1      25.660  44.859  51.367  1.00  0.00     0.071 A 
ENDROOT
BRANCH   5   7
HETATM    7  C   UNL     1      24.003  45.708  49.556  1.00  0.00     0.289 C 
HETATM    8  N   UNL     1      23.976  47.094  49.590  1.00  0.00    -0.242 N 
HETATM    9  H   UNL     1      24.764  47.611  49.955  1.00  0.00     0.192 HD
HETATM   10  O   UNL     1      23.100  45.015  49.094  1.00  0.00    -0.264 OA
BRANCH   8  11
HETATM   11  N   UNL     1      22.929  47.773  49.040  1.00  0.00    -0.183 NA
HETATM   12  C   UNL     1      22.712  48.955  49.525  1.00  0.00     0.153 C 
BRANCH  12  13
HETATM   13  C   UNL     1      21.626  49.806  49.004  1.00  0.00     0.016 A 
HETATM   14  C   UNL     1      21.032  50.813  49.772  1.00  0.00     0.077 A 
HETATM   15  C   UNL     1      20.002  51.584  49.241  1.00  0.00     0.037 A 
HETATM   16  C   UNL     1      19.560  51.352  47.937  1.00  0.00     0.003 A 
HETATM   17  C   UNL     1      20.148  50.349  47.166  1.00  0.00     0.001 A 
HETATM   18  C   UNL     1      21.182  49.574  47.696  1.00  0.00     0.016 A 
BRANCH  14  19
HETATM   19  O   UNL     1      21.406  51.101  51.057  1.00  0.00    -0.360 OA
HETATM   20  H   UNL     1      21.978  50.370  51.386  1.00  0.00     0.217 HD
ENDBRANCH  14  19
ENDBRANCH  12  13
ENDBRANCH   8  11
ENDBRANCH   5   7
BRANCH   1  21
HETATM   21  C   UNL     1      27.895  43.926  52.284  1.00  0.00    -0.005 A 
HETATM   22  C   UNL     1      28.903  42.985  52.037  1.00  0.00     0.016 A 
HETATM   23  C   UNL     1      29.841  42.660  53.025  1.00  0.00     0.037 A 
HETATM   24  C   UNL     1      29.778  43.274  54.275  1.00  0.00     0.068 A 
HETATM   25  C   UNL     1      28.747  44.175  54.544  1.00  0.00     0.037 A 
HETATM   26  C   UNL     1      27.816  44.507  53.556  1.00  0.00     0.016 A 
BRANCH  24  27
HETATM   27  O   UNL     1      30.645  43.054  55.309  1.00  0.00    -0.351 OA
BRANCH  27  28
HETATM   28  C   UNL     1      31.117  44.224  55.980  1.00  0.00     0.175 C 
BRANCH  28  29
HETATM   29  C   UNL     1      31.454  43.832  57.416  1.00  0.00     0.022 C 
HETATM   30  C   UNL     1      31.052  44.909  58.407  1.00  0.00     0.007 C 
ENDBRANCH  28  29
ENDBRANCH  27  28
ENDBRANCH  24  27
ENDBRANCH   1  21
TORSDOF 8
ENDMDL
MODEL 3
REMARK VINA RESULT:      -8.4      2.248     11.401
REMARK  8 active torsions:
REMARK  status: ('A' for Active; 'I' for Inactive)
REMARK    1  A    between atoms: C_2  and  C_3 
REMARK    2  A    between atoms: C_3  and  O_4 
REMARK    3  A    between atoms: O_4  and  C_5 
REMARK    4  A    between atoms: C_8  and  C_9 
REMARK    5  A    between atoms: C_13  and  C_14 
REMARK       I    between atoms: C_14  and  N_15 
REMARK    6  A    between atoms: N_15  and  N_16 
REMARK    7  A    between atoms: C_17  and  C_18 
REMARK    8  A    between atoms: C_19  and  O_20 
ROOT
HETATM    1  C   UNL     1      22.087  50.121  48.148  1.00  0.00     0.089 A 
HETATM    2  N   UNL     1      23.117  50.348  47.319  1.00  0.00    -0.174 NA
HETATM    3  N   UNL     1      24.144  49.675  47.862  1.00  0.00    -0.272 N 
HETATM    4  H   UNL     1      25.050  49.703  47.404  1.00  0.00     0.189 HD
HETATM    5  C   UNL     1      23.821  48.978  48.993  1.00  0.00     0.121 A 
HETATM    6  C   UNL     1      22.492  49.274  49.218  1.00  0.00     0.071 A 
ENDROOT
BRANCH   5   7
HETATM    7  C   UNL     1      24.788  48.147  49.666  1.00  0.00     0.289 C 
HETATM    8  N   UNL     1      24.258  47.323  50.648  1.00  0.00    -0.242 N 
HETATM    9  H   UNL     1      23.264  47.326  50.835  1.00  0.00     0.192 HD
HETATM   10  O   UNL     1      25.977  48.170  49.359  1.00  0.00    -0.264 OA
BRANCH   8  11
HETATM   11  N   UNL     1      25.057  46.431  51.300  1.00  0.00    -0.183 NA
HETATM   12  C   UNL     1      25.332  46.721  52.532  1.00  0.00     0.153 C 
BRANCH  12  13
HETATM   13  C   UNL     1      26.166  45.830  53.359  1.00  0.00     0.016 A 
HETATM   14  C   UNL     1      25.899  44.462  53.486  1.00  0.00     0.077 A 
HETATM   15  C   UNL     1      26.709  43.663  54.289  1.00  0.00     0.037 A 
HETATM   16  C   UNL     1      27.790  44.226  54.969  1.00  0.00     0.003 A 
HETATM   17  C   UNL     1      28.060  45.589  54.846  1.00  0.00     0.001 A 
HETATM   18  C   UNL     1      27.251  46.394  54.042  1.00  0.00     0.016 A 
BRANCH  14  19
HETATM   19  O   UNL     1      24.859  43.835  52.856  1.00  0.00    -0.360 OA
HETATM   20  H   UNL     1      25.227  43.247  52.157  1.00  0.00     0.217 HD
ENDBRANCH  14  19
ENDBRANCH  12  13
ENDBRANCH   8  11
ENDBRANCH   5   7
BRANCH   1  21
HETATM   21  C   UNL     1      20.751  50.664  47.896  1.00  0.00    -0.005 A 
HETATM   22  C   UNL     1      20.276  51.752  48.640  1.00  0.00     0.016 A 
HETATM   23  C   UNL     1      19.028  52.323  48.361  1.00  0.00     0.037 A 
HETATM   24  C   UNL     1      18.241  51.809  47.332  1.00  0.00     0.068 A 
HETATM   25  C   UNL     1      18.686  50.696  46.619  1.00  0.00     0.037 A 
HETATM   26  C   UNL     1      19.935  50.129  46.891  1.00  0.00     0.016 A 
BRANCH  24  27
HETATM   27  O   UNL     1      17.020  52.292  46.953  1.00  0.00    -0.351 OA
BRANCH  27  28
HETATM   28  C   UNL     1      15.894  51.741  47.640  1.00  0.00     0.175 C 
BRANCH  28  29
HETATM   29  C   UNL     1      15.313  52.833  48.533  1.00  0.00     0.022 C 
HETATM   30  C   UNL     1      15.649  52.607  49.996  1.00  0.00     0.007 C 
ENDBRANCH  28  29
ENDBRANCH  27  28
ENDBRANCH  24  27
ENDBRANCH   1  21
TORSDOF 8
ENDMDL
MODEL 4
REMARK VINA RESULT:      -8.4      1.799     11.172
REMARK  8 active torsions:
REMARK  status: ('A' for Active; 'I' for Inactive)
REMARK    1  A    between atoms: C_2  and  C_3 
REMARK    2  A    between atoms: C_3  and  O_4 
REMARK    3  A    between atoms: O_4  and  C_5 
REMARK    4  A    between atoms: C_8  and  C_9 
REMARK    5  A    between atoms: C_13  and  C_14 
REMARK       I    between atoms: C_14  and  N_15 
REMARK    6  A    between atoms: N_15  and  N_16 
REMARK    7  A    between atoms: C_17  and  C_18 
REMARK    8  A    between atoms: C_19  and  O_20 
ROOT
HETATM    1  C   UNL     1      24.451  46.397  49.954  1.00  0.00     0.089 A 
HETATM    2  N   UNL     1      23.955  45.161  50.108  1.00  0.00    -0.174 NA
HETATM    3  N   UNL     1      24.897  44.501  50.799  1.00  0.00    -0.272 N 
HETATM    4  H   UNL     1      24.744  43.525  51.035  1.00  0.00     0.189 HD
HETATM    5  C   UNL     1      25.977  45.266  51.145  1.00  0.00     0.121 A 
HETATM    6  C   UNL     1      25.724  46.500  50.582  1.00  0.00     0.071 A 
ENDROOT
BRANCH   5   7
HETATM    7  C   UNL     1      27.050  44.733  51.947  1.00  0.00     0.289 C 
HETATM    8  N   UNL     1      27.004  45.092  53.286  1.00  0.00    -0.242 N 
HETATM    9  H   UNL     1      26.251  45.672  53.633  1.00  0.00     0.192 HD
HETATM   10  O   UNL     1      27.911  44.003  51.462  1.00  0.00    -0.264 OA
BRANCH   8  11
HETATM   11  N   UNL     1      27.916  44.586  54.164  1.00  0.00    -0.183 NA
HETATM   12  C   UNL     1      28.582  45.462  54.847  1.00  0.00     0.153 C 
BRANCH  12  13
HETATM   13  C   UNL     1      29.583  45.050  55.849  1.00  0.00     0.016 A 
HETATM   14  C   UNL     1      30.458  43.980  55.634  1.00  0.00     0.077 A 
HETATM   15  C   UNL     1      31.379  43.621  56.615  1.00  0.00     0.037 A 
HETATM   16  C   UNL     1      31.429  44.330  57.816  1.00  0.00     0.003 A 
HETATM   17  C   UNL     1      30.559  45.397  58.036  1.00  0.00     0.001 A 
HETATM   18  C   UNL     1      29.634  45.761  57.054  1.00  0.00     0.016 A 
BRANCH  14  19
HETATM   19  O   UNL     1      30.470  43.234  54.486  1.00  0.00    -0.360 OA
HETATM   20  H   UNL     1      29.721  43.525  53.918  1.00  0.00     0.217 HD
ENDBRANCH  14  19
ENDBRANCH  12  13
ENDBRANCH   8  11
ENDBRANCH   5   7
BRANCH   1  21
HETATM   21  C   UNL     1      23.708  47.454  49.266  1.00  0.00    -0.005 A 
HETATM   22  C   UNL     1      22.432  47.200  48.745  1.00  0.00     0.016 A 
HETATM   23  C   UNL     1      21.684  48.220  48.147  1.00  0.00     0.037 A 
HETATM   24  C   UNL     1      22.206  49.510  48.061  1.00  0.00     0.068 A 
HETATM   25  C   UNL     1      23.495  49.759  48.533  1.00  0.00     0.037 A 
HETATM   26  C   UNL     1      24.240  48.744  49.139  1.00  0.00     0.016 A 
BRANCH  24  27
HETATM   27  O   UNL     1      21.565  50.589  47.520  1.00  0.00    -0.351 OA
BRANCH  27  28
HETATM   28  C   UNL     1      20.154  50.647  47.740  1.00  0.00     0.175 C 
BRANCH  28  29
HETATM   29  C   UNL     1      19.844  51.975  48.424  1.00  0.00     0.022 C 
HETATM   30  C   UNL     1      19.058  51.782  49.709  1.00  0.00     0.007 C 
ENDBRANCH  28  29
ENDBRANCH  27  28
ENDBRANCH  24  27
ENDBRANCH   1  21
TORSDOF 8
ENDMDL
MODEL 5
REMARK VINA RESULT:      -8.3      1.741      2.240
REMARK  8 active torsions:
REMARK  status: ('A' for Active; 'I' for Inactive)
REMARK    1  A    between atoms: C_2  and  C_3 
REMARK    2  A    between atoms: C_3  and  O_4 
REMARK    3  A    between atoms: O_4  and  C_5 
REMARK    4  A    between atoms: C_8  and  C_9 
REMARK    5  A    between atoms: C_13  and  C_14 
REMARK       I    between atoms: C_14  and  N_15 
REMARK    6  A    between atoms: N_15  and  N_16 
REMARK    7  A    between atoms: C_17  and  C_18 
REMARK    8  A    between atoms: C_19  and  O_20 
ROOT
HETATM    1  C   UNL     1      25.733  46.868  50.799  1.00  0.00     0.089 A 
HETATM    2  N   UNL     1      26.430  47.806  50.141  1.00  0.00    -0.174 NA
HETATM    3  N   UNL     1      25.519  48.439  49.386  1.00  0.00    -0.272 N 
HETATM    4  H   UNL     1      25.819  49.200  48.784  1.00  0.00     0.189 HD
HETATM    5  C   UNL     1      24.240  47.983  49.552  1.00  0.00     0.121 A 
HETATM    6  C   UNL     1      24.356  46.940  50.449  1.00  0.00     0.071 A 
ENDROOT
BRANCH   5   7
HETATM    7  C   UNL     1      23.128  48.596  48.868  1.00  0.00     0.289 C 
HETATM    8  N   UNL     1      21.954  48.647  49.605  1.00  0.00    -0.242 N 
HETATM    9  H   UNL     1      21.927  48.284  50.548  1.00  0.00     0.192 HD
HETATM   10  O   UNL     1      23.246  49.049  47.732  1.00  0.00    -0.264 OA
BRANCH   8  11
HETATM   11  N   UNL     1      20.854  49.275  49.100  1.00  0.00    -0.183 NA
HETATM   12  C   UNL     1      20.062  49.807  49.976  1.00  0.00     0.153 C 
BRANCH  12  13
HETATM   13  C   UNL     1      18.849  50.537  49.565  1.00  0.00     0.016 A 
HETATM   14  C   UNL     1      17.775  49.905  48.929  1.00  0.00     0.077 A 
HETATM   15  C   UNL     1      16.655  50.640  48.549  1.00  0.00     0.037 A 
HETATM   16  C   UNL     1      16.603  52.011  48.802  1.00  0.00     0.003 A 
HETATM   17  C   UNL     1      17.670  52.648  49.435  1.00  0.00     0.001 A 
HETATM   18  C   UNL     1      18.795  51.914  49.818  1.00  0.00     0.016 A 
BRANCH  14  19
HETATM   19  O   UNL     1      17.750  48.566  48.643  1.00  0.00    -0.360 OA
HETATM   20  H   UNL     1      18.016  48.444  47.703  1.00  0.00     0.217 HD
ENDBRANCH  14  19
ENDBRANCH  12  13
ENDBRANCH   8  11
ENDBRANCH   5   7
BRANCH   1  21
HETATM   21  C   UNL     1      26.362  45.965  51.764  1.00  0.00    -0.005 A 
HETATM   22  C   UNL     1      26.302  46.240  53.137  1.00  0.00     0.016 A 
HETATM   23  C   UNL     1      26.839  45.348  54.072  1.00  0.00     0.037 A 
HETATM   24  C   UNL     1      27.446  44.169  53.643  1.00  0.00     0.068 A 
HETATM   25  C   UNL     1      27.553  43.912  52.276  1.00  0.00     0.037 A 
HETATM   26  C   UNL     1      27.009  44.797  51.341  1.00  0.00     0.016 A 
BRANCH  24  27
HETATM   27  O   UNL     1      27.986  43.215  54.459  1.00  0.00    -0.351 OA
BRANCH  27  28
HETATM   28  C   UNL     1      29.380  42.960  54.276  1.00  0.00     0.175 C 
BRANCH  28  29
HETATM   29  C   UNL     1      30.153  43.962  55.129  1.00  0.00     0.022 C 
HETATM   30  C   UNL     1      31.068  43.271  56.125  1.00  0.00     0.007 C 
ENDBRANCH  28  29
ENDBRANCH  27  28
ENDBRANCH  24  27
ENDBRANCH   1  21
TORSDOF 8
ENDMDL
MODEL 6
REMARK VINA RESULT:      -8.0      2.188     11.177
REMARK  8 active torsions:
REMARK  status: ('A' for Active; 'I' for Inactive)
REMARK    1  A    between atoms: C_2  and  C_3 
REMARK    2  A    between atoms: C_3  and  O_4 
REMARK    3  A    between atoms: O_4  and  C_5 
REMARK    4  A    between atoms: C_8  and  C_9 
REMARK    5  A    between atoms: C_13  and  C_14 
REMARK       I    between atoms: C_14  and  N_15 
REMARK    6  A    between atoms: N_15  and  N_16 
REMARK    7  A    between atoms: C_17  and  C_18 
REMARK    8  A    between atoms: C_19  and  O_20 
ROOT
HETATM    1  C   UNL     1      23.225  49.457  48.807  1.00  0.00     0.089 A 
HETATM    2  N   UNL     1      24.268  50.094  48.256  1.00  0.00    -0.174 NA
HETATM    3  N   UNL     1      25.339  49.372  48.621  1.00  0.00    -0.272 N 
HETATM    4  H   UNL     1      26.262  49.670  48.320  1.00  0.00     0.189 HD
HETATM    5  C   UNL     1      25.039  48.259  49.356  1.00  0.00     0.121 A 
HETATM    6  C   UNL     1      23.669  48.305  49.515  1.00  0.00     0.071 A 
ENDROOT
BRANCH   5   7
HETATM    7  C   UNL     1      26.064  47.335  49.774  1.00  0.00     0.289 C 
HETATM    8  N   UNL     1      25.709  46.523  50.842  1.00  0.00    -0.242 N 
HETATM    9  H   UNL     1      24.790  46.597  51.256  1.00  0.00     0.192 HD
HETATM   10  O   UNL     1      27.147  47.276  49.198  1.00  0.00    -0.264 OA
BRANCH   8  11
HETATM   11  N   UNL     1      26.561  45.552  51.277  1.00  0.00    -0.183 NA
HETATM   12  C   UNL     1      26.595  45.371  52.560  1.00  0.00     0.153 C 
BRANCH  12  13
HETATM   13  C   UNL     1      27.456  44.336  53.162  1.00  0.00     0.016 A 
HETATM   14  C   UNL     1      27.294  42.975  52.883  1.00  0.00     0.077 A 
HETATM   15  C   UNL     1      28.125  42.033  53.486  1.00  0.00     0.037 A 
HETATM   16  C   UNL     1      29.120  42.448  54.372  1.00  0.00     0.003 A 
HETATM   17  C   UNL     1      29.285  43.803  54.655  1.00  0.00     0.001 A 
HETATM   18  C   UNL     1      28.455  44.751  54.052  1.00  0.00     0.016 A 
BRANCH  14  19
HETATM   19  O   UNL     1      26.342  42.488  52.029  1.00  0.00    -0.360 OA
HETATM   20  H   UNL     1      26.053  43.218  51.436  1.00  0.00     0.217 HD
ENDBRANCH  14  19
ENDBRANCH  12  13
ENDBRANCH   8  11
ENDBRANCH   5   7
BRANCH   1  21
HETATM   21  C   UNL     1      21.847  49.915  48.622  1.00  0.00    -0.005 A 
HETATM   22  C   UNL     1      20.831  49.000  48.314  1.00  0.00     0.016 A 
HETATM   23  C   UNL     1      19.499  49.416  48.203  1.00  0.00     0.037 A 
HETATM   24  C   UNL     1      19.168  50.756  48.398  1.00  0.00     0.068 A 
HETATM   25  C   UNL     1      20.181  51.681  48.657  1.00  0.00     0.037 A 
HETATM   26  C   UNL     1      21.510  51.266  48.777  1.00  0.00     0.016 A 
BRANCH  24  27
HETATM   27  O   UNL     1      17.906  51.277  48.337  1.00  0.00    -0.351 OA
BRANCH  27  28
HETATM   28  C   UNL     1      17.197  51.333  49.576  1.00  0.00     0.175 C 
BRANCH  28  29
HETATM   29  C   UNL     1      16.709  52.766  49.769  1.00  0.00     0.022 C 
HETATM   30  C   UNL     1      15.334  52.983  49.162  1.00  0.00     0.007 C 
ENDBRANCH  28  29
ENDBRANCH  27  28
ENDBRANCH  24  27
ENDBRANCH   1  21
TORSDOF 8
ENDMDL
MODEL 7
REMARK VINA RESULT:      -7.7      6.754     10.757
REMARK  8 active torsions:
REMARK  status: ('A' for Active; 'I' for Inactive)
REMARK    1  A    between atoms: C_2  and  C_3 
REMARK    2  A    between atoms: C_3  and  O_4 
REMARK    3  A    between atoms: O_4  and  C_5 
REMARK    4  A    between atoms: C_8  and  C_9 
REMARK    5  A    between atoms: C_13  and  C_14 
REMARK       I    between atoms: C_14  and  N_15 
REMARK    6  A    between atoms: N_15  and  N_16 
REMARK    7  A    between atoms: C_17  and  C_18 
REMARK    8  A    between atoms: C_19  and  O_20 
ROOT
HETATM    1  C   UNL     1      18.077  51.651  48.451  1.00  0.00     0.089 A 
HETATM    2  N   UNL     1      17.319  51.980  47.394  1.00  0.00    -0.174 NA
HETATM    3  N   UNL     1      16.245  52.587  47.923  1.00  0.00    -0.272 N 
HETATM    4  H   UNL     1      15.515  52.926  47.304  1.00  0.00     0.189 HD
HETATM    5  C   UNL     1      16.284  52.709  49.285  1.00  0.00     0.121 A 
HETATM    6  C   UNL     1      17.456  52.081  49.657  1.00  0.00     0.071 A 
ENDROOT
BRANCH   5   7
HETATM    7  C   UNL     1      15.244  53.395  50.009  1.00  0.00     0.289 C 
HETATM    8  N   UNL     1      15.691  54.163  51.074  1.00  0.00    -0.242 N 
HETATM    9  H   UNL     1      16.679  54.221  51.282  1.00  0.00     0.192 HD
HETATM   10  O   UNL     1      14.065  53.307  49.674  1.00  0.00    -0.264 OA
BRANCH   8  11
HETATM   11  N   UNL     1      14.813  54.925  51.786  1.00  0.00    -0.183 NA
HETATM   12  C   UNL     1      15.293  56.027  52.270  1.00  0.00     0.153 C 
BRANCH  12  13
HETATM   13  C   UNL     1      14.445  56.956  53.040  1.00  0.00     0.016 A 
HETATM   14  C   UNL     1      13.392  56.512  53.847  1.00  0.00     0.077 A 
HETATM   15  C   UNL     1      12.611  57.429  54.547  1.00  0.00     0.037 A 
HETATM   16  C   UNL     1      12.879  58.794  54.443  1.00  0.00     0.003 A 
HETATM   17  C   UNL     1      13.928  59.243  53.640  1.00  0.00     0.001 A 
HETATM   18  C   UNL     1      14.713  58.327  52.937  1.00  0.00     0.016 A 
BRANCH  14  19
HETATM   19  O   UNL     1      13.063  55.192  53.999  1.00  0.00    -0.360 OA
HETATM   20  H   UNL     1      12.810  54.831  53.119  1.00  0.00     0.217 HD
ENDBRANCH  14  19
ENDBRANCH  12  13
ENDBRANCH   8  11
ENDBRANCH   5   7
BRANCH   1  21
HETATM   21  C   UNL     1      19.372  50.985  48.302  1.00  0.00    -0.005 A 
HETATM   22  C   UNL     1      19.442  49.668  47.828  1.00  0.00     0.016 A 
HETATM   23  C   UNL     1      20.678  49.046  47.615  1.00  0.00     0.037 A 
HETATM   24  C   UNL     1      21.860  49.735  47.878  1.00  0.00     0.068 A 
HETATM   25  C   UNL     1      21.798  51.029  48.397  1.00  0.00     0.037 A 
HETATM   26  C   UNL     1      20.565  51.655  48.601  1.00  0.00     0.016 A 
BRANCH  24  27
HETATM   27  O   UNL     1      23.122  49.243  47.692  1.00  0.00    -0.351 OA
BRANCH  27  28
HETATM   28  C   UNL     1      24.189  50.151  47.973  1.00  0.00     0.175 C 
BRANCH  28  29
HETATM   29  C   UNL     1      25.274  49.376  48.716  1.00  0.00     0.022 C 
HETATM   30  C   UNL     1      26.658  49.941  48.447  1.00  0.00     0.007 C 
ENDBRANCH  28  29
ENDBRANCH  27  28
ENDBRANCH  24  27
ENDBRANCH   1  21
TORSDOF 8
ENDMDL
MODEL 8
REMARK VINA RESULT:      -7.6      2.888      3.470
REMARK  8 active torsions:
REMARK  status: ('A' for Active; 'I' for Inactive)
REMARK    1  A    between atoms: C_2  and  C_3 
REMARK    2  A    between atoms: C_3  and  O_4 
REMARK    3  A    between atoms: O_4  and  C_5 
REMARK    4  A    between atoms: C_8  and  C_9 
REMARK    5  A    between atoms: C_13  and  C_14 
REMARK       I    between atoms: C_14  and  N_15 
REMARK    6  A    between atoms: N_15  and  N_16 
REMARK    7  A    between atoms: C_17  and  C_18 
REMARK    8  A    between atoms: C_19  and  O_20 
ROOT
HETATM    1  C   UNL     1      26.972  44.168  51.190  1.00  0.00     0.089 A 
HETATM    2  N   UNL     1      27.239  43.731  49.951  1.00  0.00    -0.174 NA
HETATM    3  N   UNL     1      26.207  44.162  49.209  1.00  0.00    -0.272 N 
HETATM    4  H   UNL     1      26.185  43.942  48.218  1.00  0.00     0.189 HD
HETATM    5  C   UNL     1      25.290  44.903  49.902  1.00  0.00     0.121 A 
HETATM    6  C   UNL     1      25.752  44.899  51.203  1.00  0.00     0.071 A 
ENDROOT
BRANCH   5   7
HETATM    7  C   UNL     1      24.155  45.501  49.246  1.00  0.00     0.289 C 
HETATM    8  N   UNL     1      23.321  44.599  48.600  1.00  0.00    -0.242 N 
HETATM    9  H   UNL     1      23.523  43.609  48.625  1.00  0.00     0.192 HD
HETATM   10  O   UNL     1      23.953  46.712  49.290  1.00  0.00    -0.264 OA
BRANCH   8  11
HETATM   11  N   UNL     1      22.169  45.031  48.012  1.00  0.00    -0.183 NA
HETATM   12  C   UNL     1      21.114  45.008  48.763  1.00  0.00     0.153 C 
BRANCH  12  13
HETATM   13  C   UNL     1      19.807  45.470  48.260  1.00  0.00     0.016 A 
HETATM   14  C   UNL     1      19.084  44.759  47.296  1.00  0.00     0.077 A 
HETATM   15  C   UNL     1      17.859  45.242  46.843  1.00  0.00     0.037 A 
HETATM   16  C   UNL     1      17.351  46.439  47.351  1.00  0.00     0.003 A 
HETATM   17  C   UNL     1      18.068  47.152  48.311  1.00  0.00     0.001 A 
HETATM   18  C   UNL     1      19.296  46.671  48.769  1.00  0.00     0.016 A 
BRANCH  14  19
HETATM   19  O   UNL     1      19.514  43.582  46.747  1.00  0.00    -0.360 OA
HETATM   20  H   UNL     1      19.034  42.841  47.183  1.00  0.00     0.217 HD
ENDBRANCH  14  19
ENDBRANCH  12  13
ENDBRANCH   8  11
ENDBRANCH   5   7
BRANCH   1  21
HETATM   21  C   UNL     1      27.881  43.929  52.312  1.00  0.00    -0.005 A 
HETATM   22  C   UNL     1      27.651  44.536  53.554  1.00  0.00     0.016 A 
HETATM   23  C   UNL     1      28.473  44.259  54.653  1.00  0.00     0.037 A 
HETATM   24  C   UNL     1      29.539  43.371  54.520  1.00  0.00     0.068 A 
HETATM   25  C   UNL     1      29.804  42.801  53.275  1.00  0.00     0.037 A 
HETATM   26  C   UNL     1      28.979  43.068  52.179  1.00  0.00     0.016 A 
BRANCH  24  27
HETATM   27  O   UNL     1      30.396  43.008  55.521  1.00  0.00    -0.351 OA
BRANCH  27  28
HETATM   28  C   UNL     1      31.315  44.016  55.947  1.00  0.00     0.175 C 
BRANCH  28  29
HETATM   29  C   UNL     1      31.535  43.841  57.447  1.00  0.00     0.022 C 
HETATM   30  C   UNL     1      30.891  44.958  58.249  1.00  0.00     0.007 C 
ENDBRANCH  28  29
ENDBRANCH  27  28
ENDBRANCH  24  27
ENDBRANCH   1  21
TORSDOF 8
ENDMDL
MODEL 9
REMARK VINA RESULT:      -7.4      8.478     12.149
REMARK  8 active torsions:
REMARK  status: ('A' for Active; 'I' for Inactive)
REMARK    1  A    between atoms: C_2  and  C_3 
REMARK    2  A    between atoms: C_3  and  O_4 
REMARK    3  A    between atoms: O_4  and  C_5 
REMARK    4  A    between atoms: C_8  and  C_9 
REMARK    5  A    between atoms: C_13  and  C_14 
REMARK       I    between atoms: C_14  and  N_15 
REMARK    6  A    between atoms: N_15  and  N_16 
REMARK    7  A    between atoms: C_17  and  C_18 
REMARK    8  A    between atoms: C_19  and  O_20 
ROOT
HETATM    1  C   UNL     1      28.550  39.597  49.345  1.00  0.00     0.089 A 
HETATM    2  N   UNL     1      29.130  38.847  50.293  1.00  0.00    -0.174 NA
HETATM    3  N   UNL     1      29.059  39.593  51.407  1.00  0.00    -0.272 N 
HETATM    4  H   UNL     1      29.447  39.227  52.271  1.00  0.00     0.189 HD
HETATM    5  C   UNL     1      28.417  40.789  51.240  1.00  0.00     0.121 A 
HETATM    6  C   UNL     1      28.099  40.829  49.897  1.00  0.00     0.071 A 
ENDROOT
BRANCH   5   7
HETATM    7  C   UNL     1      28.194  41.684  52.348  1.00  0.00     0.289 C 
HETATM    8  N   UNL     1      29.238  41.746  53.259  1.00  0.00    -0.242 N 
HETATM    9  H   UNL     1      30.077  41.202  53.112  1.00  0.00     0.192 HD
HETATM   10  O   UNL     1      27.162  42.343  52.440  1.00  0.00    -0.264 OA
BRANCH   8  11
HETATM   11  N   UNL     1      29.182  42.618  54.307  1.00  0.00    -0.183 NA
HETATM   12  C   UNL     1      30.327  42.996  54.781  1.00  0.00     0.153 C 
BRANCH  12  13
HETATM   13  C   UNL     1      30.411  43.955  55.898  1.00  0.00     0.016 A 
HETATM   14  C   UNL     1      29.698  45.158  55.905  1.00  0.00     0.077 A 
HETATM   15  C   UNL     1      29.819  46.038  56.978  1.00  0.00     0.037 A 
HETATM   16  C   UNL     1      30.654  45.718  58.050  1.00  0.00     0.003 A 
HETATM   17  C   UNL     1      31.369  44.520  58.048  1.00  0.00     0.001 A 
HETATM   18  C   UNL     1      31.250  43.636  56.974  1.00  0.00     0.016 A 
BRANCH  14  19
HETATM   19  O   UNL     1      28.861  45.545  54.893  1.00  0.00    -0.360 OA
HETATM   20  H   UNL     1      28.109  44.911  54.852  1.00  0.00     0.217 HD
ENDBRANCH  14  19
ENDBRANCH  12  13
ENDBRANCH   8  11
ENDBRANCH   5   7
BRANCH   1  21
HETATM   21  C   UNL     1      28.396  39.128  47.967  1.00  0.00    -0.005 A 
HETATM   22  C   UNL     1      28.594  37.777  47.652  1.00  0.00     0.016 A 
HETATM   23  C   UNL     1      28.381  37.304  46.351  1.00  0.00     0.037 A 
HETATM   24  C   UNL     1      27.969  38.181  45.349  1.00  0.00     0.068 A 
HETATM   25  C   UNL     1      27.817  39.535  45.644  1.00  0.00     0.037 A 
HETATM   26  C   UNL     1      28.020  40.008  46.944  1.00  0.00     0.016 A 
BRANCH  24  27
HETATM   27  O   UNL     1      27.710  37.835  44.052  1.00  0.00    -0.351 OA
BRANCH  27  28
HETATM   28  C   UNL     1      28.755  38.112  43.117  1.00  0.00     0.175 C 
BRANCH  28  29
HETATM   29  C   UNL     1      28.817  36.949  42.131  1.00  0.00     0.022 C 
HETATM   30  C   UNL     1      28.740  35.605  42.834  1.00  0.00     0.007 C 
ENDBRANCH  28  29
ENDBRANCH  27  28
ENDBRANCH  24  27
ENDBRANCH   1  21
TORSDOF 8
ENDMDL
MODEL 10
REMARK VINA RESULT:      -7.4     18.674     23.893
REMARK  8 active torsions:
REMARK  status: ('A' for Active; 'I' for Inactive)
REMARK    1  A    between atoms: C_2  and  C_3 
REMARK    2  A    between atoms: C_3  and  O_4 
REMARK    3  A    between atoms: O_4  and  C_5 
REMARK    4  A    between atoms: C_8  and  C_9 
REMARK    5  A    between atoms: C_13  and  C_14 
REMARK       I    between atoms: C_14  and  N_15 
REMARK    6  A    between atoms: N_15  and  N_16 
REMARK    7  A    between atoms: C_17  and  C_18 
REMARK    8  A    between atoms: C_19  and  O_20 
ROOT
HETATM    1  C   UNL     1      39.327  40.776  63.512  1.00  0.00     0.089 A 
HETATM    2  N   UNL     1      39.462  40.048  62.395  1.00  0.00    -0.174 NA
HETATM    3  N   UNL     1      40.043  38.908  62.801  1.00  0.00    -0.272 N 
HETATM    4  H   UNL     1      40.254  38.189  62.115  1.00  0.00     0.189 HD
HETATM    5  C   UNL     1      40.256  38.838  64.150  1.00  0.00     0.121 A 
HETATM    6  C   UNL     1      39.823  40.056  64.634  1.00  0.00     0.071 A 
ENDROOT
BRANCH   5   7
HETATM    7  C   UNL     1      40.809  37.656  64.764  1.00  0.00     0.289 C 
HETATM    8  N   UNL     1      40.048  37.135  65.800  1.00  0.00    -0.242 N 
HETATM    9  H   UNL     1      39.175  37.572  66.063  1.00  0.00     0.192 HD
HETATM   10  O   UNL     1      41.859  37.159  64.365  1.00  0.00    -0.264 OA
BRANCH   8  11
HETATM   11  N   UNL     1      40.422  35.972  66.407  1.00  0.00    -0.183 NA
HETATM   12  C   UNL     1      39.462  35.142  66.665  1.00  0.00     0.153 C 
BRANCH  12  13
HETATM   13  C   UNL     1      39.730  33.836  67.297  1.00  0.00     0.016 A 
HETATM   14  C   UNL     1      40.540  32.867  66.695  1.00  0.00     0.077 A 
HETATM   15  C   UNL     1      40.755  31.644  67.326  1.00  0.00     0.037 A 
HETATM   16  C   UNL     1      40.160  31.384  68.562  1.00  0.00     0.003 A 
HETATM   17  C   UNL     1      39.352  32.347  69.167  1.00  0.00     0.001 A 
HETATM   18  C   UNL     1      39.134  33.574  68.537  1.00  0.00     0.016 A 
BRANCH  14  19
HETATM   19  O   UNL     1      41.155  33.044  65.485  1.00  0.00    -0.360 OA
HETATM   20  H   UNL     1      41.305  34.007  65.350  1.00  0.00     0.217 HD
ENDBRANCH  14  19
ENDBRANCH  12  13
ENDBRANCH   8  11
ENDBRANCH   5   7
BRANCH   1  21
HETATM   21  C   UNL     1      38.701  42.100  63.507  1.00  0.00    -0.005 A 
HETATM   22  C   UNL     1      39.220  43.126  62.707  1.00  0.00     0.016 A 
HETATM   23  C   UNL     1      38.590  44.375  62.642  1.00  0.00     0.037 A 
HETATM   24  C   UNL     1      37.431  44.610  63.379  1.00  0.00     0.068 A 
HETATM   25  C   UNL     1      36.936  43.609  64.216  1.00  0.00     0.037 A 
HETATM   26  C   UNL     1      37.559  42.359  64.276  1.00  0.00     0.016 A 
BRANCH  24  27
HETATM   27  O   UNL     1      36.717  45.776  63.382  1.00  0.00    -0.351 OA
BRANCH  27  28
HETATM   28  C   UNL     1      36.843  46.578  64.558  1.00  0.00     0.175 C 
BRANCH  28  29
HETATM   29  C   UNL     1      36.785  48.042  64.131  1.00  0.00     0.022 C 
HETATM   30  C   UNL     1      37.807  48.888  64.870  1.00  0.00     0.007 C 
ENDBRANCH  28  29
ENDBRANCH  27  28
ENDBRANCH  24  27
ENDBRANCH   1  21
TORSDOF 8
ENDMDL
