MODEL 1
REMARK VINA RESULT:      -8.1      0.000      0.000
REMARK  8 active torsions:
REMARK  status: ('A' for Active; 'I' for Inactive)
REMARK    1  A    between atoms: C_2  and  C_3 
REMARK    2  A    between atoms: C_3  and  N_4 
REMARK    3  A    between atoms: C_7  and  C_8 
REMARK       I    between atoms: C_8  and  N_9 
REMARK    4  A    between atoms: N_9  and  N_10 
REMARK       I    between atoms: N_10  and  C_11 
REMARK    5  A    between atoms: C_11  and  C_12 
REMARK    6  A    between atoms: C_15  and  O_16 
REMARK    7  A    between atoms: O_16  and  C_17 
REMARK    8  A    between atoms: C_23  and  C_24 
ROOT
HETATM    1  C   UNL     1      24.671  44.721  51.047  1.00  0.00     0.273 C 
HETATM    2  N   UNL     1      24.957  45.952  50.485  1.00  0.00    -0.263 N 
HETATM    3  O   UNL     1      23.515  44.312  51.125  1.00  0.00    -0.266 OA
HETATM    4  H   UNL     1      25.878  46.388  50.509  1.00  0.00     0.190 HD
ENDROOT
BRANCH   2   5
HETATM    5  N   UNL     1      23.902  46.741  50.015  1.00  0.00    -0.263 N 
HETATM    6  C   UNL     1      24.173  48.045  49.659  1.00  0.00     0.270 C 
HETATM    7  O   UNL     1      25.304  48.523  49.722  1.00  0.00    -0.266 OA
HETATM    8  H   UNL     1      22.965  46.364  50.149  1.00  0.00     0.190 HD
BRANCH   6   9
HETATM    9  C   UNL     1      23.017  48.867  49.209  1.00  0.00     0.033 A 
HETATM   10  C   UNL     1      21.841  48.210  48.830  1.00  0.00     0.020 A 
HETATM   11  C   UNL     1      20.730  48.948  48.415  1.00  0.00     0.038 A 
HETATM   12  C   UNL     1      20.769  50.344  48.386  1.00  0.00     0.068 A 
HETATM   13  C   UNL     1      21.938  51.002  48.772  1.00  0.00     0.038 A 
HETATM   14  C   UNL     1      23.059  50.268  49.186  1.00  0.00     0.020 A 
BRANCH  12  15
HETATM   15  O   UNL     1      19.611  50.938  47.969  1.00  0.00    -0.352 OA
BRANCH  15  16
HETATM   16  C   UNL     1      19.339  52.250  48.461  1.00  0.00     0.171 C 
HETATM   17  C   UNL     1      18.564  52.111  49.759  1.00  0.00     0.034 C 
ENDBRANCH  15  16
ENDBRANCH  12  15
ENDBRANCH   6   9
ENDBRANCH   2   5
BRANCH   1  18
HETATM   18  C   UNL     1      25.843  43.981  51.481  1.00  0.00     0.077 A 
HETATM   19  C   UNL     1      26.627  43.144  50.648  1.00  0.00     0.158 A 
HETATM   20  N   UNL     1      27.642  42.570  51.283  1.00  0.00    -0.183 NA
HETATM   21  N   UNL     1      27.505  42.992  52.555  1.00  0.00    -0.268 N 
HETATM   22  C   UNL     1      26.471  43.895  52.722  1.00  0.00     0.052 A 
BRANCH  21  23
HETATM   23  C   UNL     1      28.405  42.441  53.568  1.00  0.00     0.106 C 
HETATM   24  C   UNL     1      28.537  40.921  53.411  1.00  0.00     0.034 C 
BRANCH  23  25
HETATM   25  C   UNL     1      29.790  43.112  53.549  1.00  0.00     0.022 C 
HETATM   26  C   UNL     1      30.287  43.496  54.936  1.00  0.00     0.007 C 
ENDBRANCH  23  25
ENDBRANCH  21  23
BRANCH  22  27
HETATM   27  C   UNL     1      26.191  44.636  54.034  1.00  0.00     0.038 A 
HETATM   28  C   UNL     1      27.149  45.687  54.540  1.00  0.00     0.011 A 
HETATM   29  C   UNL     1      25.803  46.092  54.037  1.00  0.00     0.011 A 
ENDBRANCH  22  27
ENDBRANCH   1  18
TORSDOF 8
ENDMDL
MODEL 2
REMARK VINA RESULT:      -7.7      1.551      2.020
REMARK  8 active torsions:
REMARK  status: ('A' for Active; 'I' for Inactive)
REMARK    1  A    between atoms: C_2  and  C_3 
REMARK    2  A    between atoms: C_3  and  N_4 
REMARK    3  A    between atoms: C_7  and  C_8 
REMARK       I    between atoms: C_8  and  N_9 
REMARK    4  A    between atoms: N_9  and  N_10 
REMARK       I    between atoms: N_10  and  C_11 
REMARK    5  A    between atoms: C_11  and  C_12 
REMARK    6  A    between atoms: C_15  and  O_16 
REMARK    7  A    between atoms: O_16  and  C_17 
REMARK    8  A    between atoms: C_23  and  C_24 
ROOT
HETATM    1  C   UNL     1      25.394  46.743  51.347  1.00  0.00     0.273 C 
HETATM    2  N   UNL     1      24.643  46.858  50.192  1.00  0.00    -0.263 N 
HETATM    3  O   UNL     1      25.233  47.515  52.290  1.00  0.00    -0.266 OA
HETATM    4  H   UNL     1      24.821  46.326  49.342  1.00  0.00     0.190 HD
ENDROOT
BRANCH   2   5
HETATM    5  N   UNL     1      23.697  47.886  50.102  1.00  0.00    -0.263 N 
HETATM    6  C   UNL     1      22.771  47.829  49.082  1.00  0.00     0.270 C 
HETATM    7  O   UNL     1      22.738  46.905  48.273  1.00  0.00    -0.266 OA
HETATM    8  H   UNL     1      23.874  48.710  50.675  1.00  0.00     0.190 HD
BRANCH   6   9
HETATM    9  C   UNL     1      21.812  48.963  48.990  1.00  0.00     0.033 A 
HETATM   10  C   UNL     1      22.304  50.222  48.626  1.00  0.00     0.020 A 
HETATM   11  C   UNL     1      21.433  51.309  48.514  1.00  0.00     0.038 A 
HETATM   12  C   UNL     1      20.064  51.155  48.748  1.00  0.00     0.068 A 
HETATM   13  C   UNL     1      19.570  49.898  49.102  1.00  0.00     0.038 A 
HETATM   14  C   UNL     1      20.438  48.804  49.220  1.00  0.00     0.020 A 
BRANCH  12  15
HETATM   15  O   UNL     1      19.328  52.295  48.596  1.00  0.00    -0.352 OA
BRANCH  15  16
HETATM   16  C   UNL     1      17.940  52.140  48.302  1.00  0.00     0.171 C 
HETATM   17  C   UNL     1      17.788  52.049  46.793  1.00  0.00     0.034 C 
ENDBRANCH  15  16
ENDBRANCH  12  15
ENDBRANCH   6   9
ENDBRANCH   2   5
BRANCH   1  18
HETATM   18  C   UNL     1      26.328  45.630  51.338  1.00  0.00     0.077 A 
HETATM   19  C   UNL     1      26.971  45.123  50.182  1.00  0.00     0.158 A 
HETATM   20  N   UNL     1      27.773  44.094  50.433  1.00  0.00    -0.183 NA
HETATM   21  N   UNL     1      27.625  43.888  51.756  1.00  0.00    -0.268 N 
HETATM   22  C   UNL     1      26.810  44.824  52.367  1.00  0.00     0.052 A 
BRANCH  21  23
HETATM   23  C   UNL     1      28.288  42.729  52.354  1.00  0.00     0.106 C 
HETATM   24  C   UNL     1      28.176  41.504  51.438  1.00  0.00     0.034 C 
BRANCH  23  25
HETATM   25  C   UNL     1      29.759  43.012  52.706  1.00  0.00     0.022 C 
HETATM   26  C   UNL     1      30.027  42.998  54.205  1.00  0.00     0.007 C 
ENDBRANCH  23  25
ENDBRANCH  21  23
BRANCH  22  27
HETATM   27  C   UNL     1      26.592  44.904  53.881  1.00  0.00     0.038 A 
HETATM   28  C   UNL     1      25.231  44.630  54.475  1.00  0.00     0.011 A 
HETATM   29  C   UNL     1      26.345  43.661  54.697  1.00  0.00     0.011 A 
ENDBRANCH  22  27
ENDBRANCH   1  18
TORSDOF 8
ENDMDL
MODEL 3
REMARK VINA RESULT:      -7.5      1.005      2.261
REMARK  8 active torsions:
REMARK  status: ('A' for Active; 'I' for Inactive)
REMARK    1  A    between atoms: C_2  and  C_3 
REMARK    2  A    between atoms: C_3  and  N_4 
REMARK    3  A    between atoms: C_7  and  C_8 
REMARK       I    between atoms: C_8  and  N_9 
REMARK    4  A    between atoms: N_9  and  N_10 
REMARK       I    between atoms: N_10  and  C_11 
REMARK    5  A    between atoms: C_11  and  C_12 
REMARK    6  A    between atoms: C_15  and  O_16 
REMARK    7  A    between atoms: O_16  and  C_17 
REMARK    8  A    between atoms: C_23  and  C_24 
ROOT
HETATM    1  C   UNL     1      24.951  45.336  51.921  1.00  0.00     0.273 C 
HETATM    2  N   UNL     1      25.131  46.638  51.493  1.00  0.00    -0.263 N 
HETATM    3  O   UNL     1      23.917  44.722  51.669  1.00  0.00    -0.266 OA
HETATM    4  H   UNL     1      25.911  47.228  51.779  1.00  0.00     0.190 HD
ENDROOT
BRANCH   2   5
HETATM    5  N   UNL     1      24.105  47.260  50.774  1.00  0.00    -0.263 N 
HETATM    6  C   UNL     1      24.451  48.223  49.849  1.00  0.00     0.270 C 
HETATM    7  O   UNL     1      25.620  48.533  49.626  1.00  0.00    -0.266 OA
HETATM    8  H   UNL     1      23.159  47.104  51.116  1.00  0.00     0.190 HD
BRANCH   6   9
HETATM    9  C   UNL     1      23.331  48.897  49.138  1.00  0.00     0.033 A 
HETATM   10  C   UNL     1      22.140  48.186  48.949  1.00  0.00     0.020 A 
HETATM   11  C   UNL     1      21.060  48.789  48.299  1.00  0.00     0.038 A 
HETATM   12  C   UNL     1      21.146  50.106  47.842  1.00  0.00     0.068 A 
HETATM   13  C   UNL     1      22.330  50.820  48.037  1.00  0.00     0.038 A 
HETATM   14  C   UNL     1      23.419  50.221  48.686  1.00  0.00     0.020 A 
BRANCH  12  15
HETATM   15  O   UNL     1      20.016  50.573  47.232  1.00  0.00    -0.352 OA
BRANCH  15  16
HETATM   16  C   UNL     1      18.922  50.932  48.075  1.00  0.00     0.171 C 
HETATM   17  C   UNL     1      19.034  52.415  48.382  1.00  0.00     0.034 C 
ENDBRANCH  15  16
ENDBRANCH  12  15
ENDBRANCH   6   9
ENDBRANCH   2   5
BRANCH   1  18
HETATM   18  C   UNL     1      26.087  44.785  52.639  1.00  0.00     0.077 A 
HETATM   19  C   UNL     1      26.230  44.784  54.049  1.00  0.00     0.158 A 
HETATM   20  N   UNL     1      27.364  44.230  54.463  1.00  0.00    -0.183 NA
HETATM   21  N   UNL     1      27.997  43.902  53.319  1.00  0.00    -0.268 N 
HETATM   22  C   UNL     1      27.247  44.159  52.187  1.00  0.00     0.052 A 
BRANCH  21  23
HETATM   23  C   UNL     1      29.357  43.369  53.410  1.00  0.00     0.106 C 
HETATM   24  C   UNL     1      29.864  43.413  54.857  1.00  0.00     0.034 C 
BRANCH  23  25
HETATM   25  C   UNL     1      29.469  41.945  52.837  1.00  0.00     0.022 C 
HETATM   26  C   UNL     1      28.420  40.993  53.396  1.00  0.00     0.007 C 
ENDBRANCH  23  25
ENDBRANCH  21  23
BRANCH  22  27
HETATM   27  C   UNL     1      27.672  43.750  50.773  1.00  0.00     0.038 A 
HETATM   28  C   UNL     1      27.060  42.540  50.109  1.00  0.00     0.011 A 
HETATM   29  C   UNL     1      26.735  43.907  49.603  1.00  0.00     0.011 A 
ENDBRANCH  22  27
ENDBRANCH   1  18
TORSDOF 8
ENDMDL
MODEL 4
REMARK VINA RESULT:      -7.5      2.672      9.550
REMARK  8 active torsions:
REMARK  status: ('A' for Active; 'I' for Inactive)
REMARK    1  A    between atoms: C_2  and  C_3 
REMARK    2  A    between atoms: C_3  and  N_4 
REMARK    3  A    between atoms: C_7  and  C_8 
REMARK       I    between atoms: C_8  and  N_9 
REMARK    4  A    between atoms: N_9  and  N_10 
REMARK       I    between atoms: N_10  and  C_11 
REMARK    5  A    between atoms: C_11  and  C_12 
REMARK    6  A    between atoms: C_15  and  O_16 
REMARK    7  A    between atoms: O_16  and  C_17 
REMARK    8  A    between atoms: C_23  and  C_24 
ROOT
HETATM    1  C   UNL     1      24.505  45.873  49.952  1.00  0.00     0.273 C 
HETATM    2  N   UNL     1      24.290  45.727  51.310  1.00  0.00    -0.263 N 
HETATM    3  O   UNL     1      25.617  45.693  49.461  1.00  0.00    -0.266 OA
HETATM    4  H   UNL     1      23.423  45.983  51.780  1.00  0.00     0.190 HD
ENDROOT
BRANCH   2   5
HETATM    5  N   UNL     1      25.370  45.381  52.130  1.00  0.00    -0.263 N 
HETATM    6  C   UNL     1      25.889  46.350  52.963  1.00  0.00     0.270 C 
HETATM    7  O   UNL     1      25.425  47.487  53.020  1.00  0.00    -0.266 OA
HETATM    8  H   UNL     1      25.829  44.497  51.919  1.00  0.00     0.190 HD
BRANCH   6   9
HETATM    9  C   UNL     1      27.067  45.961  53.785  1.00  0.00     0.033 A 
HETATM   10  C   UNL     1      27.543  46.870  54.736  1.00  0.00     0.020 A 
HETATM   11  C   UNL     1      28.638  46.536  55.537  1.00  0.00     0.038 A 
HETATM   12  C   UNL     1      29.261  45.292  55.413  1.00  0.00     0.068 A 
HETATM   13  C   UNL     1      28.782  44.380  54.471  1.00  0.00     0.038 A 
HETATM   14  C   UNL     1      27.686  44.710  53.661  1.00  0.00     0.020 A 
BRANCH  12  15
HETATM   15  O   UNL     1      30.313  45.093  56.262  1.00  0.00    -0.352 OA
BRANCH  15  16
HETATM   16  C   UNL     1      31.146  43.962  56.013  1.00  0.00     0.171 C 
HETATM   17  C   UNL     1      31.648  43.446  57.351  1.00  0.00     0.034 C 
ENDBRANCH  15  16
ENDBRANCH  12  15
ENDBRANCH   6   9
ENDBRANCH   2   5
BRANCH   1  18
HETATM   18  C   UNL     1      23.311  46.212  49.196  1.00  0.00     0.077 A 
HETATM   19  C   UNL     1      22.382  45.271  48.687  1.00  0.00     0.158 A 
HETATM   20  N   UNL     1      21.377  45.831  48.021  1.00  0.00    -0.183 NA
HETATM   21  N   UNL     1      21.666  47.146  48.051  1.00  0.00    -0.268 N 
HETATM   22  C   UNL     1      22.791  47.442  48.799  1.00  0.00     0.052 A 
BRANCH  21  23
HETATM   23  C   UNL     1      20.810  48.059  47.292  1.00  0.00     0.106 C 
HETATM   24  C   UNL     1      19.999  47.296  46.237  1.00  0.00     0.034 C 
BRANCH  23  25
HETATM   25  C   UNL     1      19.881  48.884  48.200  1.00  0.00     0.022 C 
HETATM   26  C   UNL     1      19.326  50.126  47.516  1.00  0.00     0.007 C 
ENDBRANCH  23  25
ENDBRANCH  21  23
BRANCH  22  27
HETATM   27  C   UNL     1      23.255  48.868  49.111  1.00  0.00     0.038 A 
HETATM   28  C   UNL     1      24.653  49.315  48.756  1.00  0.00     0.011 A 
HETATM   29  C   UNL     1      23.485  49.870  48.009  1.00  0.00     0.011 A 
ENDBRANCH  22  27
ENDBRANCH   1  18
TORSDOF 8
ENDMDL
MODEL 5
REMARK VINA RESULT:      -7.5      2.399      9.878
REMARK  8 active torsions:
REMARK  status: ('A' for Active; 'I' for Inactive)
REMARK    1  A    between atoms: C_2  and  C_3 
REMARK    2  A    between atoms: C_3  and  N_4 
REMARK    3  A    between atoms: C_7  and  C_8 
REMARK       I    between atoms: C_8  and  N_9 
REMARK    4  A    between atoms: N_9  and  N_10 
REMARK       I    between atoms: N_10  and  C_11 
REMARK    5  A    between atoms: C_11  and  C_12 
REMARK    6  A    between atoms: C_15  and  O_16 
REMARK    7  A    between atoms: O_16  and  C_17 
REMARK    8  A    between atoms: C_23  and  C_24 
ROOT
HETATM    1  C   UNL     1      22.012  47.163  48.294  1.00  0.00     0.273 C 
HETATM    2  N   UNL     1      22.613  47.193  49.539  1.00  0.00    -0.263 N 
HETATM    3  O   UNL     1      22.328  46.321  47.457  1.00  0.00    -0.266 OA
HETATM    4  H   UNL     1      22.477  47.940  50.219  1.00  0.00     0.190 HD
ENDROOT
BRANCH   2   5
HETATM    5  N   UNL     1      23.605  46.251  49.832  1.00  0.00    -0.263 N 
HETATM    6  C   UNL     1      24.672  46.652  50.609  1.00  0.00     0.270 C 
HETATM    7  O   UNL     1      24.765  47.791  51.063  1.00  0.00    -0.266 OA
HETATM    8  H   UNL     1      23.578  45.387  49.294  1.00  0.00     0.190 HD
BRANCH   6   9
HETATM    9  C   UNL     1      25.731  45.638  50.860  1.00  0.00     0.033 A 
HETATM   10  C   UNL     1      26.154  45.430  52.178  1.00  0.00     0.020 A 
HETATM   11  C   UNL     1      27.137  44.477  52.456  1.00  0.00     0.038 A 
HETATM   12  C   UNL     1      27.699  43.710  51.433  1.00  0.00     0.068 A 
HETATM   13  C   UNL     1      27.273  43.910  50.119  1.00  0.00     0.038 A 
HETATM   14  C   UNL     1      26.290  44.867  49.831  1.00  0.00     0.020 A 
BRANCH  12  15
HETATM   15  O   UNL     1      28.642  42.811  51.845  1.00  0.00    -0.352 OA
BRANCH  15  16
HETATM   16  C   UNL     1      28.824  42.658  53.252  1.00  0.00     0.171 C 
HETATM   17  C   UNL     1      30.299  42.849  53.556  1.00  0.00     0.034 C 
ENDBRANCH  15  16
ENDBRANCH  12  15
ENDBRANCH   6   9
ENDBRANCH   2   5
BRANCH   1  18
HETATM   18  C   UNL     1      20.984  48.171  48.108  1.00  0.00     0.077 A 
HETATM   19  C   UNL     1      19.590  47.937  48.223  1.00  0.00     0.158 A 
HETATM   20  N   UNL     1      18.854  49.019  47.997  1.00  0.00    -0.183 NA
HETATM   21  N   UNL     1      19.761  49.966  47.685  1.00  0.00    -0.268 N 
HETATM   22  C   UNL     1      21.068  49.526  47.794  1.00  0.00     0.052 A 
BRANCH  21  23
HETATM   23  C   UNL     1      19.273  51.276  47.254  1.00  0.00     0.106 C 
HETATM   24  C   UNL     1      17.827  51.181  46.751  1.00  0.00     0.034 C 
BRANCH  23  25
HETATM   25  C   UNL     1      19.396  52.340  48.359  1.00  0.00     0.022 C 
HETATM   26  C   UNL     1      18.790  51.898  49.684  1.00  0.00     0.007 C 
ENDBRANCH  23  25
ENDBRANCH  21  23
BRANCH  22  27
HETATM   27  C   UNL     1      22.289  50.439  47.637  1.00  0.00     0.038 A 
HETATM   28  C   UNL     1      22.936  51.069  48.846  1.00  0.00     0.011 A 
HETATM   29  C   UNL     1      23.654  49.997  48.096  1.00  0.00     0.011 A 
ENDBRANCH  22  27
ENDBRANCH   1  18
TORSDOF 8
ENDMDL
MODEL 6
REMARK VINA RESULT:      -7.3      2.232      3.062
REMARK  8 active torsions:
REMARK  status: ('A' for Active; 'I' for Inactive)
REMARK    1  A    between atoms: C_2  and  C_3 
REMARK    2  A    between atoms: C_3  and  N_4 
REMARK    3  A    between atoms: C_7  and  C_8 
REMARK       I    between atoms: C_8  and  N_9 
REMARK    4  A    between atoms: N_9  and  N_10 
REMARK       I    between atoms: N_10  and  C_11 
REMARK    5  A    between atoms: C_11  and  C_12 
REMARK    6  A    between atoms: C_15  and  O_16 
REMARK    7  A    between atoms: O_16  and  C_17 
REMARK    8  A    between atoms: C_23  and  C_24 
ROOT
HETATM    1  C   UNL     1      25.768  45.010  52.892  1.00  0.00     0.273 C 
HETATM    2  N   UNL     1      25.942  45.766  51.747  1.00  0.00    -0.263 N 
HETATM    3  O   UNL     1      24.685  44.493  53.153  1.00  0.00    -0.266 OA
HETATM    4  H   UNL     1      26.778  46.315  51.549  1.00  0.00     0.190 HD
ENDROOT
BRANCH   2   5
HETATM    5  N   UNL     1      24.854  45.950  50.888  1.00  0.00    -0.263 N 
HETATM    6  C   UNL     1      24.749  47.151  50.220  1.00  0.00     0.270 C 
HETATM    7  O   UNL     1      25.583  48.046  50.339  1.00  0.00    -0.266 OA
HETATM    8  H   UNL     1      24.104  45.263  50.960  1.00  0.00     0.190 HD
BRANCH   6   9
HETATM    9  C   UNL     1      23.553  47.329  49.352  1.00  0.00     0.033 A 
HETATM   10  C   UNL     1      22.991  46.195  48.754  1.00  0.00     0.020 A 
HETATM   11  C   UNL     1      21.859  46.318  47.944  1.00  0.00     0.038 A 
HETATM   12  C   UNL     1      21.266  47.564  47.731  1.00  0.00     0.068 A 
HETATM   13  C   UNL     1      21.819  48.695  48.333  1.00  0.00     0.038 A 
HETATM   14  C   UNL     1      22.957  48.580  49.144  1.00  0.00     0.020 A 
BRANCH  12  15
HETATM   15  O   UNL     1      20.162  47.540  46.925  1.00  0.00    -0.352 OA
BRANCH  15  16
HETATM   16  C   UNL     1      19.053  48.349  47.317  1.00  0.00     0.171 C 
HETATM   17  C   UNL     1      18.344  47.648  48.463  1.00  0.00     0.034 C 
ENDBRANCH  15  16
ENDBRANCH  12  15
ENDBRANCH   6   9
ENDBRANCH   2   5
BRANCH   1  18
HETATM   18  C   UNL     1      26.969  44.870  53.698  1.00  0.00     0.077 A 
HETATM   19  C   UNL     1      27.674  43.656  53.895  1.00  0.00     0.158 A 
HETATM   20  N   UNL     1      28.736  43.786  54.682  1.00  0.00    -0.183 NA
HETATM   21  N   UNL     1      28.710  45.083  55.045  1.00  0.00    -0.268 N 
HETATM   22  C   UNL     1      27.698  45.801  54.433  1.00  0.00     0.052 A 
BRANCH  21  23
HETATM   23  C   UNL     1      29.690  45.545  56.028  1.00  0.00     0.106 C 
HETATM   24  C   UNL     1      29.033  45.750  57.399  1.00  0.00     0.034 C 
BRANCH  23  25
HETATM   25  C   UNL     1      30.899  44.600  56.140  1.00  0.00     0.022 C 
HETATM   26  C   UNL     1      31.229  44.221  57.578  1.00  0.00     0.007 C 
ENDBRANCH  23  25
ENDBRANCH  21  23
BRANCH  22  27
HETATM   27  C   UNL     1      27.535  47.319  54.562  1.00  0.00     0.038 A 
HETATM   28  C   UNL     1      26.170  47.955  54.451  1.00  0.00     0.011 A 
HETATM   29  C   UNL     1      26.871  47.930  55.769  1.00  0.00     0.011 A 
ENDBRANCH  22  27
ENDBRANCH   1  18
TORSDOF 8
ENDMDL
MODEL 7
REMARK VINA RESULT:      -7.2      5.914      9.607
REMARK  8 active torsions:
REMARK  status: ('A' for Active; 'I' for Inactive)
REMARK    1  A    between atoms: C_2  and  C_3 
REMARK    2  A    between atoms: C_3  and  N_4 
REMARK    3  A    between atoms: C_7  and  C_8 
REMARK       I    between atoms: C_8  and  N_9 
REMARK    4  A    between atoms: N_9  and  N_10 
REMARK       I    between atoms: N_10  and  C_11 
REMARK    5  A    between atoms: C_11  and  C_12 
REMARK    6  A    between atoms: C_15  and  O_16 
REMARK    7  A    between atoms: O_16  and  C_17 
REMARK    8  A    between atoms: C_23  and  C_24 
ROOT
HETATM    1  C   UNL     1      28.685  41.636  53.271  1.00  0.00     0.273 C 
HETATM    2  N   UNL     1      29.098  41.756  51.957  1.00  0.00    -0.263 N 
HETATM    3  O   UNL     1      28.228  40.579  53.699  1.00  0.00    -0.266 OA
HETATM    4  H   UNL     1      29.366  42.639  51.523  1.00  0.00     0.190 HD
ENDROOT
BRANCH   2   5
HETATM    5  N   UNL     1      28.973  40.652  51.107  1.00  0.00    -0.263 N 
HETATM    6  C   UNL     1      28.085  40.739  50.056  1.00  0.00     0.270 C 
HETATM    7  O   UNL     1      27.423  41.751  49.834  1.00  0.00    -0.266 OA
HETATM    8  H   UNL     1      29.399  39.785  51.430  1.00  0.00     0.190 HD
BRANCH   6   9
HETATM    9  C   UNL     1      27.943  39.529  49.201  1.00  0.00     0.033 A 
HETATM   10  C   UNL     1      26.654  39.080  48.892  1.00  0.00     0.020 A 
HETATM   11  C   UNL     1      26.479  37.956  48.081  1.00  0.00     0.038 A 
HETATM   12  C   UNL     1      27.581  37.274  47.558  1.00  0.00     0.068 A 
HETATM   13  C   UNL     1      28.867  37.725  47.858  1.00  0.00     0.038 A 
HETATM   14  C   UNL     1      29.050  38.850  48.674  1.00  0.00     0.020 A 
BRANCH  12  15
HETATM   15  O   UNL     1      27.267  36.199  46.775  1.00  0.00    -0.352 OA
BRANCH  15  16
HETATM   16  C   UNL     1      26.109  35.447  47.136  1.00  0.00     0.171 C 
HETATM   17  C   UNL     1      26.503  33.982  47.200  1.00  0.00     0.034 C 
ENDBRANCH  15  16
ENDBRANCH  12  15
ENDBRANCH   6   9
ENDBRANCH   2   5
BRANCH   1  18
HETATM   18  C   UNL     1      28.880  42.836  54.066  1.00  0.00     0.077 A 
HETATM   19  C   UNL     1      30.089  43.188  54.716  1.00  0.00     0.158 A 
HETATM   20  N   UNL     1      30.012  44.331  55.390  1.00  0.00    -0.183 NA
HETATM   21  N   UNL     1      28.731  44.715  55.223  1.00  0.00    -0.268 N 
HETATM   22  C   UNL     1      28.016  43.882  54.382  1.00  0.00     0.052 A 
BRANCH  21  23
HETATM   23  C   UNL     1      28.264  45.897  55.948  1.00  0.00     0.106 C 
HETATM   24  C   UNL     1      29.058  46.090  57.246  1.00  0.00     0.034 C 
BRANCH  23  25
HETATM   25  C   UNL     1      28.313  47.171  55.086  1.00  0.00     0.022 C 
HETATM   26  C   UNL     1      27.014  47.964  55.118  1.00  0.00     0.007 C 
ENDBRANCH  23  25
ENDBRANCH  21  23
BRANCH  22  27
HETATM   27  C   UNL     1      26.586  44.170  53.913  1.00  0.00     0.038 A 
HETATM   28  C   UNL     1      26.329  45.163  52.805  1.00  0.00     0.011 A 
HETATM   29  C   UNL     1      26.103  43.707  52.563  1.00  0.00     0.011 A 
ENDBRANCH  22  27
ENDBRANCH   1  18
TORSDOF 8
ENDMDL
MODEL 8
REMARK VINA RESULT:      -7.1      6.233      9.546
REMARK  8 active torsions:
REMARK  status: ('A' for Active; 'I' for Inactive)
REMARK    1  A    between atoms: C_2  and  C_3 
REMARK    2  A    between atoms: C_3  and  N_4 
REMARK    3  A    between atoms: C_7  and  C_8 
REMARK       I    between atoms: C_8  and  N_9 
REMARK    4  A    between atoms: N_9  and  N_10 
REMARK       I    between atoms: N_10  and  C_11 
REMARK    5  A    between atoms: C_11  and  C_12 
REMARK    6  A    between atoms: C_15  and  O_16 
REMARK    7  A    between atoms: O_16  and  C_17 
REMARK    8  A    between atoms: C_23  and  C_24 
ROOT
HETATM    1  C   UNL     1      27.855  42.144  52.944  1.00  0.00     0.273 C 
HETATM    2  N   UNL     1      28.140  42.386  51.612  1.00  0.00    -0.263 N 
HETATM    3  O   UNL     1      27.817  40.999  53.388  1.00  0.00    -0.266 OA
HETATM    4  H   UNL     1      28.062  43.301  51.171  1.00  0.00     0.190 HD
ENDROOT
BRANCH   2   5
HETATM    5  N   UNL     1      28.372  41.298  50.764  1.00  0.00    -0.263 N 
HETATM    6  C   UNL     1      27.887  41.365  49.475  1.00  0.00     0.270 C 
HETATM    7  O   UNL     1      27.283  42.346  49.048  1.00  0.00    -0.266 OA
HETATM    8  H   UNL     1      28.712  40.447  51.208  1.00  0.00     0.190 HD
BRANCH   6   9
HETATM    9  C   UNL     1      28.111  40.170  48.616  1.00  0.00     0.033 A 
HETATM   10  C   UNL     1      28.781  39.071  49.167  1.00  0.00     0.020 A 
HETATM   11  C   UNL     1      28.998  37.926  48.397  1.00  0.00     0.038 A 
HETATM   12  C   UNL     1      28.540  37.853  47.080  1.00  0.00     0.068 A 
HETATM   13  C   UNL     1      27.864  38.944  46.531  1.00  0.00     0.038 A 
HETATM   14  C   UNL     1      27.646  40.098  47.296  1.00  0.00     0.020 A 
BRANCH  12  15
HETATM   15  O   UNL     1      28.812  36.673  46.445  1.00  0.00    -0.352 OA
BRANCH  15  16
HETATM   16  C   UNL     1      29.606  36.739  45.261  1.00  0.00     0.171 C 
HETATM   17  C   UNL     1      28.786  36.172  44.116  1.00  0.00     0.034 C 
ENDBRANCH  15  16
ENDBRANCH  12  15
ENDBRANCH   6   9
ENDBRANCH   2   5
BRANCH   1  18
HETATM   18  C   UNL     1      27.652  43.346  53.734  1.00  0.00     0.077 A 
HETATM   19  C   UNL     1      26.392  43.938  53.998  1.00  0.00     0.158 A 
HETATM   20  N   UNL     1      26.471  45.038  54.738  1.00  0.00    -0.183 NA
HETATM   21  N   UNL     1      27.795  45.202  54.929  1.00  0.00    -0.268 N 
HETATM   22  C   UNL     1      28.554  44.176  54.396  1.00  0.00     0.052 A 
BRANCH  21  23
HETATM   23  C   UNL     1      28.251  46.410  55.616  1.00  0.00     0.106 C 
HETATM   24  C   UNL     1      27.372  47.612  55.247  1.00  0.00     0.034 C 
BRANCH  23  25
HETATM   25  C   UNL     1      28.310  46.229  57.144  1.00  0.00     0.022 C 
HETATM   26  C   UNL     1      29.727  46.035  57.667  1.00  0.00     0.007 C 
ENDBRANCH  23  25
ENDBRANCH  21  23
BRANCH  22  27
HETATM   27  C   UNL     1      30.068  44.045  54.595  1.00  0.00     0.038 A 
HETATM   28  C   UNL     1      30.623  43.140  55.669  1.00  0.00     0.011 A 
HETATM   29  C   UNL     1      30.793  42.775  54.231  1.00  0.00     0.011 A 
ENDBRANCH  22  27
ENDBRANCH   1  18
TORSDOF 8
ENDMDL
MODEL 9
REMARK VINA RESULT:      -7.0     13.153     15.783
REMARK  8 active torsions:
REMARK  status: ('A' for Active; 'I' for Inactive)
REMARK    1  A    between atoms: C_2  and  C_3 
REMARK    2  A    between atoms: C_3  and  N_4 
REMARK    3  A    between atoms: C_7  and  C_8 
REMARK       I    between atoms: C_8  and  N_9 
REMARK    4  A    between atoms: N_9  and  N_10 
REMARK       I    between atoms: N_10  and  C_11 
REMARK    5  A    between atoms: C_11  and  C_12 
REMARK    6  A    between atoms: C_15  and  O_16 
REMARK    7  A    between atoms: O_16  and  C_17 
REMARK    8  A    between atoms: C_23  and  C_24 
ROOT
HETATM    1  C   UNL     1      32.635  51.121  43.567  1.00  0.00     0.273 C 
HETATM    2  N   UNL     1      33.906  51.364  43.079  1.00  0.00    -0.263 N 
HETATM    3  O   UNL     1      32.276  51.566  44.654  1.00  0.00    -0.266 OA
HETATM    4  H   UNL     1      34.291  50.918  42.247  1.00  0.00     0.190 HD
ENDROOT
BRANCH   2   5
HETATM    5  N   UNL     1      34.793  52.118  43.854  1.00  0.00    -0.263 N 
HETATM    6  C   UNL     1      36.073  52.308  43.376  1.00  0.00     0.270 C 
HETATM    7  O   UNL     1      36.446  51.859  42.295  1.00  0.00    -0.266 OA
HETATM    8  H   UNL     1      34.501  52.313  44.810  1.00  0.00     0.190 HD
BRANCH   6   9
HETATM    9  C   UNL     1      37.003  53.075  44.250  1.00  0.00     0.033 A 
HETATM   10  C   UNL     1      37.450  52.475  45.433  1.00  0.00     0.020 A 
HETATM   11  C   UNL     1      38.335  53.156  46.272  1.00  0.00     0.038 A 
HETATM   12  C   UNL     1      38.796  54.432  45.940  1.00  0.00     0.068 A 
HETATM   13  C   UNL     1      38.358  55.029  44.757  1.00  0.00     0.038 A 
HETATM   14  C   UNL     1      37.467  54.353  43.911  1.00  0.00     0.020 A 
BRANCH  12  15
HETATM   15  O   UNL     1      39.662  54.980  46.844  1.00  0.00    -0.352 OA
BRANCH  15  16
HETATM   16  C   UNL     1      40.161  54.121  47.869  1.00  0.00     0.171 C 
HETATM   17  C   UNL     1      41.649  54.388  48.019  1.00  0.00     0.034 C 
ENDBRANCH  15  16
ENDBRANCH  12  15
ENDBRANCH   6   9
ENDBRANCH   2   5
BRANCH   1  18
HETATM   18  C   UNL     1      31.794  50.347  42.670  1.00  0.00     0.077 A 
HETATM   19  C   UNL     1      31.400  49.003  42.890  1.00  0.00     0.158 A 
HETATM   20  N   UNL     1      30.637  48.513  41.919  1.00  0.00    -0.183 NA
HETATM   21  N   UNL     1      30.563  49.522  41.029  1.00  0.00    -0.268 N 
HETATM   22  C   UNL     1      31.193  50.676  41.457  1.00  0.00     0.052 A 
BRANCH  21  23
HETATM   23  C   UNL     1      29.884  49.273  39.757  1.00  0.00     0.106 C 
HETATM   24  C   UNL     1      30.684  48.289  38.894  1.00  0.00     0.034 C 
BRANCH  23  25
HETATM   25  C   UNL     1      28.440  48.776  39.950  1.00  0.00     0.022 C 
HETATM   26  C   UNL     1      27.523  49.829  40.557  1.00  0.00     0.007 C 
ENDBRANCH  23  25
ENDBRANCH  21  23
BRANCH  22  27
HETATM   27  C   UNL     1      31.135  52.008  40.702  1.00  0.00     0.038 A 
HETATM   28  C   UNL     1      29.836  52.770  40.592  1.00  0.00     0.011 A 
HETATM   29  C   UNL     1      30.943  53.309  41.437  1.00  0.00     0.011 A 
ENDBRANCH  22  27
ENDBRANCH   1  18
TORSDOF 8
ENDMDL
MODEL 10
REMARK VINA RESULT:      -7.0      4.851      6.140
REMARK  8 active torsions:
REMARK  status: ('A' for Active; 'I' for Inactive)
REMARK    1  A    between atoms: C_2  and  C_3 
REMARK    2  A    between atoms: C_3  and  N_4 
REMARK    3  A    between atoms: C_7  and  C_8 
REMARK       I    between atoms: C_8  and  N_9 
REMARK    4  A    between atoms: N_9  and  N_10 
REMARK       I    between atoms: N_10  and  C_11 
REMARK    5  A    between atoms: C_11  and  C_12 
REMARK    6  A    between atoms: C_15  and  O_16 
REMARK    7  A    between atoms: O_16  and  C_17 
REMARK    8  A    between atoms: C_23  and  C_24 
ROOT
HETATM    1  C   UNL     1      26.786  44.849  52.966  1.00  0.00     0.273 C 
HETATM    2  N   UNL     1      25.970  43.737  53.067  1.00  0.00    -0.263 N 
HETATM    3  O   UNL     1      26.725  45.595  51.992  1.00  0.00    -0.266 OA
HETATM    4  H   UNL     1      26.067  43.024  53.788  1.00  0.00     0.190 HD
ENDROOT
BRANCH   2   5
HETATM    5  N   UNL     1      25.075  43.460  52.028  1.00  0.00    -0.263 N 
HETATM    6  C   UNL     1      25.453  42.542  51.072  1.00  0.00     0.270 C 
HETATM    7  O   UNL     1      26.530  41.951  51.116  1.00  0.00    -0.266 OA
HETATM    8  H   UNL     1      24.285  44.096  51.934  1.00  0.00     0.190 HD
BRANCH   6   9
HETATM    9  C   UNL     1      24.496  42.309  49.956  1.00  0.00     0.033 A 
HETATM   10  C   UNL     1      23.437  43.207  49.790  1.00  0.00     0.020 A 
HETATM   11  C   UNL     1      22.525  43.031  48.746  1.00  0.00     0.038 A 
HETATM   12  C   UNL     1      22.664  41.970  47.848  1.00  0.00     0.068 A 
HETATM   13  C   UNL     1      23.726  41.078  48.006  1.00  0.00     0.038 A 
HETATM   14  C   UNL     1      24.642  41.246  49.054  1.00  0.00     0.020 A 
BRANCH  12  15
HETATM   15  O   UNL     1      21.710  41.921  46.871  1.00  0.00    -0.352 OA
BRANCH  15  16
HETATM   16  C   UNL     1      21.569  43.072  46.039  1.00  0.00     0.171 C 
HETATM   17  C   UNL     1      20.098  43.445  46.003  1.00  0.00     0.034 C 
ENDBRANCH  15  16
ENDBRANCH  12  15
ENDBRANCH   6   9
ENDBRANCH   2   5
BRANCH   1  18
HETATM   18  C   UNL     1      27.659  45.049  54.110  1.00  0.00     0.077 A 
HETATM   19  C   UNL     1      27.387  45.922  55.193  1.00  0.00     0.158 A 
HETATM   20  N   UNL     1      28.346  45.936  56.111  1.00  0.00    -0.183 NA
HETATM   21  N   UNL     1      29.280  45.103  55.614  1.00  0.00    -0.268 N 
HETATM   22  C   UNL     1      28.893  44.491  54.435  1.00  0.00     0.052 A 
BRANCH  21  23
HETATM   23  C   UNL     1      30.549  44.979  56.331  1.00  0.00     0.106 C 
HETATM   24  C   UNL     1      30.439  45.572  57.741  1.00  0.00     0.034 C 
BRANCH  23  25
HETATM   25  C   UNL     1      31.049  43.524  56.391  1.00  0.00     0.022 C 
HETATM   26  C   UNL     1      32.184  43.324  57.386  1.00  0.00     0.007 C 
ENDBRANCH  23  25
ENDBRANCH  21  23
BRANCH  22  27
HETATM   27  C   UNL     1      29.706  43.395  53.739  1.00  0.00     0.038 A 
HETATM   28  C   UNL     1      29.109  42.027  53.509  1.00  0.00     0.011 A 
HETATM   29  C   UNL     1      29.356  42.932  52.348  1.00  0.00     0.011 A 
ENDBRANCH  22  27
ENDBRANCH   1  18
TORSDOF 8
ENDMDL
