MODEL 1
REMARK VINA RESULT:      -8.3      0.000      0.000
REMARK  8 active torsions:
REMARK  status: ('A' for Active; 'I' for Inactive)
REMARK    1  A    between atoms: C_3  and  O_4 
REMARK    2  A    between atoms: C_11  and  C_12 
REMARK    3  A    between atoms: C_12  and  C_13 
REMARK    4  A    between atoms: C_13  and  S_14 
REMARK    5  A    between atoms: S_14  and  C_15 
REMARK    6  A    between atoms: N_16  and  C_17 
REMARK    7  A    between atoms: C_17  and  C_18 
REMARK    8  A    between atoms: C_24  and  C_25 
ROOT
HETATM    1  C   UNL     1      28.186  50.612  38.270  1.00  0.00     0.192 A 
HETATM    2  N   UNL     1      28.942  49.506  38.561  1.00  0.00    -0.303 N 
HETATM    3  C   UNL     1      28.077  48.431  38.465  1.00  0.00     0.166 A 
HETATM    4  N   UNL     1      26.887  48.890  38.112  1.00  0.00    -0.128 NA
HETATM    5  N   UNL     1      26.953  50.253  38.008  1.00  0.00    -0.122 NA
ENDROOT
BRANCH   1   6
HETATM    6  S   UNL     1      28.781  52.234  38.259  1.00  0.00    -0.082 SA
BRANCH   6   7
HETATM    7  C   UNL     1      28.696  52.607  40.035  1.00  0.00     0.166 C 
BRANCH   7   8
HETATM    8  C   UNL     1      29.860  53.463  40.500  1.00  0.00     0.169 C 
HETATM    9  O   UNL     1      29.998  54.649  40.205  1.00  0.00    -0.291 OA
BRANCH   8  10
HETATM   10  C   UNL     1      30.910  52.809  41.346  1.00  0.00     0.011 A 
HETATM   11  C   UNL     1      30.749  52.627  42.725  1.00  0.00     0.017 A 
HETATM   12  C   UNL     1      31.753  52.031  43.499  1.00  0.00     0.031 A 
HETATM   13  C   UNL     1      32.918  51.620  42.846  1.00  0.00     0.045 A 
HETATM   14  N   UNL     1      34.049  51.019  43.344  1.00  0.00    -0.336 N 
HETATM   15  C   UNL     1      33.112  51.769  41.474  1.00  0.00     0.002 A 
HETATM   16  C   UNL     1      34.947  50.777  42.343  1.00  0.00     0.147 A 
HETATM   17  H   UNL     1      34.208  50.780  44.311  1.00  0.00     0.168 HD
HETATM   18  C   UNL     1      34.403  51.231  41.156  1.00  0.00     0.001 A 
HETATM   19  C   UNL     1      35.010  51.173  39.800  1.00  0.00     0.054 C 
HETATM   20  C   UNL     1      32.088  52.371  40.714  1.00  0.00     0.029 A 
BRANCH  16  21
HETATM   21  O   UNL     1      36.097  50.193  42.641  1.00  0.00    -0.346 OA
HETATM   22  H   UNL     1      36.783  50.590  42.075  1.00  0.00     0.219 HD
ENDBRANCH  16  21
ENDBRANCH   8  10
ENDBRANCH   7   8
ENDBRANCH   6   7
ENDBRANCH   1   6
BRANCH   2  23
HETATM   23  C   UNL     1      30.383  49.458  38.747  1.00  0.00     0.171 C 
BRANCH  23  24
HETATM   24  C   UNL     1      30.822  49.076  40.143  1.00  0.00    -0.040 A 
HETATM   25  C   UNL     1      32.046  48.447  40.420  1.00  0.00     0.009 A 
HETATM   26  C   UNL     1      32.387  48.093  41.728  1.00  0.00     0.001 A 
HETATM   27  C   UNL     1      31.504  48.345  42.774  1.00  0.00     0.000 A 
HETATM   28  C   UNL     1      30.277  48.948  42.516  1.00  0.00     0.001 A 
HETATM   29  C   UNL     1      29.937  49.307  41.210  1.00  0.00     0.009 A 
ENDBRANCH  23  24
ENDBRANCH   2  23
BRANCH   3  30
HETATM   30  C   UNL     1      28.394  47.019  38.631  1.00  0.00     0.029 A 
HETATM   31  C   UNL     1      28.237  46.339  39.834  1.00  0.00     0.131 A 
HETATM   32  N   UNL     1      28.519  45.024  40.012  1.00  0.00    -0.272 NA
HETATM   33  C   UNL     1      28.941  44.341  38.928  1.00  0.00     0.116 A 
HETATM   34  C   UNL     1      29.101  44.910  37.677  1.00  0.00     0.020 A 
HETATM   35  C   UNL     1      28.821  46.267  37.531  1.00  0.00     0.018 A 
ENDBRANCH   3  30
TORSDOF 8
ENDMDL
MODEL 2
REMARK VINA RESULT:      -8.2      1.169      2.068
REMARK  8 active torsions:
REMARK  status: ('A' for Active; 'I' for Inactive)
REMARK    1  A    between atoms: C_3  and  O_4 
REMARK    2  A    between atoms: C_11  and  C_12 
REMARK    3  A    between atoms: C_12  and  C_13 
REMARK    4  A    between atoms: C_13  and  S_14 
REMARK    5  A    between atoms: S_14  and  C_15 
REMARK    6  A    between atoms: N_16  and  C_17 
REMARK    7  A    between atoms: C_17  and  C_18 
REMARK    8  A    between atoms: C_24  and  C_25 
ROOT
HETATM    1  C   UNL     1      27.350  50.336  38.580  1.00  0.00     0.192 A 
HETATM    2  N   UNL     1      28.047  49.177  38.798  1.00  0.00    -0.303 N 
HETATM    3  C   UNL     1      27.087  48.199  38.985  1.00  0.00     0.166 A 
HETATM    4  N   UNL     1      25.896  48.760  38.857  1.00  0.00    -0.128 NA
HETATM    5  N   UNL     1      26.062  50.099  38.622  1.00  0.00    -0.122 NA
ENDROOT
BRANCH   1   6
HETATM    6  S   UNL     1      28.076  51.880  38.299  1.00  0.00    -0.082 SA
BRANCH   6   7
HETATM    7  C   UNL     1      28.454  52.361  40.010  1.00  0.00     0.166 C 
BRANCH   7   8
HETATM    8  C   UNL     1      29.705  53.215  40.103  1.00  0.00     0.169 C 
HETATM    9  O   UNL     1      29.695  54.445  40.112  1.00  0.00    -0.291 OA
BRANCH   8  10
HETATM   10  C   UNL     1      31.026  52.511  40.164  1.00  0.00     0.011 A 
HETATM   11  C   UNL     1      31.662  52.019  39.017  1.00  0.00     0.017 A 
HETATM   12  C   UNL     1      32.887  51.346  39.100  1.00  0.00     0.031 A 
HETATM   13  C   UNL     1      33.457  51.188  40.367  1.00  0.00     0.045 A 
HETATM   14  N   UNL     1      34.629  50.578  40.742  1.00  0.00    -0.336 N 
HETATM   15  C   UNL     1      32.865  51.675  41.531  1.00  0.00     0.002 A 
HETATM   16  C   UNL     1      34.806  50.666  42.094  1.00  0.00     0.147 A 
HETATM   17  H   UNL     1      35.281  50.128  40.118  1.00  0.00     0.168 HD
HETATM   18  C   UNL     1      33.726  51.343  42.628  1.00  0.00     0.001 A 
HETATM   19  C   UNL     1      33.486  51.685  44.055  1.00  0.00     0.054 C 
HETATM   20  C   UNL     1      31.631  52.350  41.423  1.00  0.00     0.029 A 
BRANCH  16  21
HETATM   21  O   UNL     1      35.893  50.136  42.635  1.00  0.00    -0.346 OA
HETATM   22  H   UNL     1      36.615  50.781  42.534  1.00  0.00     0.219 HD
ENDBRANCH  16  21
ENDBRANCH   8  10
ENDBRANCH   7   8
ENDBRANCH   6   7
ENDBRANCH   1   6
BRANCH   2  23
HETATM   23  C   UNL     1      29.483  48.983  38.673  1.00  0.00     0.171 C 
BRANCH  23  24
HETATM   24  C   UNL     1      30.200  48.747  39.983  1.00  0.00    -0.040 A 
HETATM   25  C   UNL     1      29.722  49.213  41.218  1.00  0.00     0.009 A 
HETATM   26  C   UNL     1      30.443  48.988  42.393  1.00  0.00     0.001 A 
HETATM   27  C   UNL     1      31.658  48.310  42.351  1.00  0.00     0.000 A 
HETATM   28  C   UNL     1      32.158  47.861  41.133  1.00  0.00     0.001 A 
HETATM   29  C   UNL     1      31.438  48.081  39.957  1.00  0.00     0.009 A 
ENDBRANCH  23  24
ENDBRANCH   2  23
BRANCH   3  30
HETATM   30  C   UNL     1      27.302  46.774  39.202  1.00  0.00     0.029 A 
HETATM   31  C   UNL     1      27.478  45.864  38.165  1.00  0.00     0.131 A 
HETATM   32  N   UNL     1      27.687  44.535  38.341  1.00  0.00    -0.272 NA
HETATM   33  C   UNL     1      27.763  44.095  39.614  1.00  0.00     0.116 A 
HETATM   34  C   UNL     1      27.634  44.918  40.719  1.00  0.00     0.020 A 
HETATM   35  C   UNL     1      27.402  46.275  40.505  1.00  0.00     0.018 A 
ENDBRANCH   3  30
TORSDOF 8
ENDMDL
MODEL 3
REMARK VINA RESULT:      -8.2     11.783     14.044
REMARK  8 active torsions:
REMARK  status: ('A' for Active; 'I' for Inactive)
REMARK    1  A    between atoms: C_3  and  O_4 
REMARK    2  A    between atoms: C_11  and  C_12 
REMARK    3  A    between atoms: C_12  and  C_13 
REMARK    4  A    between atoms: C_13  and  S_14 
REMARK    5  A    between atoms: S_14  and  C_15 
REMARK    6  A    between atoms: N_16  and  C_17 
REMARK    7  A    between atoms: C_17  and  C_18 
REMARK    8  A    between atoms: C_24  and  C_25 
ROOT
HETATM    1  C   UNL     1      25.844  46.248  50.304  1.00  0.00     0.192 A 
HETATM    2  N   UNL     1      26.055  45.354  51.321  1.00  0.00    -0.303 N 
HETATM    3  C   UNL     1      27.043  44.501  50.865  1.00  0.00     0.166 A 
HETATM    4  N   UNL     1      27.402  44.896  49.654  1.00  0.00    -0.128 NA
HETATM    5  N   UNL     1      26.640  45.976  49.298  1.00  0.00    -0.122 NA
ENDROOT
BRANCH   1   6
HETATM    6  S   UNL     1      24.691  47.535  50.349  1.00  0.00    -0.082 SA
BRANCH   6   7
HETATM    7  C   UNL     1      25.514  48.727  49.252  1.00  0.00     0.166 C 
BRANCH   7   8
HETATM    8  C   UNL     1      24.527  49.481  48.379  1.00  0.00     0.169 C 
HETATM    9  O   UNL     1      24.840  50.072  47.346  1.00  0.00    -0.291 OA
BRANCH   8  10
HETATM   10  C   UNL     1      23.097  49.523  48.822  1.00  0.00     0.011 A 
HETATM   11  C   UNL     1      22.551  50.636  49.475  1.00  0.00     0.017 A 
HETATM   12  C   UNL     1      21.216  50.645  49.897  1.00  0.00     0.031 A 
HETATM   13  C   UNL     1      20.446  49.507  49.640  1.00  0.00     0.045 A 
HETATM   14  N   UNL     1      19.131  49.240  49.939  1.00  0.00    -0.336 N 
HETATM   15  C   UNL     1      20.945  48.386  48.981  1.00  0.00     0.002 A 
HETATM   16  C   UNL     1      18.778  47.999  49.489  1.00  0.00     0.147 A 
HETATM   17  H   UNL     1      18.501  49.865  50.419  1.00  0.00     0.168 HD
HETATM   18  C   UNL     1      19.882  47.428  48.885  1.00  0.00     0.001 A 
HETATM   19  C   UNL     1      19.973  46.091  48.242  1.00  0.00     0.054 C 
HETATM   20  C   UNL     1      22.292  48.399  48.564  1.00  0.00     0.029 A 
BRANCH  16  21
HETATM   21  O   UNL     1      17.539  47.575  49.685  1.00  0.00    -0.346 OA
HETATM   22  H   UNL     1      17.591  46.668  50.035  1.00  0.00     0.219 HD
ENDBRANCH  16  21
ENDBRANCH   8  10
ENDBRANCH   7   8
ENDBRANCH   6   7
ENDBRANCH   1   6
BRANCH   2  23
HETATM   23  C   UNL     1      25.494  45.408  52.661  1.00  0.00     0.171 C 
BRANCH  23  24
HETATM   24  C   UNL     1      26.462  45.865  53.729  1.00  0.00    -0.040 A 
HETATM   25  C   UNL     1      27.024  45.000  54.681  1.00  0.00     0.009 A 
HETATM   26  C   UNL     1      27.894  45.484  55.661  1.00  0.00     0.001 A 
HETATM   27  C   UNL     1      28.200  46.841  55.716  1.00  0.00     0.000 A 
HETATM   28  C   UNL     1      27.636  47.717  54.795  1.00  0.00     0.001 A 
HETATM   29  C   UNL     1      26.770  47.234  53.812  1.00  0.00     0.009 A 
ENDBRANCH  23  24
ENDBRANCH   2  23
BRANCH   3  30
HETATM   30  C   UNL     1      27.669  43.400  51.587  1.00  0.00     0.029 A 
HETATM   31  C   UNL     1      27.104  42.133  51.680  1.00  0.00     0.131 A 
HETATM   32  N   UNL     1      27.669  41.091  52.340  1.00  0.00    -0.272 NA
HETATM   33  C   UNL     1      28.876  41.310  52.902  1.00  0.00     0.116 A 
HETATM   34  C   UNL     1      29.541  42.522  52.842  1.00  0.00     0.020 A 
HETATM   35  C   UNL     1      28.926  43.577  52.173  1.00  0.00     0.018 A 
ENDBRANCH   3  30
TORSDOF 8
ENDMDL
MODEL 4
REMARK VINA RESULT:      -8.2     11.498     13.420
REMARK  8 active torsions:
REMARK  status: ('A' for Active; 'I' for Inactive)
REMARK    1  A    between atoms: C_3  and  O_4 
REMARK    2  A    between atoms: C_11  and  C_12 
REMARK    3  A    between atoms: C_12  and  C_13 
REMARK    4  A    between atoms: C_13  and  S_14 
REMARK    5  A    between atoms: S_14  and  C_15 
REMARK    6  A    between atoms: N_16  and  C_17 
REMARK    7  A    between atoms: C_17  and  C_18 
REMARK    8  A    between atoms: C_24  and  C_25 
ROOT
HETATM    1  C   UNL     1      23.217  45.785  48.588  1.00  0.00     0.192 A 
HETATM    2  N   UNL     1      23.077  47.061  49.067  1.00  0.00    -0.303 N 
HETATM    3  C   UNL     1      21.902  47.537  48.513  1.00  0.00     0.166 A 
HETATM    4  N   UNL     1      21.378  46.576  47.771  1.00  0.00    -0.128 NA
HETATM    5  N   UNL     1      22.209  45.489  47.804  1.00  0.00    -0.122 NA
ENDROOT
BRANCH   1   6
HETATM    6  S   UNL     1      24.537  44.733  48.963  1.00  0.00    -0.082 SA
BRANCH   6   7
HETATM    7  C   UNL     1      24.152  44.360  50.700  1.00  0.00     0.166 C 
BRANCH   7   8
HETATM    8  C   UNL     1      25.321  43.717  51.423  1.00  0.00     0.169 C 
HETATM    9  O   UNL     1      25.707  42.568  51.213  1.00  0.00    -0.291 OA
BRANCH   8  10
HETATM   10  C   UNL     1      26.024  44.528  52.468  1.00  0.00     0.011 A 
HETATM   11  C   UNL     1      25.557  45.784  52.876  1.00  0.00     0.017 A 
HETATM   12  C   UNL     1      26.242  46.533  53.841  1.00  0.00     0.031 A 
HETATM   13  C   UNL     1      27.405  45.981  54.386  1.00  0.00     0.045 A 
HETATM   14  N   UNL     1      28.266  46.484  55.332  1.00  0.00    -0.336 N 
HETATM   15  C   UNL     1      27.895  44.730  54.019  1.00  0.00     0.002 A 
HETATM   16  C   UNL     1      29.276  45.598  55.582  1.00  0.00     0.147 A 
HETATM   17  H   UNL     1      28.176  47.378  55.790  1.00  0.00     0.168 HD
HETATM   18  C   UNL     1      29.085  44.488  54.782  1.00  0.00     0.001 A 
HETATM   19  C   UNL     1      29.926  43.263  54.715  1.00  0.00     0.054 C 
HETATM   20  C   UNL     1      27.189  43.993  53.046  1.00  0.00     0.029 A 
BRANCH  16  21
HETATM   21  O   UNL     1      30.200  45.915  56.477  1.00  0.00    -0.346 OA
HETATM   22  H   UNL     1      31.064  45.659  56.110  1.00  0.00     0.219 HD
ENDBRANCH  16  21
ENDBRANCH   8  10
ENDBRANCH   7   8
ENDBRANCH   6   7
ENDBRANCH   1   6
BRANCH   2  23
HETATM   23  C   UNL     1      23.891  47.706  50.085  1.00  0.00     0.171 C 
BRANCH  23  24
HETATM   24  C   UNL     1      25.163  48.336  49.565  1.00  0.00    -0.040 A 
HETATM   25  C   UNL     1      26.445  47.922  49.959  1.00  0.00     0.009 A 
HETATM   26  C   UNL     1      27.585  48.560  49.464  1.00  0.00     0.001 A 
HETATM   27  C   UNL     1      27.461  49.632  48.585  1.00  0.00     0.000 A 
HETATM   28  C   UNL     1      26.198  50.071  48.201  1.00  0.00     0.001 A 
HETATM   29  C   UNL     1      25.058  49.431  48.690  1.00  0.00     0.009 A 
ENDBRANCH  23  24
ENDBRANCH   2  23
BRANCH   3  30
HETATM   30  C   UNL     1      21.272  48.830  48.746  1.00  0.00     0.029 A 
HETATM   31  C   UNL     1      20.228  49.017  49.645  1.00  0.00     0.131 A 
HETATM   32  N   UNL     1      19.629  50.211  49.884  1.00  0.00    -0.272 NA
HETATM   33  C   UNL     1      20.120  51.280  49.224  1.00  0.00     0.116 A 
HETATM   34  C   UNL     1      21.176  51.212  48.332  1.00  0.00     0.020 A 
HETATM   35  C   UNL     1      21.757  49.969  48.094  1.00  0.00     0.018 A 
ENDBRANCH   3  30
TORSDOF 8
ENDMDL
MODEL 5
REMARK VINA RESULT:      -8.0     13.441     15.743
REMARK  8 active torsions:
REMARK  status: ('A' for Active; 'I' for Inactive)
REMARK    1  A    between atoms: C_3  and  O_4 
REMARK    2  A    between atoms: C_11  and  C_12 
REMARK    3  A    between atoms: C_12  and  C_13 
REMARK    4  A    between atoms: C_13  and  S_14 
REMARK    5  A    between atoms: S_14  and  C_15 
REMARK    6  A    between atoms: N_16  and  C_17 
REMARK    7  A    between atoms: C_17  and  C_18 
REMARK    8  A    between atoms: C_24  and  C_25 
ROOT
HETATM    1  C   UNL     1      19.637  46.694  47.503  1.00  0.00     0.192 A 
HETATM    2  N   UNL     1      20.354  47.546  48.302  1.00  0.00    -0.303 N 
HETATM    3  C   UNL     1      21.610  47.623  47.727  1.00  0.00     0.166 A 
HETATM    4  N   UNL     1      21.612  46.872  46.638  1.00  0.00    -0.128 NA
HETATM    5  N   UNL     1      20.385  46.278  46.510  1.00  0.00    -0.122 NA
ENDROOT
BRANCH   1   6
HETATM    6  S   UNL     1      17.994  46.237  47.780  1.00  0.00    -0.082 SA
BRANCH   6   7
HETATM    7  C   UNL     1      17.145  47.592  46.916  1.00  0.00     0.166 C 
BRANCH   7   8
HETATM    8  C   UNL     1      16.151  48.311  47.810  1.00  0.00     0.169 C 
HETATM    9  O   UNL     1      15.581  47.782  48.762  1.00  0.00    -0.291 OA
BRANCH   8  10
HETATM   10  C   UNL     1      15.835  49.740  47.490  1.00  0.00     0.011 A 
HETATM   11  C   UNL     1      15.764  50.212  46.173  1.00  0.00     0.017 A 
HETATM   12  C   UNL     1      15.486  51.556  45.899  1.00  0.00     0.031 A 
HETATM   13  C   UNL     1      15.276  52.410  46.985  1.00  0.00     0.045 A 
HETATM   14  N   UNL     1      14.993  53.755  47.015  1.00  0.00    -0.336 N 
HETATM   15  C   UNL     1      15.323  51.979  48.310  1.00  0.00     0.002 A 
HETATM   16  C   UNL     1      14.852  54.189  48.303  1.00  0.00     0.147 A 
HETATM   17  H   UNL     1      14.895  54.350  46.207  1.00  0.00     0.168 HD
HETATM   18  C   UNL     1      15.051  53.112  49.146  1.00  0.00     0.001 A 
HETATM   19  C   UNL     1      14.990  53.100  50.632  1.00  0.00     0.054 C 
HETATM   20  C   UNL     1      15.604  50.620  48.562  1.00  0.00     0.029 A 
BRANCH  16  21
HETATM   21  O   UNL     1      14.569  55.464  48.522  1.00  0.00    -0.346 OA
HETATM   22  H   UNL     1      14.044  55.511  49.341  1.00  0.00     0.219 HD
ENDBRANCH  16  21
ENDBRANCH   8  10
ENDBRANCH   7   8
ENDBRANCH   6   7
ENDBRANCH   1   6
BRANCH   2  23
HETATM   23  C   UNL     1      19.846  48.343  49.407  1.00  0.00     0.171 C 
BRANCH  23  24
HETATM   24  C   UNL     1      19.459  49.757  49.034  1.00  0.00    -0.040 A 
HETATM   25  C   UNL     1      19.449  50.230  47.713  1.00  0.00     0.009 A 
HETATM   26  C   UNL     1      19.108  51.555  47.432  1.00  0.00     0.001 A 
HETATM   27  C   UNL     1      18.790  52.431  48.466  1.00  0.00     0.000 A 
HETATM   28  C   UNL     1      18.816  51.986  49.784  1.00  0.00     0.001 A 
HETATM   29  C   UNL     1      19.152  50.660  50.067  1.00  0.00     0.009 A 
ENDBRANCH  23  24
ENDBRANCH   2  23
BRANCH   3  30
HETATM   30  C   UNL     1      22.737  48.439  48.161  1.00  0.00     0.029 A 
HETATM   31  C   UNL     1      23.704  47.989  49.053  1.00  0.00     0.131 A 
HETATM   32  N   UNL     1      24.765  48.726  49.467  1.00  0.00    -0.272 NA
HETATM   33  C   UNL     1      24.892  49.960  48.937  1.00  0.00     0.116 A 
HETATM   34  C   UNL     1      24.006  50.494  48.017  1.00  0.00     0.020 A 
HETATM   35  C   UNL     1      22.916  49.719  47.627  1.00  0.00     0.018 A 
ENDBRANCH   3  30
TORSDOF 8
ENDMDL
MODEL 6
REMARK VINA RESULT:      -7.9     12.284     14.152
REMARK  8 active torsions:
REMARK  status: ('A' for Active; 'I' for Inactive)
REMARK    1  A    between atoms: C_3  and  O_4 
REMARK    2  A    between atoms: C_11  and  C_12 
REMARK    3  A    between atoms: C_12  and  C_13 
REMARK    4  A    between atoms: C_13  and  S_14 
REMARK    5  A    between atoms: S_14  and  C_15 
REMARK    6  A    between atoms: N_16  and  C_17 
REMARK    7  A    between atoms: C_17  and  C_18 
REMARK    8  A    between atoms: C_24  and  C_25 
ROOT
HETATM    1  C   UNL     1      23.081  48.311  49.383  1.00  0.00     0.192 A 
HETATM    2  N   UNL     1      21.733  48.554  49.350  1.00  0.00    -0.303 N 
HETATM    3  C   UNL     1      21.604  49.931  49.412  1.00  0.00     0.166 A 
HETATM    4  N   UNL     1      22.817  50.456  49.454  1.00  0.00    -0.128 NA
HETATM    5  N   UNL     1      23.738  49.443  49.455  1.00  0.00    -0.122 NA
ENDROOT
BRANCH   1   6
HETATM    6  S   UNL     1      23.797  46.739  49.344  1.00  0.00    -0.082 SA
BRANCH   6   7
HETATM    7  C   UNL     1      24.966  46.896  50.726  1.00  0.00     0.166 C 
BRANCH   7   8
HETATM    8  C   UNL     1      24.961  45.673  51.626  1.00  0.00     0.169 C 
HETATM    9  O   UNL     1      24.140  44.761  51.535  1.00  0.00    -0.291 OA
BRANCH   8  10
HETATM   10  C   UNL     1      26.003  45.594  52.699  1.00  0.00     0.011 A 
HETATM   11  C   UNL     1      26.044  46.498  53.768  1.00  0.00     0.017 A 
HETATM   12  C   UNL     1      27.040  46.416  54.748  1.00  0.00     0.031 A 
HETATM   13  C   UNL     1      27.989  45.397  54.627  1.00  0.00     0.045 A 
HETATM   14  N   UNL     1      29.062  45.084  55.426  1.00  0.00    -0.336 N 
HETATM   15  C   UNL     1      27.976  44.468  53.587  1.00  0.00     0.002 A 
HETATM   16  C   UNL     1      29.723  43.992  54.938  1.00  0.00     0.147 A 
HETATM   17  H   UNL     1      29.334  45.580  56.261  1.00  0.00     0.168 HD
HETATM   18  C   UNL     1      29.080  43.575  53.789  1.00  0.00     0.001 A 
HETATM   19  C   UNL     1      29.433  42.422  52.920  1.00  0.00     0.054 C 
HETATM   20  C   UNL     1      26.963  44.569  52.611  1.00  0.00     0.029 A 
BRANCH  16  21
HETATM   21  O   UNL     1      30.785  43.543  55.590  1.00  0.00    -0.346 OA
HETATM   22  H   UNL     1      31.352  44.308  55.791  1.00  0.00     0.219 HD
ENDBRANCH  16  21
ENDBRANCH   8  10
ENDBRANCH   7   8
ENDBRANCH   6   7
ENDBRANCH   1   6
BRANCH   2  23
HETATM   23  C   UNL     1      20.676  47.585  49.112  1.00  0.00     0.171 C 
BRANCH  23  24
HETATM   24  C   UNL     1      20.265  47.449  47.663  1.00  0.00    -0.040 A 
HETATM   25  C   UNL     1      19.207  48.172  47.092  1.00  0.00     0.009 A 
HETATM   26  C   UNL     1      18.855  47.985  45.753  1.00  0.00     0.001 A 
HETATM   27  C   UNL     1      19.542  47.060  44.971  1.00  0.00     0.000 A 
HETATM   28  C   UNL     1      20.578  46.318  45.527  1.00  0.00     0.001 A 
HETATM   29  C   UNL     1      20.935  46.507  46.863  1.00  0.00     0.009 A 
ENDBRANCH  23  24
ENDBRANCH   2  23
BRANCH   3  30
HETATM   30  C   UNL     1      20.374  50.710  49.357  1.00  0.00     0.029 A 
HETATM   31  C   UNL     1      19.322  50.536  50.249  1.00  0.00     0.131 A 
HETATM   32  N   UNL     1      18.171  51.253  50.224  1.00  0.00    -0.272 NA
HETATM   33  C   UNL     1      18.077  52.219  49.287  1.00  0.00     0.116 A 
HETATM   34  C   UNL     1      19.077  52.499  48.372  1.00  0.00     0.020 A 
HETATM   35  C   UNL     1      20.239  51.732  48.412  1.00  0.00     0.018 A 
ENDBRANCH   3  30
TORSDOF 8
ENDMDL
MODEL 7
REMARK VINA RESULT:      -7.8     11.737     13.981
REMARK  8 active torsions:
REMARK  status: ('A' for Active; 'I' for Inactive)
REMARK    1  A    between atoms: C_3  and  O_4 
REMARK    2  A    between atoms: C_11  and  C_12 
REMARK    3  A    between atoms: C_12  and  C_13 
REMARK    4  A    between atoms: C_13  and  S_14 
REMARK    5  A    between atoms: S_14  and  C_15 
REMARK    6  A    between atoms: N_16  and  C_17 
REMARK    7  A    between atoms: C_17  and  C_18 
REMARK    8  A    between atoms: C_24  and  C_25 
ROOT
HETATM    1  C   UNL     1      25.722  46.413  50.398  1.00  0.00     0.192 A 
HETATM    2  N   UNL     1      25.955  45.437  51.332  1.00  0.00    -0.303 N 
HETATM    3  C   UNL     1      26.908  44.607  50.769  1.00  0.00     0.166 A 
HETATM    4  N   UNL     1      27.226  45.092  49.580  1.00  0.00    -0.128 NA
HETATM    5  N   UNL     1      26.472  46.209  49.343  1.00  0.00    -0.122 NA
ENDROOT
BRANCH   1   6
HETATM    6  S   UNL     1      24.596  47.710  50.593  1.00  0.00    -0.082 SA
BRANCH   6   7
HETATM    7  C   UNL     1      23.823  47.699  48.948  1.00  0.00     0.166 C 
BRANCH   7   8
HETATM    8  C   UNL     1      23.702  49.093  48.360  1.00  0.00     0.169 C 
HETATM    9  O   UNL     1      24.554  49.607  47.636  1.00  0.00    -0.291 OA
BRANCH   8  10
HETATM   10  C   UNL     1      22.482  49.891  48.707  1.00  0.00     0.011 A 
HETATM   11  C   UNL     1      22.320  50.499  49.958  1.00  0.00     0.017 A 
HETATM   12  C   UNL     1      21.162  51.224  50.266  1.00  0.00     0.031 A 
HETATM   13  C   UNL     1      20.176  51.323  49.280  1.00  0.00     0.045 A 
HETATM   14  N   UNL     1      18.958  51.958  49.305  1.00  0.00    -0.336 N 
HETATM   15  C   UNL     1      20.304  50.745  48.018  1.00  0.00     0.002 A 
HETATM   16  C   UNL     1      18.314  51.811  48.108  1.00  0.00     0.147 A 
HETATM   17  H   UNL     1      18.579  52.469  50.088  1.00  0.00     0.168 HD
HETATM   18  C   UNL     1      19.119  51.058  47.275  1.00  0.00     0.001 A 
HETATM   19  C   UNL     1      18.840  50.650  45.872  1.00  0.00     0.054 C 
HETATM   20  C   UNL     1      21.479  50.021  47.729  1.00  0.00     0.029 A 
BRANCH  16  21
HETATM   21  O   UNL     1      17.122  52.367  47.949  1.00  0.00    -0.346 OA
HETATM   22  H   UNL     1      16.786  52.598  48.833  1.00  0.00     0.219 HD
ENDBRANCH  16  21
ENDBRANCH   8  10
ENDBRANCH   7   8
ENDBRANCH   6   7
ENDBRANCH   1   6
BRANCH   2  23
HETATM   23  C   UNL     1      25.448  45.393  52.694  1.00  0.00     0.171 C 
BRANCH  23  24
HETATM   24  C   UNL     1      26.411  45.912  53.738  1.00  0.00    -0.040 A 
HETATM   25  C   UNL     1      26.775  47.263  53.846  1.00  0.00     0.009 A 
HETATM   26  C   UNL     1      27.691  47.681  54.815  1.00  0.00     0.001 A 
HETATM   27  C   UNL     1      28.269  46.754  55.678  1.00  0.00     0.000 A 
HETATM   28  C   UNL     1      27.937  45.408  55.571  1.00  0.00     0.001 A 
HETATM   29  C   UNL     1      27.019  44.989  54.606  1.00  0.00     0.009 A 
ENDBRANCH  23  24
ENDBRANCH   2  23
BRANCH   3  30
HETATM   30  C   UNL     1      27.540  43.443  51.375  1.00  0.00     0.029 A 
HETATM   31  C   UNL     1      27.049  42.150  51.233  1.00  0.00     0.131 A 
HETATM   32  N   UNL     1      27.623  41.049  51.781  1.00  0.00    -0.272 NA
HETATM   33  C   UNL     1      28.765  41.240  52.473  1.00  0.00     0.116 A 
HETATM   34  C   UNL     1      29.357  42.478  52.649  1.00  0.00     0.020 A 
HETATM   35  C   UNL     1      28.734  43.591  52.090  1.00  0.00     0.018 A 
ENDBRANCH   3  30
TORSDOF 8
ENDMDL
MODEL 8
REMARK VINA RESULT:      -7.8      3.377      7.914
REMARK  8 active torsions:
REMARK  status: ('A' for Active; 'I' for Inactive)
REMARK    1  A    between atoms: C_3  and  O_4 
REMARK    2  A    between atoms: C_11  and  C_12 
REMARK    3  A    between atoms: C_12  and  C_13 
REMARK    4  A    between atoms: C_13  and  S_14 
REMARK    5  A    between atoms: S_14  and  C_15 
REMARK    6  A    between atoms: N_16  and  C_17 
REMARK    7  A    between atoms: C_17  and  C_18 
REMARK    8  A    between atoms: C_24  and  C_25 
ROOT
HETATM    1  C   UNL     1      31.462  47.835  39.904  1.00  0.00     0.192 A 
HETATM    2  N   UNL     1      31.944  49.081  40.211  1.00  0.00    -0.303 N 
HETATM    3  C   UNL     1      32.839  48.885  41.248  1.00  0.00     0.166 A 
HETATM    4  N   UNL     1      32.890  47.589  41.509  1.00  0.00    -0.128 NA
HETATM    5  N   UNL     1      32.017  46.937  40.681  1.00  0.00    -0.122 NA
ENDROOT
BRANCH   1   6
HETATM    6  S   UNL     1      30.292  47.510  38.674  1.00  0.00    -0.082 SA
BRANCH   6   7
HETATM    7  C   UNL     1      29.014  46.690  39.672  1.00  0.00     0.166 C 
BRANCH   7   8
HETATM    8  C   UNL     1      28.192  47.678  40.480  1.00  0.00     0.169 C 
HETATM    9  O   UNL     1      28.317  47.840  41.693  1.00  0.00    -0.291 OA
BRANCH   8  10
HETATM   10  C   UNL     1      27.156  48.479  39.753  1.00  0.00     0.011 A 
HETATM   11  C   UNL     1      27.495  49.456  38.809  1.00  0.00     0.017 A 
HETATM   12  C   UNL     1      26.509  50.207  38.157  1.00  0.00     0.031 A 
HETATM   13  C   UNL     1      25.174  49.943  38.477  1.00  0.00     0.045 A 
HETATM   14  N   UNL     1      24.019  50.516  38.004  1.00  0.00    -0.336 N 
HETATM   15  C   UNL     1      24.793  48.970  39.399  1.00  0.00     0.002 A 
HETATM   16  C   UNL     1      22.923  49.941  38.584  1.00  0.00     0.147 A 
HETATM   17  H   UNL     1      23.970  51.257  37.321  1.00  0.00     0.168 HD
HETATM   18  C   UNL     1      23.361  48.970  39.464  1.00  0.00     0.001 A 
HETATM   19  C   UNL     1      22.530  48.076  40.314  1.00  0.00     0.054 C 
HETATM   20  C   UNL     1      25.803  48.225  40.043  1.00  0.00     0.029 A 
BRANCH  16  21
HETATM   21  O   UNL     1      21.718  50.367  38.239  1.00  0.00    -0.346 OA
HETATM   22  H   UNL     1      21.760  50.645  37.307  1.00  0.00     0.219 HD
ENDBRANCH  16  21
ENDBRANCH   8  10
ENDBRANCH   7   8
ENDBRANCH   6   7
ENDBRANCH   1   6
BRANCH   2  23
HETATM   23  C   UNL     1      31.705  50.315  39.481  1.00  0.00     0.171 C 
BRANCH  23  24
HETATM   24  C   UNL     1      30.530  51.124  39.984  1.00  0.00    -0.040 A 
HETATM   25  C   UNL     1      29.886  50.870  41.204  1.00  0.00     0.009 A 
HETATM   26  C   UNL     1      28.788  51.635  41.605  1.00  0.00     0.001 A 
HETATM   27  C   UNL     1      28.306  52.651  40.785  1.00  0.00     0.000 A 
HETATM   28  C   UNL     1      28.917  52.903  39.561  1.00  0.00     0.001 A 
HETATM   29  C   UNL     1      30.018  52.142  39.161  1.00  0.00     0.009 A 
ENDBRANCH  23  24
ENDBRANCH   2  23
BRANCH   3  30
HETATM   30  C   UNL     1      33.665  49.888  41.908  1.00  0.00     0.029 A 
HETATM   31  C   UNL     1      34.995  50.118  41.575  1.00  0.00     0.131 A 
HETATM   32  N   UNL     1      35.783  51.049  42.169  1.00  0.00    -0.272 NA
HETATM   33  C   UNL     1      35.206  51.817  43.116  1.00  0.00     0.116 A 
HETATM   34  C   UNL     1      33.883  51.695  43.502  1.00  0.00     0.020 A 
HETATM   35  C   UNL     1      33.106  50.717  42.886  1.00  0.00     0.018 A 
ENDBRANCH   3  30
TORSDOF 8
ENDMDL
MODEL 9
REMARK VINA RESULT:      -7.7     11.537     14.137
REMARK  8 active torsions:
REMARK  status: ('A' for Active; 'I' for Inactive)
REMARK    1  A    between atoms: C_3  and  O_4 
REMARK    2  A    between atoms: C_11  and  C_12 
REMARK    3  A    between atoms: C_12  and  C_13 
REMARK    4  A    between atoms: C_13  and  S_14 
REMARK    5  A    between atoms: S_14  and  C_15 
REMARK    6  A    between atoms: N_16  and  C_17 
REMARK    7  A    between atoms: C_17  and  C_18 
REMARK    8  A    between atoms: C_24  and  C_25 
ROOT
HETATM    1  C   UNL     1      24.521  44.537  50.368  1.00  0.00     0.192 A 
HETATM    2  N   UNL     1      25.540  45.313  50.856  1.00  0.00    -0.303 N 
HETATM    3  C   UNL     1      25.416  45.263  52.233  1.00  0.00     0.166 A 
HETATM    4  N   UNL     1      24.392  44.478  52.526  1.00  0.00    -0.128 NA
HETATM    5  N   UNL     1      23.823  44.041  51.360  1.00  0.00    -0.122 NA
ENDROOT
BRANCH   1   6
HETATM    6  S   UNL     1      24.209  44.268  48.689  1.00  0.00    -0.082 SA
BRANCH   6   7
HETATM    7  C   UNL     1      22.411  44.530  48.662  1.00  0.00     0.166 C 
BRANCH   7   8
HETATM    8  C   UNL     1      22.009  45.660  47.732  1.00  0.00     0.169 C 
HETATM    9  O   UNL     1      22.446  45.794  46.590  1.00  0.00    -0.291 OA
BRANCH   8  10
HETATM   10  C   UNL     1      21.041  46.678  48.253  1.00  0.00     0.011 A 
HETATM   11  C   UNL     1      19.734  46.343  48.626  1.00  0.00     0.017 A 
HETATM   12  C   UNL     1      18.841  47.316  49.091  1.00  0.00     0.031 A 
HETATM   13  C   UNL     1      19.301  48.633  49.175  1.00  0.00     0.045 A 
HETATM   14  N   UNL     1      18.656  49.774  49.586  1.00  0.00    -0.336 N 
HETATM   15  C   UNL     1      20.598  49.006  48.828  1.00  0.00     0.002 A 
HETATM   16  C   UNL     1      19.493  50.851  49.520  1.00  0.00     0.147 A 
HETATM   17  H   UNL     1      17.698  49.824  49.901  1.00  0.00     0.168 HD
HETATM   18  C   UNL     1      20.718  50.418  49.050  1.00  0.00     0.001 A 
HETATM   19  C   UNL     1      21.941  51.233  48.821  1.00  0.00     0.054 C 
HETATM   20  C   UNL     1      21.481  48.010  48.363  1.00  0.00     0.029 A 
BRANCH  16  21
HETATM   21  O   UNL     1      19.038  52.040  49.887  1.00  0.00    -0.346 OA
HETATM   22  H   UNL     1      18.191  51.901  50.346  1.00  0.00     0.219 HD
ENDBRANCH  16  21
ENDBRANCH   8  10
ENDBRANCH   7   8
ENDBRANCH   6   7
ENDBRANCH   1   6
BRANCH   2  23
HETATM   23  C   UNL     1      26.628  45.906  50.095  1.00  0.00     0.171 C 
BRANCH  23  24
HETATM   24  C   UNL     1      26.363  47.316  49.617  1.00  0.00    -0.040 A 
HETATM   25  C   UNL     1      25.073  47.851  49.473  1.00  0.00     0.009 A 
HETATM   26  C   UNL     1      24.888  49.152  49.000  1.00  0.00     0.001 A 
HETATM   27  C   UNL     1      25.987  49.931  48.647  1.00  0.00     0.000 A 
HETATM   28  C   UNL     1      27.271  49.410  48.761  1.00  0.00     0.001 A 
HETATM   29  C   UNL     1      27.458  48.111  49.238  1.00  0.00     0.009 A 
ENDBRANCH  23  24
ENDBRANCH   2  23
BRANCH   3  30
HETATM   30  C   UNL     1      26.287  45.879  53.226  1.00  0.00     0.029 A 
HETATM   31  C   UNL     1      26.101  47.172  53.703  1.00  0.00     0.131 A 
HETATM   32  N   UNL     1      26.892  47.765  54.631  1.00  0.00    -0.272 NA
HETATM   33  C   UNL     1      27.896  47.021  55.140  1.00  0.00     0.116 A 
HETATM   34  C   UNL     1      28.150  45.714  54.760  1.00  0.00     0.020 A 
HETATM   35  C   UNL     1      27.331  45.140  53.791  1.00  0.00     0.018 A 
ENDBRANCH   3  30
TORSDOF 8
ENDMDL
MODEL 10
REMARK VINA RESULT:      -7.3     12.397     14.779
REMARK  8 active torsions:
REMARK  status: ('A' for Active; 'I' for Inactive)
REMARK    1  A    between atoms: C_3  and  O_4 
REMARK    2  A    between atoms: C_11  and  C_12 
REMARK    3  A    between atoms: C_12  and  C_13 
REMARK    4  A    between atoms: C_13  and  S_14 
REMARK    5  A    between atoms: S_14  and  C_15 
REMARK    6  A    between atoms: N_16  and  C_17 
REMARK    7  A    between atoms: C_17  and  C_18 
REMARK    8  A    between atoms: C_24  and  C_25 
ROOT
HETATM    1  C   UNL     1      20.573  47.842  48.815  1.00  0.00     0.192 A 
HETATM    2  N   UNL     1      21.598  48.680  49.166  1.00  0.00    -0.303 N 
HETATM    3  C   UNL     1      22.700  48.234  48.459  1.00  0.00     0.166 A 
HETATM    4  N   UNL     1      22.324  47.204  47.718  1.00  0.00    -0.128 NA
HETATM    5  N   UNL     1      21.000  46.949  47.956  1.00  0.00    -0.122 NA
ENDROOT
BRANCH   1   6
HETATM    6  S   UNL     1      18.960  47.950  49.429  1.00  0.00    -0.082 SA
BRANCH   6   7
HETATM    7  C   UNL     1      18.027  47.761  47.881  1.00  0.00     0.166 C 
BRANCH   7   8
HETATM    8  C   UNL     1      16.645  48.383  47.964  1.00  0.00     0.169 C 
HETATM    9  O   UNL     1      15.680  47.839  48.497  1.00  0.00    -0.291 OA
BRANCH   8  10
HETATM   10  C   UNL     1      16.449  49.729  47.334  1.00  0.00     0.011 A 
HETATM   11  C   UNL     1      15.637  50.712  47.913  1.00  0.00     0.017 A 
HETATM   12  C   UNL     1      15.453  51.955  47.296  1.00  0.00     0.031 A 
HETATM   13  C   UNL     1      16.112  52.183  46.085  1.00  0.00     0.045 A 
HETATM   14  N   UNL     1      16.113  53.289  45.270  1.00  0.00    -0.336 N 
HETATM   15  C   UNL     1      16.941  51.238  45.483  1.00  0.00     0.002 A 
HETATM   16  C   UNL     1      16.914  53.085  44.181  1.00  0.00     0.147 A 
HETATM   17  H   UNL     1      15.603  54.143  45.440  1.00  0.00     0.168 HD
HETATM   18  C   UNL     1      17.451  51.815  44.273  1.00  0.00     0.001 A 
HETATM   19  C   UNL     1      18.386  51.156  43.323  1.00  0.00     0.054 C 
HETATM   20  C   UNL     1      17.112  49.993  46.122  1.00  0.00     0.029 A 
BRANCH  16  21
HETATM   21  O   UNL     1      17.040  54.054  43.287  1.00  0.00    -0.346 OA
HETATM   22  H   UNL     1      17.898  53.934  42.844  1.00  0.00     0.219 HD
ENDBRANCH  16  21
ENDBRANCH   8  10
ENDBRANCH   7   8
ENDBRANCH   6   7
ENDBRANCH   1   6
BRANCH   2  23
HETATM   23  C   UNL     1      21.501  49.891  49.965  1.00  0.00     0.171 C 
BRANCH  23  24
HETATM   24  C   UNL     1      20.447  50.869  49.497  1.00  0.00    -0.040 A 
HETATM   25  C   UNL     1      20.497  51.519  48.254  1.00  0.00     0.009 A 
HETATM   26  C   UNL     1      19.508  52.434  47.886  1.00  0.00     0.001 A 
HETATM   27  C   UNL     1      18.465  52.726  48.760  1.00  0.00     0.000 A 
HETATM   28  C   UNL     1      18.411  52.109  50.005  1.00  0.00     0.001 A 
HETATM   29  C   UNL     1      19.397  51.191  50.373  1.00  0.00     0.009 A 
ENDBRANCH  23  24
ENDBRANCH   2  23
BRANCH   3  30
HETATM   30  C   UNL     1      24.036  48.815  48.437  1.00  0.00     0.029 A 
HETATM   31  C   UNL     1      24.365  49.938  47.685  1.00  0.00     0.131 A 
HETATM   32  N   UNL     1      25.598  50.502  47.652  1.00  0.00    -0.272 NA
HETATM   33  C   UNL     1      26.542  49.945  48.438  1.00  0.00     0.116 A 
HETATM   34  C   UNL     1      26.314  48.847  49.250  1.00  0.00     0.020 A 
HETATM   35  C   UNL     1      25.042  48.279  49.246  1.00  0.00     0.018 A 
ENDBRANCH   3  30
TORSDOF 8
ENDMDL
