MODEL 1
REMARK VINA RESULT:      -7.5      0.000      0.000
REMARK  10 active torsions:
REMARK  status: ('A' for Active; 'I' for Inactive)
REMARK    1  A    between atoms: C_3  and  C_4 
REMARK    2  A    between atoms: C_4  and  C_5 
REMARK       I    between atoms: C_5  and  N_6 
REMARK    3  A    between atoms: N_6  and  C_7 
REMARK    4  A    between atoms: C_7  and  C_8 
REMARK    5  A    between atoms: C_8  and  O_9 
REMARK    6  A    between atoms: C_15  and  N_16 
REMARK    7  A    between atoms: N_16  and  C_17 
REMARK    8  A    between atoms: C_26  and  C_27 
REMARK    9  A    between atoms: C_27  and  O_28 
REMARK   10  A    between atoms: C_30  and  O_31 
ROOT
HETATM    1  C   UNL     1      27.152  45.636  49.967  1.00  0.00     0.016 C 
HETATM    2  C   UNL     1      26.379  45.136  51.230  1.00  0.00    -0.030 C 
HETATM    3  C   UNL     1      25.449  43.901  50.841  1.00  0.00     0.056 C 
HETATM    4  C   UNL     1      26.251  42.621  50.785  1.00  0.00     0.056 C 
HETATM    5  C   UNL     1      27.561  42.513  51.201  1.00  0.00     0.012 C 
HETATM    6  S   UNL     1      28.133  40.934  50.951  1.00  0.00    -0.055 SA
HETATM    7  C   UNL     1      26.522  40.433  50.576  1.00  0.00     0.172 C 
HETATM    8  N   UNL     1      25.657  41.420  50.442  1.00  0.00    -0.227 NA
HETATM    9  C   UNL     1      28.376  43.594  51.815  1.00  0.00     0.055 C 
HETATM   10  C   UNL     1      27.451  44.733  52.331  1.00  0.00     0.012 C 
HETATM   11  C   UNL     1      26.885  44.535  53.811  1.00  0.00     0.008 C 
HETATM   12  C   UNL     1      28.028  44.960  54.780  1.00  0.00     0.020 C 
HETATM   13  C   UNL     1      25.676  45.487  54.080  1.00  0.00     0.128 C 
HETATM   14  C   UNL     1      25.699  46.716  53.182  1.00  0.00     0.033 C 
HETATM   15  C   UNL     1      25.506  46.336  51.714  1.00  0.00     0.013 C 
ENDROOT
BRANCH   3  16
HETATM   16  C   UNL     1      24.672  44.133  49.532  1.00  0.00     0.114 C 
BRANCH  16  17
HETATM   17  C   UNL     1      23.172  44.147  49.729  1.00  0.00     0.218 C 
HETATM   18  N   UNL     1      22.470  44.851  48.782  1.00  0.00    -0.359 N 
HETATM   19  H   UNL     1      22.887  44.906  47.850  1.00  0.00     0.162 HD
HETATM   20  O   UNL     1      22.651  43.609  50.703  1.00  0.00    -0.274 OA
BRANCH  18  21
HETATM   21  C   UNL     1      21.027  44.984  48.877  1.00  0.00     0.148 C 
BRANCH  21  22
HETATM   22  C   UNL     1      20.333  44.693  47.544  1.00  0.00     0.186 C 
BRANCH  22  23
HETATM   23  O   UNL     1      18.967  44.303  47.710  1.00  0.00    -0.394 OA
HETATM   24  C   UNL     1      18.118  44.846  46.706  1.00  0.00     0.201 C 
ENDBRANCH  22  23
ENDBRANCH  21  22
ENDBRANCH  18  21
ENDBRANCH  16  17
ENDBRANCH   3  16
BRANCH  11  25
HETATM   25  C   UNL     1      26.466  43.091  54.200  1.00  0.00     0.176 C 
BRANCH  25  26
HETATM   26  O   UNL     1      25.756  43.040  55.433  1.00  0.00    -0.400 OA
HETATM   27  H   UNL     1      24.893  43.458  55.268  1.00  0.00     0.209 HD
ENDBRANCH  25  26
ENDBRANCH  11  25
BRANCH   7  28
HETATM   28  N   UNL     1      26.254  39.106  50.482  1.00  0.00    -0.334 N 
HETATM   29  H   UNL     1      25.352  38.847  50.865  1.00  0.00     0.168 HD
BRANCH  28  30
HETATM   30  C   UNL     1      26.506  38.364  49.300  1.00  0.00     0.051 A 
HETATM   31  C   UNL     1      26.676  38.917  48.029  1.00  0.00     0.145 A 
HETATM   32  N   UNL     1      26.913  38.200  46.897  1.00  0.00    -0.271 NA
HETATM   33  C   UNL     1      27.015  36.864  47.036  1.00  0.00     0.116 A 
HETATM   34  C   UNL     1      26.913  36.214  48.252  1.00  0.00     0.021 A 
HETATM   35  C   UNL     1      26.671  36.977  49.394  1.00  0.00     0.032 A 
ENDBRANCH  28  30
ENDBRANCH   7  28
BRANCH  13  36
HETATM   36  O   UNL     1      24.437  44.806  53.886  1.00  0.00    -0.395 OA
HETATM   37  H   UNL     1      23.723  45.369  54.236  1.00  0.00     0.210 HD
ENDBRANCH  13  36
TORSDOF 10
ENDMDL
MODEL 2
REMARK VINA RESULT:      -7.4      3.307      6.727
REMARK  10 active torsions:
REMARK  status: ('A' for Active; 'I' for Inactive)
REMARK    1  A    between atoms: C_3  and  C_4 
REMARK    2  A    between atoms: C_4  and  C_5 
REMARK       I    between atoms: C_5  and  N_6 
REMARK    3  A    between atoms: N_6  and  C_7 
REMARK    4  A    between atoms: C_7  and  C_8 
REMARK    5  A    between atoms: C_8  and  O_9 
REMARK    6  A    between atoms: C_15  and  N_16 
REMARK    7  A    between atoms: N_16  and  C_17 
REMARK    8  A    between atoms: C_26  and  C_27 
REMARK    9  A    between atoms: C_27  and  O_28 
REMARK   10  A    between atoms: C_30  and  O_31 
ROOT
HETATM    1  C   UNL     1      24.728  44.107  54.350  1.00  0.00     0.016 C 
HETATM    2  C   UNL     1      25.651  44.920  53.386  1.00  0.00    -0.030 C 
HETATM    3  C   UNL     1      27.077  44.216  53.280  1.00  0.00     0.056 C 
HETATM    4  C   UNL     1      27.032  43.056  52.312  1.00  0.00     0.056 C 
HETATM    5  C   UNL     1      25.958  42.773  51.496  1.00  0.00     0.012 C 
HETATM    6  S   UNL     1      26.263  41.378  50.578  1.00  0.00    -0.055 SA
HETATM    7  C   UNL     1      27.905  41.410  51.115  1.00  0.00     0.172 C 
HETATM    8  N   UNL     1      28.152  42.277  52.076  1.00  0.00    -0.227 NA
HETATM    9  C   UNL     1      24.710  43.573  51.385  1.00  0.00     0.055 C 
HETATM   10  C   UNL     1      24.933  44.996  51.971  1.00  0.00     0.012 C 
HETATM   11  C   UNL     1      25.524  46.070  50.949  1.00  0.00     0.008 C 
HETATM   12  C   UNL     1      24.326  46.563  50.085  1.00  0.00     0.020 C 
HETATM   13  C   UNL     1      26.086  47.315  51.708  1.00  0.00     0.128 C 
HETATM   14  C   UNL     1      25.442  47.495  53.075  1.00  0.00     0.033 C 
HETATM   15  C   UNL     1      25.798  46.342  54.013  1.00  0.00     0.013 C 
ENDROOT
BRANCH   3  16
HETATM   16  C   UNL     1      27.626  43.781  54.651  1.00  0.00     0.114 C 
BRANCH  16  17
HETATM   17  C   UNL     1      28.950  44.431  54.990  1.00  0.00     0.218 C 
HETATM   18  N   UNL     1      29.937  43.562  55.387  1.00  0.00    -0.359 N 
HETATM   19  H   UNL     1      29.888  42.612  55.013  1.00  0.00     0.162 HD
HETATM   20  O   UNL     1      29.089  45.652  54.959  1.00  0.00    -0.274 OA
BRANCH  18  21
HETATM   21  C   UNL     1      31.242  44.057  55.787  1.00  0.00     0.148 C 
BRANCH  21  22
HETATM   22  C   UNL     1      31.740  43.394  57.074  1.00  0.00     0.186 C 
BRANCH  22  23
HETATM   23  O   UNL     1      31.891  44.325  58.148  1.00  0.00    -0.394 OA
HETATM   24  C   UNL     1      30.761  45.177  58.297  1.00  0.00     0.201 C 
ENDBRANCH  22  23
ENDBRANCH  21  22
ENDBRANCH  18  21
ENDBRANCH  16  17
ENDBRANCH   3  16
BRANCH  11  25
HETATM   25  C   UNL     1      26.617  45.560  49.970  1.00  0.00     0.176 C 
BRANCH  25  26
HETATM   26  O   UNL     1      27.207  46.611  49.212  1.00  0.00    -0.400 OA
HETATM   27  H   UNL     1      27.542  47.258  49.858  1.00  0.00     0.209 HD
ENDBRANCH  25  26
ENDBRANCH  11  25
BRANCH   7  28
HETATM   28  N   UNL     1      28.807  40.594  50.512  1.00  0.00    -0.334 N 
HETATM   29  H   UNL     1      29.262  39.952  51.151  1.00  0.00     0.168 HD
BRANCH  28  30
HETATM   30  C   UNL     1      28.534  39.939  49.284  1.00  0.00     0.051 A 
HETATM   31  C   UNL     1      28.420  40.574  48.046  1.00  0.00     0.145 A 
HETATM   32  N   UNL     1      28.153  39.941  46.871  1.00  0.00    -0.271 NA
HETATM   33  C   UNL     1      28.020  38.602  46.922  1.00  0.00     0.116 A 
HETATM   34  C   UNL     1      28.162  37.864  48.083  1.00  0.00     0.021 A 
HETATM   35  C   UNL     1      28.436  38.542  49.270  1.00  0.00     0.032 A 
ENDBRANCH  28  30
ENDBRANCH   7  28
BRANCH  13  36
HETATM   36  O   UNL     1      27.499  47.212  51.880  1.00  0.00    -0.395 OA
HETATM   37  H   UNL     1      27.894  48.080  51.676  1.00  0.00     0.210 HD
ENDBRANCH  13  36
TORSDOF 10
ENDMDL
MODEL 3
REMARK VINA RESULT:      -7.3     13.644     16.575
REMARK  10 active torsions:
REMARK  status: ('A' for Active; 'I' for Inactive)
REMARK    1  A    between atoms: C_3  and  C_4 
REMARK    2  A    between atoms: C_4  and  C_5 
REMARK       I    between atoms: C_5  and  N_6 
REMARK    3  A    between atoms: N_6  and  C_7 
REMARK    4  A    between atoms: C_7  and  C_8 
REMARK    5  A    between atoms: C_8  and  O_9 
REMARK    6  A    between atoms: C_15  and  N_16 
REMARK    7  A    between atoms: N_16  and  C_17 
REMARK    8  A    between atoms: C_26  and  C_27 
REMARK    9  A    between atoms: C_27  and  O_28 
REMARK   10  A    between atoms: C_30  and  O_31 
ROOT
HETATM    1  C   UNL     1      30.675  48.135  40.913  1.00  0.00     0.016 C 
HETATM    2  C   UNL     1      30.000  49.535  41.084  1.00  0.00    -0.030 C 
HETATM    3  C   UNL     1      31.057  50.578  41.660  1.00  0.00     0.056 C 
HETATM    4  C   UNL     1      31.947  51.105  40.557  1.00  0.00     0.056 C 
HETATM    5  C   UNL     1      31.742  50.859  39.216  1.00  0.00     0.012 C 
HETATM    6  S   UNL     1      32.965  51.585  38.287  1.00  0.00    -0.055 SA
HETATM    7  C   UNL     1      33.518  52.410  39.701  1.00  0.00     0.172 C 
HETATM    8  N   UNL     1      32.960  52.008  40.826  1.00  0.00    -0.227 NA
HETATM    9  C   UNL     1      30.606  50.101  38.630  1.00  0.00     0.055 C 
HETATM   10  C   UNL     1      29.450  49.988  39.664  1.00  0.00     0.012 C 
HETATM   11  C   UNL     1      28.422  51.210  39.676  1.00  0.00     0.008 C 
HETATM   12  C   UNL     1      27.445  50.975  38.485  1.00  0.00     0.020 C 
HETATM   13  C   UNL     1      27.565  51.207  40.981  1.00  0.00     0.128 C 
HETATM   14  C   UNL     1      27.467  49.823  41.605  1.00  0.00     0.033 C 
HETATM   15  C   UNL     1      28.830  49.338  42.098  1.00  0.00     0.013 C 
ENDROOT
BRANCH   3  16
HETATM   16  C   UNL     1      31.887  50.001  42.821  1.00  0.00     0.114 C 
BRANCH  16  17
HETATM   17  C   UNL     1      32.568  51.069  43.648  1.00  0.00     0.218 C 
HETATM   18  N   UNL     1      33.920  51.192  43.437  1.00  0.00    -0.359 N 
HETATM   19  H   UNL     1      34.264  50.933  42.509  1.00  0.00     0.162 HD
HETATM   20  O   UNL     1      31.947  51.727  44.480  1.00  0.00    -0.274 OA
BRANCH  18  21
HETATM   21  C   UNL     1      34.705  52.147  44.199  1.00  0.00     0.148 C 
BRANCH  21  22
HETATM   22  C   UNL     1      36.120  52.307  43.637  1.00  0.00     0.186 C 
BRANCH  22  23
HETATM   23  O   UNL     1      36.452  51.291  42.686  1.00  0.00    -0.394 OA
HETATM   24  C   UNL     1      37.730  50.716  42.925  1.00  0.00     0.201 C 
ENDBRANCH  22  23
ENDBRANCH  21  22
ENDBRANCH  18  21
ENDBRANCH  16  17
ENDBRANCH   3  16
BRANCH  11  25
HETATM   25  C   UNL     1      29.034  52.626  39.494  1.00  0.00     0.176 C 
BRANCH  25  26
HETATM   26  O   UNL     1      28.739  53.190  38.221  1.00  0.00    -0.400 OA
HETATM   27  H   UNL     1      29.011  52.529  37.560  1.00  0.00     0.209 HD
ENDBRANCH  25  26
ENDBRANCH  11  25
BRANCH   7  28
HETATM   28  N   UNL     1      34.432  53.404  39.562  1.00  0.00    -0.334 N 
HETATM   29  H   UNL     1      34.177  54.258  40.046  1.00  0.00     0.168 HD
BRANCH  28  30
HETATM   30  C   UNL     1      35.825  53.176  39.691  1.00  0.00     0.051 A 
HETATM   31  C   UNL     1      36.499  52.046  39.222  1.00  0.00     0.145 A 
HETATM   32  N   UNL     1      37.836  51.830  39.353  1.00  0.00    -0.271 NA
HETATM   33  C   UNL     1      38.550  52.800  39.956  1.00  0.00     0.116 A 
HETATM   34  C   UNL     1      37.997  53.981  40.415  1.00  0.00     0.021 A 
HETATM   35  C   UNL     1      36.624  54.173  40.265  1.00  0.00     0.032 A 
ENDBRANCH  28  30
ENDBRANCH   7  28
BRANCH  13  36
HETATM   36  O   UNL     1      28.108  52.104  41.949  1.00  0.00    -0.395 OA
HETATM   37  H   UNL     1      27.535  52.085  42.737  1.00  0.00     0.210 HD
ENDBRANCH  13  36
TORSDOF 10
ENDMDL
MODEL 4
REMARK VINA RESULT:      -7.1      4.241      8.092
REMARK  10 active torsions:
REMARK  status: ('A' for Active; 'I' for Inactive)
REMARK    1  A    between atoms: C_3  and  C_4 
REMARK    2  A    between atoms: C_4  and  C_5 
REMARK       I    between atoms: C_5  and  N_6 
REMARK    3  A    between atoms: N_6  and  C_7 
REMARK    4  A    between atoms: C_7  and  C_8 
REMARK    5  A    between atoms: C_8  and  O_9 
REMARK    6  A    between atoms: C_15  and  N_16 
REMARK    7  A    between atoms: N_16  and  C_17 
REMARK    8  A    between atoms: C_26  and  C_27 
REMARK    9  A    between atoms: C_27  and  O_28 
REMARK   10  A    between atoms: C_30  and  O_31 
ROOT
HETATM    1  C   UNL     1      20.024  48.139  46.210  1.00  0.00     0.016 C 
HETATM    2  C   UNL     1      19.917  48.218  47.768  1.00  0.00    -0.030 C 
HETATM    3  C   UNL     1      21.074  47.348  48.435  1.00  0.00     0.056 C 
HETATM    4  C   UNL     1      22.378  48.112  48.452  1.00  0.00     0.056 C 
HETATM    5  C   UNL     1      22.497  49.443  48.115  1.00  0.00     0.012 C 
HETATM    6  S   UNL     1      24.117  49.939  48.221  1.00  0.00    -0.055 SA
HETATM    7  C   UNL     1      24.504  48.435  48.981  1.00  0.00     0.172 C 
HETATM    8  N   UNL     1      23.532  47.545  48.963  1.00  0.00    -0.227 NA
HETATM    9  C   UNL     1      21.383  50.352  47.739  1.00  0.00     0.055 C 
HETATM   10  C   UNL     1      20.023  49.746  48.188  1.00  0.00     0.012 C 
HETATM   11  C   UNL     1      19.585  50.086  49.685  1.00  0.00     0.008 C 
HETATM   12  C   UNL     1      18.988  51.525  49.653  1.00  0.00     0.020 C 
HETATM   13  C   UNL     1      18.451  49.128  50.168  1.00  0.00     0.128 C 
HETATM   14  C   UNL     1      17.654  48.547  49.009  1.00  0.00     0.033 C 
HETATM   15  C   UNL     1      18.519  47.632  48.143  1.00  0.00     0.013 C 
ENDROOT
BRANCH   3  16
HETATM   16  C   UNL     1      21.241  45.972  47.765  1.00  0.00     0.114 C 
BRANCH  16  17
HETATM   17  C   UNL     1      21.433  44.849  48.761  1.00  0.00     0.218 C 
HETATM   18  N   UNL     1      22.710  44.348  48.832  1.00  0.00    -0.359 N 
HETATM   19  H   UNL     1      23.468  44.995  48.601  1.00  0.00     0.162 HD
HETATM   20  O   UNL     1      20.489  44.399  49.407  1.00  0.00    -0.274 OA
BRANCH  18  21
HETATM   21  C   UNL     1      23.023  43.238  49.713  1.00  0.00     0.148 C 
BRANCH  21  22
HETATM   22  C   UNL     1      23.406  41.976  48.936  1.00  0.00     0.186 C 
BRANCH  22  23
HETATM   23  O   UNL     1      22.272  41.312  48.372  1.00  0.00    -0.394 OA
HETATM   24  C   UNL     1      22.340  41.219  46.955  1.00  0.00     0.201 C 
ENDBRANCH  22  23
ENDBRANCH  21  22
ENDBRANCH  18  21
ENDBRANCH  16  17
ENDBRANCH   3  16
BRANCH  11  25
HETATM   25  C   UNL     1      20.716  50.083  50.751  1.00  0.00     0.176 C 
BRANCH  25  26
HETATM   26  O   UNL     1      21.355  51.349  50.874  1.00  0.00    -0.400 OA
HETATM   27  H   UNL     1      20.673  51.969  51.187  1.00  0.00     0.209 HD
ENDBRANCH  25  26
ENDBRANCH  11  25
BRANCH   7  28
HETATM   28  N   UNL     1      25.725  48.288  49.555  1.00  0.00    -0.334 N 
HETATM   29  H   UNL     1      26.066  49.131  50.003  1.00  0.00     0.168 HD
BRANCH  28  30
HETATM   30  C   UNL     1      26.061  47.156  50.341  1.00  0.00     0.051 A 
HETATM   31  C   UNL     1      25.809  47.027  51.708  1.00  0.00     0.145 A 
HETATM   32  N   UNL     1      26.138  45.941  52.458  1.00  0.00    -0.271 NA
HETATM   33  C   UNL     1      26.725  44.914  51.813  1.00  0.00     0.116 A 
HETATM   34  C   UNL     1      26.978  44.912  50.454  1.00  0.00     0.021 A 
HETATM   35  C   UNL     1      26.627  46.040  49.712  1.00  0.00     0.032 A 
ENDBRANCH  28  30
ENDBRANCH   7  28
BRANCH  13  36
HETATM   36  O   UNL     1      18.986  48.051  50.936  1.00  0.00    -0.395 OA
HETATM   37  H   UNL     1      19.865  47.829  50.578  1.00  0.00     0.210 HD
ENDBRANCH  13  36
TORSDOF 10
ENDMDL
MODEL 5
REMARK VINA RESULT:      -7.0      4.877      9.219
REMARK  10 active torsions:
REMARK  status: ('A' for Active; 'I' for Inactive)
REMARK    1  A    between atoms: C_3  and  C_4 
REMARK    2  A    between atoms: C_4  and  C_5 
REMARK       I    between atoms: C_5  and  N_6 
REMARK    3  A    between atoms: N_6  and  C_7 
REMARK    4  A    between atoms: C_7  and  C_8 
REMARK    5  A    between atoms: C_8  and  O_9 
REMARK    6  A    between atoms: C_15  and  N_16 
REMARK    7  A    between atoms: N_16  and  C_17 
REMARK    8  A    between atoms: C_26  and  C_27 
REMARK    9  A    between atoms: C_27  and  O_28 
REMARK   10  A    between atoms: C_30  and  O_31 
ROOT
HETATM    1  C   UNL     1      19.865  50.490  50.606  1.00  0.00     0.016 C 
HETATM    2  C   UNL     1      19.748  50.416  49.049  1.00  0.00    -0.030 C 
HETATM    3  C   UNL     1      21.079  49.793  48.435  1.00  0.00     0.056 C 
HETATM    4  C   UNL     1      21.065  48.285  48.541  1.00  0.00     0.056 C 
HETATM    5  C   UNL     1      19.969  47.550  48.938  1.00  0.00     0.012 C 
HETATM    6  S   UNL     1      20.345  45.894  48.968  1.00  0.00    -0.055 SA
HETATM    7  C   UNL     1      21.844  46.243  48.181  1.00  0.00     0.172 C 
HETATM    8  N   UNL     1      22.133  47.526  48.094  1.00  0.00    -0.227 NA
HETATM    9  C   UNL     1      18.625  48.093  49.267  1.00  0.00     0.055 C 
HETATM   10  C   UNL     1      18.476  49.532  48.697  1.00  0.00     0.012 C 
HETATM   11  C   UNL     1      17.966  49.619  47.186  1.00  0.00     0.008 C 
HETATM   12  C   UNL     1      16.421  49.424  47.231  1.00  0.00     0.020 C 
HETATM   13  C   UNL     1      18.235  51.035  46.586  1.00  0.00     0.128 C 
HETATM   14  C   UNL     1      18.339  52.107  47.661  1.00  0.00     0.033 C 
HETATM   15  C   UNL     1      19.561  51.884  48.552  1.00  0.00     0.013 C 
ENDROOT
BRANCH   3  16
HETATM   16  C   UNL     1      22.355  50.386  49.061  1.00  0.00     0.114 C 
BRANCH  16  17
HETATM   17  C   UNL     1      23.574  50.230  48.179  1.00  0.00     0.218 C 
HETATM   18  N   UNL     1      24.705  49.797  48.825  1.00  0.00    -0.359 N 
HETATM   19  H   UNL     1      24.565  49.212  49.652  1.00  0.00     0.162 HD
HETATM   20  O   UNL     1      23.542  50.528  46.987  1.00  0.00    -0.274 OA
BRANCH  18  21
HETATM   21  C   UNL     1      25.958  49.649  48.107  1.00  0.00     0.148 C 
BRANCH  21  22
HETATM   22  C   UNL     1      27.117  49.282  49.038  1.00  0.00     0.186 C 
BRANCH  22  23
HETATM   23  O   UNL     1      27.581  47.945  48.837  1.00  0.00    -0.394 OA
HETATM   24  C   UNL     1      26.825  46.988  49.570  1.00  0.00     0.201 C 
ENDBRANCH  22  23
ENDBRANCH  21  22
ENDBRANCH  18  21
ENDBRANCH  16  17
ENDBRANCH   3  16
BRANCH  11  25
HETATM   25  C   UNL     1      18.534  48.555  46.206  1.00  0.00     0.176 C 
BRANCH  25  26
HETATM   26  O   UNL     1      17.981  48.665  44.899  1.00  0.00    -0.400 OA
HETATM   27  H   UNL     1      17.035  48.862  45.020  1.00  0.00     0.209 HD
ENDBRANCH  25  26
ENDBRANCH  11  25
BRANCH   7  28
HETATM   28  N   UNL     1      22.581  45.214  47.692  1.00  0.00    -0.334 N 
HETATM   29  H   UNL     1      23.061  45.436  46.827  1.00  0.00     0.168 HD
BRANCH  28  30
HETATM   30  C   UNL     1      23.419  44.423  48.518  1.00  0.00     0.051 A 
HETATM   31  C   UNL     1      23.822  44.763  49.811  1.00  0.00     0.145 A 
HETATM   32  N   UNL     1      24.630  44.002  50.597  1.00  0.00    -0.271 NA
HETATM   33  C   UNL     1      25.039  42.825  50.085  1.00  0.00     0.116 A 
HETATM   34  C   UNL     1      24.663  42.364  48.837  1.00  0.00     0.021 A 
HETATM   35  C   UNL     1      23.833  43.167  48.056  1.00  0.00     0.032 A 
ENDBRANCH  28  30
ENDBRANCH   7  28
BRANCH  13  36
HETATM   36  O   UNL     1      19.437  51.043  45.817  1.00  0.00    -0.395 OA
HETATM   37  H   UNL     1      20.154  51.390  46.379  1.00  0.00     0.210 HD
ENDBRANCH  13  36
TORSDOF 10
ENDMDL
MODEL 6
REMARK VINA RESULT:      -7.0     13.236     15.819
REMARK  10 active torsions:
REMARK  status: ('A' for Active; 'I' for Inactive)
REMARK    1  A    between atoms: C_3  and  C_4 
REMARK    2  A    between atoms: C_4  and  C_5 
REMARK       I    between atoms: C_5  and  N_6 
REMARK    3  A    between atoms: N_6  and  C_7 
REMARK    4  A    between atoms: C_7  and  C_8 
REMARK    5  A    between atoms: C_8  and  O_9 
REMARK    6  A    between atoms: C_15  and  N_16 
REMARK    7  A    between atoms: N_16  and  C_17 
REMARK    8  A    between atoms: C_26  and  C_27 
REMARK    9  A    between atoms: C_27  and  O_28 
REMARK   10  A    between atoms: C_30  and  O_31 
ROOT
HETATM    1  C   UNL     1      27.802  51.239  40.425  1.00  0.00     0.016 C 
HETATM    2  C   UNL     1      28.305  49.954  39.690  1.00  0.00    -0.030 C 
HETATM    3  C   UNL     1      29.855  50.099  39.346  1.00  0.00     0.056 C 
HETATM    4  C   UNL     1      30.704  49.780  40.556  1.00  0.00     0.056 C 
HETATM    5  C   UNL     1      30.209  49.253  41.729  1.00  0.00     0.012 C 
HETATM    6  S   UNL     1      31.455  49.066  42.867  1.00  0.00    -0.055 SA
HETATM    7  C   UNL     1      32.608  49.427  41.631  1.00  0.00     0.172 C 
HETATM    8  N   UNL     1      32.084  49.863  40.502  1.00  0.00    -0.227 NA
HETATM    9  C   UNL     1      28.798  48.862  41.985  1.00  0.00     0.055 C 
HETATM   10  C   UNL     1      28.033  48.711  40.640  1.00  0.00     0.012 C 
HETATM   11  C   UNL     1      28.140  47.274  39.950  1.00  0.00     0.008 C 
HETATM   12  C   UNL     1      27.122  46.355  40.688  1.00  0.00     0.020 C 
HETATM   13  C   UNL     1      27.702  47.338  38.453  1.00  0.00     0.128 C 
HETATM   14  C   UNL     1      26.764  48.504  38.175  1.00  0.00     0.033 C 
HETATM   15  C   UNL     1      27.471  49.845  38.375  1.00  0.00     0.013 C 
ENDROOT
BRANCH   3  16
HETATM   16  C   UNL     1      30.206  51.480  38.764  1.00  0.00     0.114 C 
BRANCH  16  17
HETATM   17  C   UNL     1      31.651  51.586  38.328  1.00  0.00     0.218 C 
HETATM   18  N   UNL     1      32.464  52.290  39.182  1.00  0.00    -0.359 N 
HETATM   19  H   UNL     1      32.203  52.285  40.171  1.00  0.00     0.162 HD
HETATM   20  O   UNL     1      32.032  51.117  37.257  1.00  0.00    -0.274 OA
BRANCH  18  21
HETATM   21  C   UNL     1      33.863  52.508  38.862  1.00  0.00     0.148 C 
BRANCH  21  22
HETATM   22  C   UNL     1      34.364  53.866  39.363  1.00  0.00     0.186 C 
BRANCH  22  23
HETATM   23  O   UNL     1      35.517  54.322  38.651  1.00  0.00    -0.394 OA
HETATM   24  C   UNL     1      36.181  55.391  39.314  1.00  0.00     0.201 C 
ENDBRANCH  22  23
ENDBRANCH  21  22
ENDBRANCH  18  21
ENDBRANCH  16  17
ENDBRANCH   3  16
BRANCH  11  25
HETATM   25  C   UNL     1      29.526  46.576  40.026  1.00  0.00     0.176 C 
BRANCH  25  26
HETATM   26  O   UNL     1      29.493  45.239  39.538  1.00  0.00    -0.400 OA
HETATM   27  H   UNL     1      28.802  45.217  38.852  1.00  0.00     0.209 HD
ENDBRANCH  25  26
ENDBRANCH  11  25
BRANCH   7  28
HETATM   28  N   UNL     1      33.925  49.214  41.881  1.00  0.00    -0.334 N 
HETATM   29  H   UNL     1      34.289  48.376  41.444  1.00  0.00     0.168 HD
BRANCH  28  30
HETATM   30  C   UNL     1      34.887  50.253  41.808  1.00  0.00     0.051 A 
HETATM   31  C   UNL     1      34.931  51.366  42.650  1.00  0.00     0.145 A 
HETATM   32  N   UNL     1      35.855  52.361  42.572  1.00  0.00    -0.271 NA
HETATM   33  C   UNL     1      36.805  52.234  41.625  1.00  0.00     0.116 A 
HETATM   34  C   UNL     1      36.888  51.152  40.769  1.00  0.00     0.021 A 
HETATM   35  C   UNL     1      35.927  50.146  40.875  1.00  0.00     0.032 A 
ENDBRANCH  28  30
ENDBRANCH   7  28
BRANCH  13  36
HETATM   36  O   UNL     1      28.836  47.452  37.594  1.00  0.00    -0.395 OA
HETATM   37  H   UNL     1      29.631  47.539  38.151  1.00  0.00     0.210 HD
ENDBRANCH  13  36
TORSDOF 10
ENDMDL
MODEL 7
REMARK VINA RESULT:      -7.0      5.500      9.946
REMARK  10 active torsions:
REMARK  status: ('A' for Active; 'I' for Inactive)
REMARK    1  A    between atoms: C_3  and  C_4 
REMARK    2  A    between atoms: C_4  and  C_5 
REMARK       I    between atoms: C_5  and  N_6 
REMARK    3  A    between atoms: N_6  and  C_7 
REMARK    4  A    between atoms: C_7  and  C_8 
REMARK    5  A    between atoms: C_8  and  O_9 
REMARK    6  A    between atoms: C_15  and  N_16 
REMARK    7  A    between atoms: N_16  and  C_17 
REMARK    8  A    between atoms: C_26  and  C_27 
REMARK    9  A    between atoms: C_27  and  O_28 
REMARK   10  A    between atoms: C_30  and  O_31 
ROOT
HETATM    1  C   UNL     1      18.522  48.656  44.752  1.00  0.00     0.016 C 
HETATM    2  C   UNL     1      17.973  48.344  46.183  1.00  0.00    -0.030 C 
HETATM    3  C   UNL     1      18.990  47.391  46.956  1.00  0.00     0.056 C 
HETATM    4  C   UNL     1      20.138  48.187  47.534  1.00  0.00     0.056 C 
HETATM    5  C   UNL     1      20.191  49.564  47.550  1.00  0.00     0.012 C 
HETATM    6  S   UNL     1      21.647  50.092  48.246  1.00  0.00    -0.055 SA
HETATM    7  C   UNL     1      21.978  48.467  48.734  1.00  0.00     0.172 C 
HETATM    8  N   UNL     1      21.161  47.565  48.229  1.00  0.00    -0.227 NA
HETATM    9  C   UNL     1      19.130  50.485  47.068  1.00  0.00     0.055 C 
HETATM   10  C   UNL     1      17.779  49.725  46.943  1.00  0.00     0.012 C 
HETATM   11  C   UNL     1      16.901  49.667  48.276  1.00  0.00     0.008 C 
HETATM   12  C   UNL     1      16.174  51.040  48.385  1.00  0.00     0.020 C 
HETATM   13  C   UNL     1      15.797  48.568  48.171  1.00  0.00     0.128 C 
HETATM   14  C   UNL     1      15.431  48.254  46.727  1.00  0.00     0.033 C 
HETATM   15  C   UNL     1      16.605  47.621  45.981  1.00  0.00     0.013 C 
ENDROOT
BRANCH   3  16
HETATM   16  C   UNL     1      19.497  46.231  46.081  1.00  0.00     0.114 C 
BRANCH  16  17
HETATM   17  C   UNL     1      20.135  45.119  46.884  1.00  0.00     0.218 C 
HETATM   18  N   UNL     1      21.456  44.879  46.596  1.00  0.00    -0.359 N 
HETATM   19  H   UNL     1      22.002  45.675  46.256  1.00  0.00     0.162 HD
HETATM   20  O   UNL     1      19.483  44.458  47.690  1.00  0.00    -0.274 OA
BRANCH  18  21
HETATM   21  C   UNL     1      22.178  43.810  47.261  1.00  0.00     0.148 C 
BRANCH  21  22
HETATM   22  C   UNL     1      23.486  44.300  47.887  1.00  0.00     0.186 C 
BRANCH  22  23
HETATM   23  O   UNL     1      23.315  44.749  49.234  1.00  0.00    -0.394 OA
HETATM   24  C   UNL     1      22.552  43.842  50.020  1.00  0.00     0.201 C 
ENDBRANCH  22  23
ENDBRANCH  21  22
ENDBRANCH  18  21
ENDBRANCH  16  17
ENDBRANCH   3  16
BRANCH  11  25
HETATM   25  C   UNL     1      17.680  49.453  49.603  1.00  0.00     0.176 C 
BRANCH  25  26
HETATM   26  O   UNL     1      17.887  50.668  50.317  1.00  0.00    -0.400 OA
HETATM   27  H   UNL     1      17.606  50.496  51.233  1.00  0.00     0.209 HD
ENDBRANCH  25  26
ENDBRANCH  11  25
BRANCH   7  28
HETATM   28  N   UNL     1      22.997  48.239  49.601  1.00  0.00    -0.334 N 
HETATM   29  H   UNL     1      22.947  47.334  50.054  1.00  0.00     0.168 HD
BRANCH  28  30
HETATM   30  C   UNL     1      24.345  48.544  49.282  1.00  0.00     0.051 A 
HETATM   31  C   UNL     1      24.756  49.595  48.460  1.00  0.00     0.145 A 
HETATM   32  N   UNL     1      26.050  49.881  48.154  1.00  0.00    -0.271 NA
HETATM   33  C   UNL     1      26.992  49.098  48.715  1.00  0.00     0.116 A 
HETATM   34  C   UNL     1      26.704  48.060  49.583  1.00  0.00     0.021 A 
HETATM   35  C   UNL     1      25.367  47.794  49.878  1.00  0.00     0.032 A 
ENDBRANCH  28  30
ENDBRANCH   7  28
BRANCH  13  36
HETATM   36  O   UNL     1      16.217  47.361  48.806  1.00  0.00    -0.395 OA
HETATM   37  H   UNL     1      17.048  47.541  49.282  1.00  0.00     0.210 HD
ENDBRANCH  13  36
TORSDOF 10
ENDMDL
MODEL 8
REMARK VINA RESULT:      -6.9      4.586      9.375
REMARK  10 active torsions:
REMARK  status: ('A' for Active; 'I' for Inactive)
REMARK    1  A    between atoms: C_3  and  C_4 
REMARK    2  A    between atoms: C_4  and  C_5 
REMARK       I    between atoms: C_5  and  N_6 
REMARK    3  A    between atoms: N_6  and  C_7 
REMARK    4  A    between atoms: C_7  and  C_8 
REMARK    5  A    between atoms: C_8  and  O_9 
REMARK    6  A    between atoms: C_15  and  N_16 
REMARK    7  A    between atoms: N_16  and  C_17 
REMARK    8  A    between atoms: C_26  and  C_27 
REMARK    9  A    between atoms: C_27  and  O_28 
REMARK   10  A    between atoms: C_30  and  O_31 
ROOT
HETATM    1  C   UNL     1      19.973  46.538  44.410  1.00  0.00     0.016 C 
HETATM    2  C   UNL     1      19.568  46.206  45.883  1.00  0.00    -0.030 C 
HETATM    3  C   UNL     1      20.872  46.108  46.794  1.00  0.00     0.056 C 
HETATM    4  C   UNL     1      21.347  47.485  47.200  1.00  0.00     0.056 C 
HETATM    5  C   UNL     1      20.637  48.644  46.972  1.00  0.00     0.012 C 
HETATM    6  S   UNL     1      21.505  49.991  47.536  1.00  0.00    -0.055 SA
HETATM    7  C   UNL     1      22.628  48.920  48.298  1.00  0.00     0.172 C 
HETATM    8  N   UNL     1      22.481  47.650  47.976  1.00  0.00    -0.227 NA
HETATM    9  C   UNL     1      19.289  48.737  46.354  1.00  0.00     0.055 C 
HETATM   10  C   UNL     1      18.588  47.349  46.390  1.00  0.00     0.012 C 
HETATM   11  C   UNL     1      17.779  47.027  47.728  1.00  0.00     0.008 C 
HETATM   12  C   UNL     1      16.413  47.766  47.606  1.00  0.00     0.020 C 
HETATM   13  C   UNL     1      17.467  45.500  47.840  1.00  0.00     0.128 C 
HETATM   14  C   UNL     1      17.453  44.814  46.482  1.00  0.00     0.033 C 
HETATM   15  C   UNL     1      18.839  44.826  45.838  1.00  0.00     0.013 C 
ENDROOT
BRANCH   3  16
HETATM   16  C   UNL     1      22.001  45.301  46.129  1.00  0.00     0.114 C 
BRANCH  16  17
HETATM   17  C   UNL     1      22.627  44.284  47.058  1.00  0.00     0.218 C 
HETATM   18  N   UNL     1      22.174  44.326  48.353  1.00  0.00    -0.359 N 
HETATM   19  H   UNL     1      21.218  44.662  48.494  1.00  0.00     0.162 HD
HETATM   20  O   UNL     1      23.512  43.524  46.670  1.00  0.00    -0.274 OA
BRANCH  18  21
HETATM   21  C   UNL     1      22.724  43.436  49.360  1.00  0.00     0.148 C 
BRANCH  21  22
HETATM   22  C   UNL     1      23.724  44.149  50.274  1.00  0.00     0.186 C 
BRANCH  22  23
HETATM   23  O   UNL     1      24.152  43.329  51.365  1.00  0.00    -0.394 OA
HETATM   24  C   UNL     1      25.240  43.898  52.082  1.00  0.00     0.201 C 
ENDBRANCH  22  23
ENDBRANCH  21  22
ENDBRANCH  18  21
ENDBRANCH  16  17
ENDBRANCH   3  16
BRANCH  11  25
HETATM   25  C   UNL     1      18.435  47.491  49.058  1.00  0.00     0.176 C 
BRANCH  25  26
HETATM   26  O   UNL     1      17.510  47.533  50.139  1.00  0.00    -0.400 OA
HETATM   27  H   UNL     1      16.743  48.043  49.822  1.00  0.00     0.209 HD
ENDBRANCH  25  26
ENDBRANCH  11  25
BRANCH   7  28
HETATM   28  N   UNL     1      23.531  49.433  49.172  1.00  0.00    -0.334 N 
HETATM   29  H   UNL     1      23.222  49.401  50.137  1.00  0.00     0.168 HD
BRANCH  28  30
HETATM   30  C   UNL     1      24.913  49.128  49.100  1.00  0.00     0.051 A 
HETATM   31  C   UNL     1      25.877  49.921  48.473  1.00  0.00     0.145 A 
HETATM   32  N   UNL     1      27.202  49.622  48.402  1.00  0.00    -0.271 NA
HETATM   33  C   UNL     1      27.600  48.487  49.009  1.00  0.00     0.116 A 
HETATM   34  C   UNL     1      26.743  47.651  49.701  1.00  0.00     0.021 A 
HETATM   35  C   UNL     1      25.390  47.987  49.757  1.00  0.00     0.032 A 
ENDBRANCH  28  30
ENDBRANCH   7  28
BRANCH  13  36
HETATM   36  O   UNL     1      18.424  44.844  48.671  1.00  0.00    -0.395 OA
HETATM   37  H   UNL     1      19.079  45.505  48.962  1.00  0.00     0.210 HD
ENDBRANCH  13  36
TORSDOF 10
ENDMDL
MODEL 9
REMARK VINA RESULT:      -6.8      1.749      2.268
REMARK  10 active torsions:
REMARK  status: ('A' for Active; 'I' for Inactive)
REMARK    1  A    between atoms: C_3  and  C_4 
REMARK    2  A    between atoms: C_4  and  C_5 
REMARK       I    between atoms: C_5  and  N_6 
REMARK    3  A    between atoms: N_6  and  C_7 
REMARK    4  A    between atoms: C_7  and  C_8 
REMARK    5  A    between atoms: C_8  and  O_9 
REMARK    6  A    between atoms: C_15  and  N_16 
REMARK    7  A    between atoms: N_16  and  C_17 
REMARK    8  A    between atoms: C_26  and  C_27 
REMARK    9  A    between atoms: C_27  and  O_28 
REMARK   10  A    between atoms: C_30  and  O_31 
ROOT
HETATM    1  C   UNL     1      27.002  45.642  50.053  1.00  0.00     0.016 C 
HETATM    2  C   UNL     1      26.299  45.117  51.347  1.00  0.00    -0.030 C 
HETATM    3  C   UNL     1      25.381  43.863  50.994  1.00  0.00     0.056 C 
HETATM    4  C   UNL     1      26.210  42.603  50.893  1.00  0.00     0.056 C 
HETATM    5  C   UNL     1      27.539  42.523  51.248  1.00  0.00     0.012 C 
HETATM    6  S   UNL     1      28.136  40.959  50.962  1.00  0.00    -0.055 SA
HETATM    7  C   UNL     1      26.521  40.423  50.658  1.00  0.00     0.172 C 
HETATM    8  N   UNL     1      25.629  41.389  50.570  1.00  0.00    -0.227 NA
HETATM    9  C   UNL     1      28.356  43.620  51.831  1.00  0.00     0.055 C 
HETATM   10  C   UNL     1      27.429  44.734  52.395  1.00  0.00     0.012 C 
HETATM   11  C   UNL     1      26.936  44.515  53.898  1.00  0.00     0.008 C 
HETATM   12  C   UNL     1      28.113  44.962  54.817  1.00  0.00     0.020 C 
HETATM   13  C   UNL     1      25.720  45.438  54.228  1.00  0.00     0.128 C 
HETATM   14  C   UNL     1      25.673  46.671  53.338  1.00  0.00     0.033 C 
HETATM   15  C   UNL     1      25.422  46.294  51.879  1.00  0.00     0.013 C 
ENDROOT
BRANCH   3  16
HETATM   16  C   UNL     1      24.541  44.084  49.723  1.00  0.00     0.114 C 
BRANCH  16  17
HETATM   17  C   UNL     1      23.458  43.043  49.543  1.00  0.00     0.218 C 
HETATM   18  N   UNL     1      23.618  42.221  48.454  1.00  0.00    -0.359 N 
HETATM   19  H   UNL     1      24.579  42.053  48.145  1.00  0.00     0.162 HD
HETATM   20  O   UNL     1      22.488  42.992  50.296  1.00  0.00    -0.274 OA
BRANCH  18  21
HETATM   21  C   UNL     1      22.628  41.208  48.137  1.00  0.00     0.148 C 
BRANCH  21  22
HETATM   22  C   UNL     1      22.738  40.728  46.688  1.00  0.00     0.186 C 
BRANCH  22  23
HETATM   23  O   UNL     1      24.095  40.621  46.247  1.00  0.00    -0.394 OA
HETATM   24  C   UNL     1      24.295  41.183  44.956  1.00  0.00     0.201 C 
ENDBRANCH  22  23
ENDBRANCH  21  22
ENDBRANCH  18  21
ENDBRANCH  16  17
ENDBRANCH   3  16
BRANCH  11  25
HETATM   25  C   UNL     1      26.569  43.059  54.298  1.00  0.00     0.176 C 
BRANCH  25  26
HETATM   26  O   UNL     1      25.810  42.997  55.500  1.00  0.00    -0.400 OA
HETATM   27  H   UNL     1      26.113  43.739  56.052  1.00  0.00     0.209 HD
ENDBRANCH  25  26
ENDBRANCH  11  25
BRANCH   7  28
HETATM   28  N   UNL     1      26.280  39.090  50.568  1.00  0.00    -0.334 N 
HETATM   29  H   UNL     1      25.381  38.815  50.946  1.00  0.00     0.168 HD
BRANCH  28  30
HETATM   30  C   UNL     1      26.554  38.349  49.391  1.00  0.00     0.051 A 
HETATM   31  C   UNL     1      26.716  36.963  49.337  1.00  0.00     0.145 A 
HETATM   32  N   UNL     1      26.983  36.257  48.205  1.00  0.00    -0.271 NA
HETATM   33  C   UNL     1      27.067  36.959  47.058  1.00  0.00     0.116 A 
HETATM   34  C   UNL     1      26.875  38.326  46.985  1.00  0.00     0.021 A 
HETATM   35  C   UNL     1      26.601  39.021  48.163  1.00  0.00     0.032 A 
ENDBRANCH  28  30
ENDBRANCH   7  28
BRANCH  13  36
HETATM   36  O   UNL     1      24.489  44.728  54.087  1.00  0.00    -0.395 OA
HETATM   37  H   UNL     1      24.205  44.795  53.157  1.00  0.00     0.210 HD
ENDBRANCH  13  36
TORSDOF 10
ENDMDL
MODEL 10
REMARK VINA RESULT:      -6.7     10.884     15.206
REMARK  10 active torsions:
REMARK  status: ('A' for Active; 'I' for Inactive)
REMARK    1  A    between atoms: C_3  and  C_4 
REMARK    2  A    between atoms: C_4  and  C_5 
REMARK       I    between atoms: C_5  and  N_6 
REMARK    3  A    between atoms: N_6  and  C_7 
REMARK    4  A    between atoms: C_7  and  C_8 
REMARK    5  A    between atoms: C_8  and  O_9 
REMARK    6  A    between atoms: C_15  and  N_16 
REMARK    7  A    between atoms: N_16  and  C_17 
REMARK    8  A    between atoms: C_26  and  C_27 
REMARK    9  A    between atoms: C_27  and  O_28 
REMARK   10  A    between atoms: C_30  and  O_31 
ROOT
HETATM    1  C   UNL     1      19.785  51.728  48.502  1.00  0.00     0.016 C 
HETATM    2  C   UNL     1      18.605  50.706  48.420  1.00  0.00    -0.030 C 
HETATM    3  C   UNL     1      17.215  51.486  48.384  1.00  0.00     0.056 C 
HETATM    4  C   UNL     1      16.919  51.991  46.991  1.00  0.00     0.056 C 
HETATM    5  C   UNL     1      17.655  51.655  45.875  1.00  0.00     0.012 C 
HETATM    6  S   UNL     1      17.042  52.443  44.501  1.00  0.00    -0.055 SA
HETATM    7  C   UNL     1      15.673  52.947  45.429  1.00  0.00     0.172 C 
HETATM    8  N   UNL     1      15.774  52.721  46.723  1.00  0.00    -0.227 NA
HETATM    9  C   UNL     1      18.806  50.716  45.838  1.00  0.00     0.055 C 
HETATM   10  C   UNL     1      18.812  49.826  47.113  1.00  0.00     0.012 C 
HETATM   11  C   UNL     1      17.929  48.499  47.024  1.00  0.00     0.008 C 
HETATM   12  C   UNL     1      18.778  47.457  46.236  1.00  0.00     0.020 C 
HETATM   13  C   UNL     1      17.671  47.902  48.444  1.00  0.00     0.128 C 
HETATM   14  C   UNL     1      18.735  48.320  49.448  1.00  0.00     0.033 C 
HETATM   15  C   UNL     1      18.696  49.826  49.705  1.00  0.00     0.013 C 
ENDROOT
BRANCH   3  16
HETATM   16  C   UNL     1      17.148  52.624  49.419  1.00  0.00     0.114 C 
BRANCH  16  17
HETATM   17  C   UNL     1      15.774  52.785  50.032  1.00  0.00     0.218 C 
HETATM   18  N   UNL     1      15.594  53.937  50.757  1.00  0.00    -0.359 N 
HETATM   19  H   UNL     1      16.153  54.747  50.477  1.00  0.00     0.162 HD
HETATM   20  O   UNL     1      14.918  51.910  49.920  1.00  0.00    -0.274 OA
BRANCH  18  21
HETATM   21  C   UNL     1      14.338  54.195  51.438  1.00  0.00     0.148 C 
BRANCH  21  22
HETATM   22  C   UNL     1      14.475  55.284  52.505  1.00  0.00     0.186 C 
BRANCH  22  23
HETATM   23  O   UNL     1      13.338  55.352  53.370  1.00  0.00    -0.394 OA
HETATM   24  C   UNL     1      13.101  56.666  53.860  1.00  0.00     0.201 C 
ENDBRANCH  22  23
ENDBRANCH  21  22
ENDBRANCH  18  21
ENDBRANCH  16  17
ENDBRANCH   3  16
BRANCH  11  25
HETATM   25  C   UNL     1      16.565  48.627  46.291  1.00  0.00     0.176 C 
BRANCH  25  26
HETATM   26  O   UNL     1      15.800  47.428  46.345  1.00  0.00    -0.400 OA
HETATM   27  H   UNL     1      16.427  46.698  46.195  1.00  0.00     0.209 HD
ENDBRANCH  25  26
ENDBRANCH  11  25
BRANCH   7  28
HETATM   28  N   UNL     1      14.610  53.491  44.783  1.00  0.00    -0.334 N 
HETATM   29  H   UNL     1      13.717  53.138  45.108  1.00  0.00     0.168 HD
BRANCH  28  30
HETATM   30  C   UNL     1      14.513  54.881  44.522  1.00  0.00     0.051 A 
HETATM   31  C   UNL     1      14.904  55.501  43.333  1.00  0.00     0.145 A 
HETATM   32  N   UNL     1      14.812  56.837  43.089  1.00  0.00    -0.271 NA
HETATM   33  C   UNL     1      14.279  57.596  44.065  1.00  0.00     0.116 A 
HETATM   34  C   UNL     1      13.813  57.083  45.262  1.00  0.00     0.021 A 
HETATM   35  C   UNL     1      13.920  55.710  45.481  1.00  0.00     0.032 A 
ENDBRANCH  28  30
ENDBRANCH   7  28
BRANCH  13  36
HETATM   36  O   UNL     1      16.394  48.303  48.941  1.00  0.00    -0.395 OA
HETATM   37  H   UNL     1      15.767  48.315  48.195  1.00  0.00     0.210 HD
ENDBRANCH  13  36
TORSDOF 10
ENDMDL
