MODEL 1
REMARK VINA RESULT:      -8.8      0.000      0.000
REMARK  4 active torsions:
REMARK  status: ('A' for Active; 'I' for Inactive)
REMARK    1  A    between atoms: C_8  and  N_9 
REMARK       I    between atoms: N_9  and  C_10 
REMARK       I    between atoms: C_10  and  N_11 
REMARK    2  A    between atoms: N_11  and  C_12 
REMARK    3  A    between atoms: C_15  and  O_16 
REMARK    4  A    between atoms: O_16  and  C_17 
ROOT
HETATM    1  C   UNL     1      25.459  45.068  50.834  1.00  0.00     0.054 A 
HETATM    2  C   UNL     1      24.975  44.520  52.019  1.00  0.00     0.149 A 
HETATM    3  N   UNL     1      25.717  43.767  52.872  1.00  0.00    -0.235 NA
HETATM    4  C   UNL     1      27.005  43.549  52.535  1.00  0.00     0.169 A 
HETATM    5  C   UNL     1      27.587  44.058  51.385  1.00  0.00     0.060 A 
HETATM    6  C   UNL     1      26.801  44.828  50.526  1.00  0.00     0.035 A 
ENDROOT
BRANCH   1   7
HETATM    7  N   UNL     1      24.705  45.834  49.919  1.00  0.00    -0.307 N 
HETATM    8  C   UNL     1      24.475  47.202  49.975  1.00  0.00     0.325 C 
HETATM    9  N   UNL     1      23.674  47.603  48.924  1.00  0.00    -0.305 N 
HETATM   10  O   UNL     1      24.923  47.938  50.841  1.00  0.00    -0.247 OA
HETATM   11  H   UNL     1      23.623  46.993  48.124  1.00  0.00     0.171 HD
HETATM   12  H   UNL     1      24.198  45.320  49.217  1.00  0.00     0.170 HD
BRANCH   9  13
HETATM   13  C   UNL     1      23.097  48.854  48.753  1.00  0.00     0.086 A 
HETATM   14  C   UNL     1      23.825  49.935  48.289  1.00  0.00     0.052 A 
HETATM   15  C   UNL     1      25.244  50.095  47.897  1.00  0.00     0.072 C 
HETATM   16  N   UNL     1      22.950  50.982  48.242  1.00  0.00    -0.280 N 
HETATM   17  H   UNL     1      23.131  51.939  47.959  1.00  0.00     0.189 HD
HETATM   18  N   UNL     1      21.707  50.664  48.608  1.00  0.00    -0.177 NA
HETATM   19  C   UNL     1      21.773  49.360  48.921  1.00  0.00     0.079 A 
HETATM   20  C   UNL     1      20.519  48.680  49.333  1.00  0.00     0.075 C 
ENDBRANCH   9  13
ENDBRANCH   1   7
BRANCH   4  21
HETATM   21  O   UNL     1      27.829  42.768  53.341  1.00  0.00    -0.292 OA
BRANCH  21  22
HETATM   22  C   UNL     1      28.601  43.434  54.261  1.00  0.00     0.078 A 
HETATM   23  C   UNL     1      29.839  42.890  54.607  1.00  0.00     0.040 A 
HETATM   24  C   UNL     1      30.666  43.573  55.499  1.00  0.00     0.045 A 
HETATM   25  C   UNL     1      30.251  44.796  56.019  1.00  0.00     0.116 A 
HETATM   26  F   UNL     1      31.048  45.451  56.874  1.00  0.00    -0.206 F 
HETATM   27  C   UNL     1      29.027  45.354  55.660  1.00  0.00     0.045 A 
HETATM   28  C   UNL     1      28.198  44.673  54.767  1.00  0.00     0.040 A 
ENDBRANCH  21  22
ENDBRANCH   4  21
TORSDOF 4
ENDMDL
MODEL 2
REMARK VINA RESULT:      -8.6      0.306      1.648
REMARK  4 active torsions:
REMARK  status: ('A' for Active; 'I' for Inactive)
REMARK    1  A    between atoms: C_8  and  N_9 
REMARK       I    between atoms: N_9  and  C_10 
REMARK       I    between atoms: C_10  and  N_11 
REMARK    2  A    between atoms: N_11  and  C_12 
REMARK    3  A    between atoms: C_15  and  O_16 
REMARK    4  A    between atoms: O_16  and  C_17 
ROOT
HETATM    1  C   UNL     1      25.320  45.001  50.940  1.00  0.00     0.054 A 
HETATM    2  C   UNL     1      24.893  44.540  52.183  1.00  0.00     0.149 A 
HETATM    3  N   UNL     1      25.678  43.855  53.054  1.00  0.00    -0.235 NA
HETATM    4  C   UNL     1      26.952  43.619  52.677  1.00  0.00     0.169 A 
HETATM    5  C   UNL     1      27.478  44.045  51.468  1.00  0.00     0.060 A 
HETATM    6  C   UNL     1      26.649  44.745  50.591  1.00  0.00     0.035 A 
ENDROOT
BRANCH   1   7
HETATM    7  N   UNL     1      24.520  45.694  50.005  1.00  0.00    -0.307 N 
HETATM    8  C   UNL     1      24.406  47.070  49.871  1.00  0.00     0.325 C 
HETATM    9  N   UNL     1      23.514  47.389  48.865  1.00  0.00    -0.305 N 
HETATM   10  O   UNL     1      25.015  47.879  50.556  1.00  0.00    -0.247 OA
HETATM   11  H   UNL     1      23.317  46.675  48.182  1.00  0.00     0.171 HD
HETATM   12  H   UNL     1      23.890  45.133  49.453  1.00  0.00     0.170 HD
BRANCH   9  13
HETATM   13  C   UNL     1      23.020  48.650  48.566  1.00  0.00     0.086 A 
HETATM   14  C   UNL     1      21.676  48.955  48.697  1.00  0.00     0.052 A 
HETATM   15  C   UNL     1      20.502  48.157  49.119  1.00  0.00     0.072 C 
HETATM   16  N   UNL     1      21.553  50.264  48.327  1.00  0.00    -0.280 N 
HETATM   17  H   UNL     1      20.711  50.828  48.288  1.00  0.00     0.189 HD
HETATM   18  N   UNL     1      22.708  50.842  47.994  1.00  0.00    -0.177 NA
HETATM   19  C   UNL     1      23.623  49.871  48.140  1.00  0.00     0.079 A 
HETATM   20  C   UNL     1      25.046  50.213  47.884  1.00  0.00     0.075 C 
ENDBRANCH   9  13
ENDBRANCH   1   7
BRANCH   4  21
HETATM   21  O   UNL     1      27.817  42.904  53.501  1.00  0.00    -0.292 OA
BRANCH  21  22
HETATM   22  C   UNL     1      28.568  43.635  54.388  1.00  0.00     0.078 A 
HETATM   23  C   UNL     1      29.808  43.131  54.782  1.00  0.00     0.040 A 
HETATM   24  C   UNL     1      30.614  43.878  55.641  1.00  0.00     0.045 A 
HETATM   25  C   UNL     1      30.177  45.124  56.081  1.00  0.00     0.116 A 
HETATM   26  F   UNL     1      30.953  45.841  56.904  1.00  0.00    -0.206 F 
HETATM   27  C   UNL     1      28.950  45.642  55.674  1.00  0.00     0.045 A 
HETATM   28  C   UNL     1      28.142  44.897  54.813  1.00  0.00     0.040 A 
ENDBRANCH  21  22
ENDBRANCH   4  21
TORSDOF 4
ENDMDL
MODEL 3
REMARK VINA RESULT:      -8.5      3.931      9.465
REMARK  4 active torsions:
REMARK  status: ('A' for Active; 'I' for Inactive)
REMARK    1  A    between atoms: C_8  and  N_9 
REMARK       I    between atoms: N_9  and  C_10 
REMARK       I    between atoms: C_10  and  N_11 
REMARK    2  A    between atoms: N_11  and  C_12 
REMARK    3  A    between atoms: C_15  and  O_16 
REMARK    4  A    between atoms: O_16  and  C_17 
ROOT
HETATM    1  C   UNL     1      25.010  46.425  50.254  1.00  0.00     0.054 A 
HETATM    2  C   UNL     1      25.617  47.671  50.127  1.00  0.00     0.149 A 
HETATM    3  N   UNL     1      25.128  48.686  49.370  1.00  0.00    -0.235 NA
HETATM    4  C   UNL     1      23.974  48.457  48.708  1.00  0.00     0.169 A 
HETATM    5  C   UNL     1      23.285  47.257  48.777  1.00  0.00     0.060 A 
HETATM    6  C   UNL     1      23.812  46.230  49.561  1.00  0.00     0.035 A 
ENDROOT
BRANCH   1   7
HETATM    7  N   UNL     1      25.509  45.344  51.014  1.00  0.00    -0.307 N 
HETATM    8  C   UNL     1      26.492  44.444  50.629  1.00  0.00     0.325 C 
HETATM    9  N   UNL     1      26.708  43.506  51.621  1.00  0.00    -0.305 N 
HETATM   10  O   UNL     1      27.078  44.484  49.557  1.00  0.00    -0.247 OA
HETATM   11  H   UNL     1      26.407  43.744  52.552  1.00  0.00     0.171 HD
HETATM   12  H   UNL     1      25.028  45.146  51.877  1.00  0.00     0.170 HD
BRANCH   9  13
HETATM   13  C   UNL     1      27.483  42.360  51.522  1.00  0.00     0.086 A 
HETATM   14  C   UNL     1      28.734  42.275  52.105  1.00  0.00     0.052 A 
HETATM   15  C   UNL     1      29.542  43.234  52.892  1.00  0.00     0.072 C 
HETATM   16  N   UNL     1      29.198  41.024  51.814  1.00  0.00    -0.280 N 
HETATM   17  H   UNL     1      30.087  40.608  52.070  1.00  0.00     0.189 HD
HETATM   18  N   UNL     1      28.340  40.279  51.115  1.00  0.00    -0.177 NA
HETATM   19  C   UNL     1      27.277  41.078  50.929  1.00  0.00     0.079 A 
HETATM   20  C   UNL     1      26.105  40.519  50.209  1.00  0.00     0.075 C 
ENDBRANCH   9  13
ENDBRANCH   1   7
BRANCH   4  21
HETATM   21  O   UNL     1      23.415  49.435  47.891  1.00  0.00    -0.292 OA
BRANCH  21  22
HETATM   22  C   UNL     1      22.340  50.122  48.400  1.00  0.00     0.078 A 
HETATM   23  C   UNL     1      21.254  50.374  47.560  1.00  0.00     0.040 A 
HETATM   24  C   UNL     1      20.128  51.022  48.066  1.00  0.00     0.045 A 
HETATM   25  C   UNL     1      20.097  51.397  49.406  1.00  0.00     0.116 A 
HETATM   26  F   UNL     1      19.014  52.018  49.891  1.00  0.00    -0.206 F 
HETATM   27  C   UNL     1      21.168  51.129  50.255  1.00  0.00     0.045 A 
HETATM   28  C   UNL     1      22.296  50.478  49.752  1.00  0.00     0.040 A 
ENDBRANCH  21  22
ENDBRANCH   4  21
TORSDOF 4
ENDMDL
MODEL 4
REMARK VINA RESULT:      -8.4      3.890      9.524
REMARK  4 active torsions:
REMARK  status: ('A' for Active; 'I' for Inactive)
REMARK    1  A    between atoms: C_8  and  N_9 
REMARK       I    between atoms: N_9  and  C_10 
REMARK       I    between atoms: C_10  and  N_11 
REMARK    2  A    between atoms: N_11  and  C_12 
REMARK    3  A    between atoms: C_15  and  O_16 
REMARK    4  A    between atoms: O_16  and  C_17 
ROOT
HETATM    1  C   UNL     1      25.262  46.490  50.446  1.00  0.00     0.054 A 
HETATM    2  C   UNL     1      25.931  47.686  50.195  1.00  0.00     0.149 A 
HETATM    3  N   UNL     1      25.457  48.671  49.389  1.00  0.00    -0.235 NA
HETATM    4  C   UNL     1      24.258  48.463  48.806  1.00  0.00     0.169 A 
HETATM    5  C   UNL     1      23.507  47.315  49.000  1.00  0.00     0.060 A 
HETATM    6  C   UNL     1      24.019  46.318  49.832  1.00  0.00     0.035 A 
ENDROOT
BRANCH   1   7
HETATM    7  N   UNL     1      25.741  45.441  51.260  1.00  0.00    -0.307 N 
HETATM    8  C   UNL     1      26.668  44.472  50.903  1.00  0.00     0.325 C 
HETATM    9  N   UNL     1      26.879  43.593  51.947  1.00  0.00    -0.305 N 
HETATM   10  O   UNL     1      27.214  44.414  49.811  1.00  0.00    -0.247 OA
HETATM   11  H   UNL     1      26.625  43.905  52.871  1.00  0.00     0.171 HD
HETATM   12  H   UNL     1      25.285  45.322  52.151  1.00  0.00     0.170 HD
BRANCH   9  13
HETATM   13  C   UNL     1      27.598  42.407  51.899  1.00  0.00     0.086 A 
HETATM   14  C   UNL     1      27.111  41.286  51.249  1.00  0.00     0.052 A 
HETATM   15  C   UNL     1      25.851  41.018  50.519  1.00  0.00     0.072 C 
HETATM   16  N   UNL     1      28.068  40.324  51.397  1.00  0.00    -0.280 N 
HETATM   17  H   UNL     1      28.054  39.367  51.060  1.00  0.00     0.189 HD
HETATM   18  N   UNL     1      29.149  40.734  52.063  1.00  0.00    -0.177 NA
HETATM   19  C   UNL     1      28.884  42.012  52.376  1.00  0.00     0.079 A 
HETATM   20  C   UNL     1      29.930  42.783  53.096  1.00  0.00     0.075 C 
ENDBRANCH   9  13
ENDBRANCH   1   7
BRANCH   4  21
HETATM   21  O   UNL     1      23.710  49.411  47.947  1.00  0.00    -0.292 OA
BRANCH  21  22
HETATM   22  C   UNL     1      22.600  50.083  48.398  1.00  0.00     0.078 A 
HETATM   23  C   UNL     1      21.532  50.267  47.518  1.00  0.00     0.040 A 
HETATM   24  C   UNL     1      20.372  50.899  47.966  1.00  0.00     0.045 A 
HETATM   25  C   UNL     1      20.290  51.324  49.289  1.00  0.00     0.116 A 
HETATM   26  F   UNL     1      19.175  51.929  49.718  1.00  0.00    -0.206 F 
HETATM   27  C   UNL     1      21.344  51.123  50.177  1.00  0.00     0.045 A 
HETATM   28  C   UNL     1      22.506  50.490  49.732  1.00  0.00     0.040 A 
ENDBRANCH  21  22
ENDBRANCH   4  21
TORSDOF 4
ENDMDL
MODEL 5
REMARK VINA RESULT:      -8.0      3.886      9.601
REMARK  4 active torsions:
REMARK  status: ('A' for Active; 'I' for Inactive)
REMARK    1  A    between atoms: C_8  and  N_9 
REMARK       I    between atoms: N_9  and  C_10 
REMARK       I    between atoms: C_10  and  N_11 
REMARK    2  A    between atoms: N_11  and  C_12 
REMARK    3  A    between atoms: C_15  and  O_16 
REMARK    4  A    between atoms: O_16  and  C_17 
ROOT
HETATM    1  C   UNL     1      24.062  46.264  49.437  1.00  0.00     0.054 A 
HETATM    2  C   UNL     1      23.867  47.634  49.589  1.00  0.00     0.149 A 
HETATM    3  N   UNL     1      22.810  48.316  49.077  1.00  0.00    -0.235 NA
HETATM    4  C   UNL     1      21.897  47.604  48.384  1.00  0.00     0.169 A 
HETATM    5  C   UNL     1      21.993  46.236  48.186  1.00  0.00     0.060 A 
HETATM    6  C   UNL     1      23.090  45.560  48.721  1.00  0.00     0.035 A 
ENDROOT
BRANCH   1   7
HETATM    7  N   UNL     1      25.163  45.534  49.938  1.00  0.00    -0.307 N 
HETATM    8  C   UNL     1      25.172  44.712  51.056  1.00  0.00     0.325 C 
HETATM    9  N   UNL     1      26.431  44.179  51.256  1.00  0.00    -0.305 N 
HETATM   10  O   UNL     1      24.196  44.498  51.759  1.00  0.00    -0.247 OA
HETATM   11  H   UNL     1      27.059  44.171  50.468  1.00  0.00     0.171 HD
HETATM   12  H   UNL     1      26.053  45.712  49.501  1.00  0.00     0.170 HD
BRANCH   9  13
HETATM   13  C   UNL     1      26.859  43.460  52.363  1.00  0.00     0.086 A 
HETATM   14  C   UNL     1      27.156  42.111  52.284  1.00  0.00     0.052 A 
HETATM   15  C   UNL     1      27.108  41.136  51.171  1.00  0.00     0.072 C 
HETATM   16  N   UNL     1      27.543  41.740  53.540  1.00  0.00    -0.280 N 
HETATM   17  H   UNL     1      27.826  40.821  53.864  1.00  0.00     0.189 HD
HETATM   18  N   UNL     1      27.550  42.742  54.421  1.00  0.00    -0.177 NA
HETATM   19  C   UNL     1      27.139  43.809  53.718  1.00  0.00     0.079 A 
HETATM   20  C   UNL     1      27.080  45.119  54.415  1.00  0.00     0.075 C 
ENDBRANCH   9  13
ENDBRANCH   1   7
BRANCH   4  21
HETATM   21  O   UNL     1      20.796  48.228  47.806  1.00  0.00    -0.292 OA
BRANCH  21  22
HETATM   22  C   UNL     1      20.265  49.296  48.488  1.00  0.00     0.078 A 
HETATM   23  C   UNL     1      20.488  50.580  47.988  1.00  0.00     0.040 A 
HETATM   24  C   UNL     1      19.916  51.678  48.630  1.00  0.00     0.045 A 
HETATM   25  C   UNL     1      19.118  51.476  49.753  1.00  0.00     0.116 A 
HETATM   26  F   UNL     1      18.569  52.531  50.368  1.00  0.00    -0.206 F 
HETATM   27  C   UNL     1      18.875  50.195  50.243  1.00  0.00     0.045 A 
HETATM   28  C   UNL     1      19.444  49.095  49.601  1.00  0.00     0.040 A 
ENDBRANCH  21  22
ENDBRANCH   4  21
TORSDOF 4
ENDMDL
MODEL 6
REMARK VINA RESULT:      -7.8      6.053     11.598
REMARK  4 active torsions:
REMARK  status: ('A' for Active; 'I' for Inactive)
REMARK    1  A    between atoms: C_8  and  N_9 
REMARK       I    between atoms: N_9  and  C_10 
REMARK       I    between atoms: C_10  and  N_11 
REMARK    2  A    between atoms: N_11  and  C_12 
REMARK    3  A    between atoms: C_15  and  O_16 
REMARK    4  A    between atoms: O_16  and  C_17 
ROOT
HETATM    1  C   UNL     1      20.924  49.757  49.157  1.00  0.00     0.054 A 
HETATM    2  C   UNL     1      19.761  49.070  48.816  1.00  0.00     0.149 A 
HETATM    3  N   UNL     1      18.684  49.642  48.219  1.00  0.00    -0.235 NA
HETATM    4  C   UNL     1      18.765  50.960  47.940  1.00  0.00     0.169 A 
HETATM    5  C   UNL     1      19.880  51.730  48.226  1.00  0.00     0.060 A 
HETATM    6  C   UNL     1      20.972  51.118  48.842  1.00  0.00     0.035 A 
ENDROOT
BRANCH   1   7
HETATM    7  N   UNL     1      22.049  49.194  49.799  1.00  0.00    -0.307 N 
HETATM    8  C   UNL     1      23.157  48.629  49.184  1.00  0.00     0.325 C 
HETATM    9  N   UNL     1      24.050  48.160  50.129  1.00  0.00    -0.305 N 
HETATM   10  O   UNL     1      23.311  48.561  47.974  1.00  0.00    -0.247 OA
HETATM   11  H   UNL     1      23.974  48.535  51.061  1.00  0.00     0.171 HD
HETATM   12  H   UNL     1      21.990  49.098  50.800  1.00  0.00     0.170 HD
BRANCH   9  13
HETATM   13  C   UNL     1      25.176  47.386  49.891  1.00  0.00     0.086 A 
HETATM   14  C   UNL     1      25.154  46.008  50.021  1.00  0.00     0.052 A 
HETATM   15  C   UNL     1      24.091  45.054  50.413  1.00  0.00     0.072 C 
HETATM   16  N   UNL     1      26.414  45.583  49.710  1.00  0.00    -0.280 N 
HETATM   17  H   UNL     1      26.773  44.635  49.706  1.00  0.00     0.189 HD
HETATM   18  N   UNL     1      27.244  46.566  49.360  1.00  0.00    -0.177 NA
HETATM   19  C   UNL     1      26.504  47.681  49.458  1.00  0.00     0.079 A 
HETATM   20  C   UNL     1      27.137  48.972  49.085  1.00  0.00     0.075 C 
ENDBRANCH   9  13
ENDBRANCH   1   7
BRANCH   4  21
HETATM   21  O   UNL     1      17.696  51.629  47.349  1.00  0.00    -0.292 OA
BRANCH  21  22
HETATM   22  C   UNL     1      17.673  51.661  45.976  1.00  0.00     0.078 A 
HETATM   23  C   UNL     1      17.017  52.721  45.348  1.00  0.00     0.040 A 
HETATM   24  C   UNL     1      17.024  52.807  43.956  1.00  0.00     0.045 A 
HETATM   25  C   UNL     1      17.698  51.842  43.213  1.00  0.00     0.116 A 
HETATM   26  F   UNL     1      17.705  51.927  41.876  1.00  0.00    -0.206 F 
HETATM   27  C   UNL     1      18.373  50.795  43.835  1.00  0.00     0.045 A 
HETATM   28  C   UNL     1      18.369  50.707  45.228  1.00  0.00     0.040 A 
ENDBRANCH  21  22
ENDBRANCH   4  21
TORSDOF 4
ENDMDL
MODEL 7
REMARK VINA RESULT:      -7.7      2.920      4.111
REMARK  4 active torsions:
REMARK  status: ('A' for Active; 'I' for Inactive)
REMARK    1  A    between atoms: C_8  and  N_9 
REMARK       I    between atoms: N_9  and  C_10 
REMARK       I    between atoms: C_10  and  N_11 
REMARK    2  A    between atoms: N_11  and  C_12 
REMARK    3  A    between atoms: C_15  and  O_16 
REMARK    4  A    between atoms: O_16  and  C_17 
ROOT
HETATM    1  C   UNL     1      23.717  46.673  49.488  1.00  0.00     0.054 A 
HETATM    2  C   UNL     1      23.844  45.327  49.155  1.00  0.00     0.149 A 
HETATM    3  N   UNL     1      25.009  44.632  49.214  1.00  0.00    -0.235 NA
HETATM    4  C   UNL     1      26.104  45.304  49.627  1.00  0.00     0.169 A 
HETATM    5  C   UNL     1      26.082  46.641  49.992  1.00  0.00     0.060 A 
HETATM    6  C   UNL     1      24.871  47.331  49.921  1.00  0.00     0.035 A 
ENDROOT
BRANCH   1   7
HETATM    7  N   UNL     1      22.524  47.425  49.414  1.00  0.00    -0.307 N 
HETATM    8  C   UNL     1      21.841  47.785  48.261  1.00  0.00     0.325 C 
HETATM    9  N   UNL     1      20.726  48.540  48.572  1.00  0.00    -0.305 N 
HETATM   10  O   UNL     1      22.189  47.473  47.132  1.00  0.00    -0.247 OA
HETATM   11  H   UNL     1      20.373  48.474  49.513  1.00  0.00     0.171 HD
HETATM   12  H   UNL     1      22.196  47.829  50.278  1.00  0.00     0.170 HD
BRANCH   9  13
HETATM   13  C   UNL     1      19.909  49.217  47.678  1.00  0.00     0.086 A 
HETATM   14  C   UNL     1      19.800  50.596  47.693  1.00  0.00     0.052 A 
HETATM   15  C   UNL     1      20.410  51.642  48.545  1.00  0.00     0.072 C 
HETATM   16  N   UNL     1      18.929  50.913  46.690  1.00  0.00    -0.280 N 
HETATM   17  H   UNL     1      18.600  51.830  46.411  1.00  0.00     0.189 HD
HETATM   18  N   UNL     1      18.486  49.856  46.006  1.00  0.00    -0.177 NA
HETATM   19  C   UNL     1      19.080  48.805  46.592  1.00  0.00     0.079 A 
HETATM   20  C   UNL     1      18.823  47.457  46.025  1.00  0.00     0.075 C 
ENDBRANCH   9  13
ENDBRANCH   1   7
BRANCH   4  21
HETATM   21  O   UNL     1      27.343  44.674  49.694  1.00  0.00    -0.292 OA
BRANCH  21  22
HETATM   22  C   UNL     1      27.495  43.714  50.665  1.00  0.00     0.078 A 
HETATM   23  C   UNL     1      27.752  44.128  51.973  1.00  0.00     0.040 A 
HETATM   24  C   UNL     1      27.857  43.177  52.987  1.00  0.00     0.045 A 
HETATM   25  C   UNL     1      27.689  41.829  52.683  1.00  0.00     0.116 A 
HETATM   26  F   UNL     1      27.790  40.917  53.659  1.00  0.00    -0.206 F 
HETATM   27  C   UNL     1      27.411  41.413  51.384  1.00  0.00     0.045 A 
HETATM   28  C   UNL     1      27.303  42.362  50.367  1.00  0.00     0.040 A 
ENDBRANCH  21  22
ENDBRANCH   4  21
TORSDOF 4
ENDMDL
MODEL 8
REMARK VINA RESULT:      -7.4      5.759      8.637
REMARK  4 active torsions:
REMARK  status: ('A' for Active; 'I' for Inactive)
REMARK    1  A    between atoms: C_8  and  N_9 
REMARK       I    between atoms: N_9  and  C_10 
REMARK       I    between atoms: C_10  and  N_11 
REMARK    2  A    between atoms: N_11  and  C_12 
REMARK    3  A    between atoms: C_15  and  O_16 
REMARK    4  A    between atoms: O_16  and  C_17 
ROOT
HETATM    1  C   UNL     1      27.272  41.012  51.464  1.00  0.00     0.054 A 
HETATM    2  C   UNL     1      28.410  40.332  51.037  1.00  0.00     0.149 A 
HETATM    3  N   UNL     1      28.457  39.536  49.938  1.00  0.00    -0.235 NA
HETATM    4  C   UNL     1      27.319  39.412  49.222  1.00  0.00     0.169 A 
HETATM    5  C   UNL     1      26.138  40.056  49.554  1.00  0.00     0.060 A 
HETATM    6  C   UNL     1      26.118  40.866  50.690  1.00  0.00     0.035 A 
ENDROOT
BRANCH   1   7
HETATM    7  N   UNL     1      27.189  41.826  52.615  1.00  0.00    -0.307 N 
HETATM    8  C   UNL     1      27.602  43.146  52.728  1.00  0.00     0.325 C 
HETATM    9  N   UNL     1      27.387  43.614  54.010  1.00  0.00    -0.305 N 
HETATM   10  O   UNL     1      28.089  43.794  51.814  1.00  0.00    -0.247 OA
HETATM   11  H   UNL     1      26.717  43.118  54.576  1.00  0.00     0.171 HD
HETATM   12  H   UNL     1      26.900  41.369  53.466  1.00  0.00     0.170 HD
BRANCH   9  13
HETATM   13  C   UNL     1      27.831  44.819  54.537  1.00  0.00     0.086 A 
HETATM   14  C   UNL     1      29.078  44.940  55.124  1.00  0.00     0.052 A 
HETATM   15  C   UNL     1      30.174  43.973  55.362  1.00  0.00     0.072 C 
HETATM   16  N   UNL     1      29.179  46.243  55.520  1.00  0.00    -0.280 N 
HETATM   17  H   UNL     1      29.952  46.696  55.996  1.00  0.00     0.189 HD
HETATM   18  N   UNL     1      28.114  46.985  55.213  1.00  0.00    -0.177 NA
HETATM   19  C   UNL     1      27.276  46.132  54.604  1.00  0.00     0.079 A 
HETATM   20  C   UNL     1      25.990  46.668  54.090  1.00  0.00     0.075 C 
ENDBRANCH   9  13
ENDBRANCH   1   7
BRANCH   4  21
HETATM   21  O   UNL     1      27.273  38.598  48.094  1.00  0.00    -0.292 OA
BRANCH  21  22
HETATM   22  C   UNL     1      27.708  39.153  46.915  1.00  0.00     0.078 A 
HETATM   23  C   UNL     1      27.918  38.311  45.822  1.00  0.00     0.040 A 
HETATM   24  C   UNL     1      28.308  38.855  44.599  1.00  0.00     0.045 A 
HETATM   25  C   UNL     1      28.468  40.233  44.481  1.00  0.00     0.116 A 
HETATM   26  F   UNL     1      28.842  40.754  43.305  1.00  0.00    -0.206 F 
HETATM   27  C   UNL     1      28.239  41.080  45.562  1.00  0.00     0.045 A 
HETATM   28  C   UNL     1      27.847  40.538  46.788  1.00  0.00     0.040 A 
ENDBRANCH  21  22
ENDBRANCH   4  21
TORSDOF 4
ENDMDL
MODEL 9
REMARK VINA RESULT:      -7.3      6.170      9.989
REMARK  4 active torsions:
REMARK  status: ('A' for Active; 'I' for Inactive)
REMARK    1  A    between atoms: C_8  and  N_9 
REMARK       I    between atoms: N_9  and  C_10 
REMARK       I    between atoms: C_10  and  N_11 
REMARK    2  A    between atoms: N_11  and  C_12 
REMARK    3  A    between atoms: C_15  and  O_16 
REMARK    4  A    between atoms: O_16  and  C_17 
ROOT
HETATM    1  C   UNL     1      18.780  51.563  49.435  1.00  0.00     0.054 A 
HETATM    2  C   UNL     1      18.829  50.380  50.168  1.00  0.00     0.149 A 
HETATM    3  N   UNL     1      19.659  49.342  49.888  1.00  0.00    -0.235 NA
HETATM    4  C   UNL     1      20.486  49.485  48.831  1.00  0.00     0.169 A 
HETATM    5  C   UNL     1      20.524  50.626  48.046  1.00  0.00     0.060 A 
HETATM    6  C   UNL     1      19.660  51.677  48.355  1.00  0.00     0.035 A 
ENDROOT
BRANCH   1   7
HETATM    7  N   UNL     1      17.912  52.647  49.689  1.00  0.00    -0.307 N 
HETATM    8  C   UNL     1      16.529  52.646  49.576  1.00  0.00     0.325 C 
HETATM    9  N   UNL     1      16.015  53.891  49.882  1.00  0.00    -0.305 N 
HETATM   10  O   UNL     1      15.868  51.672  49.247  1.00  0.00    -0.247 OA
HETATM   11  H   UNL     1      16.598  54.510  50.424  1.00  0.00     0.171 HD
HETATM   12  H   UNL     1      18.349  53.538  49.867  1.00  0.00     0.170 HD
BRANCH   9  13
HETATM   13  C   UNL     1      14.704  54.311  49.711  1.00  0.00     0.086 A 
HETATM   14  C   UNL     1      13.953  54.803  50.764  1.00  0.00     0.052 A 
HETATM   15  C   UNL     1      14.249  54.999  52.202  1.00  0.00     0.072 C 
HETATM   16  N   UNL     1      12.733  55.118  50.238  1.00  0.00    -0.280 N 
HETATM   17  H   UNL     1      11.923  55.497  50.716  1.00  0.00     0.189 HD
HETATM   18  N   UNL     1      12.638  54.900  48.925  1.00  0.00    -0.177 NA
HETATM   19  C   UNL     1      13.839  54.409  48.580  1.00  0.00     0.079 A 
HETATM   20  C   UNL     1      14.077  54.099  47.147  1.00  0.00     0.075 C 
ENDBRANCH   9  13
ENDBRANCH   1   7
BRANCH   4  21
HETATM   21  O   UNL     1      21.352  48.461  48.461  1.00  0.00    -0.292 OA
BRANCH  21  22
HETATM   22  C   UNL     1      22.697  48.725  48.558  1.00  0.00     0.078 A 
HETATM   23  C   UNL     1      23.213  49.810  47.846  1.00  0.00     0.040 A 
HETATM   24  C   UNL     1      24.564  50.133  47.969  1.00  0.00     0.045 A 
HETATM   25  C   UNL     1      25.376  49.379  48.811  1.00  0.00     0.116 A 
HETATM   26  F   UNL     1      26.673  49.692  48.928  1.00  0.00    -0.206 F 
HETATM   27  C   UNL     1      24.861  48.310  49.540  1.00  0.00     0.045 A 
HETATM   28  C   UNL     1      23.509  47.985  49.421  1.00  0.00     0.040 A 
ENDBRANCH  21  22
ENDBRANCH   4  21
TORSDOF 4
ENDMDL
MODEL 10
REMARK VINA RESULT:      -7.3     13.159     16.421
REMARK  4 active torsions:
REMARK  status: ('A' for Active; 'I' for Inactive)
REMARK    1  A    between atoms: C_8  and  N_9 
REMARK       I    between atoms: N_9  and  C_10 
REMARK       I    between atoms: C_10  and  N_11 
REMARK    2  A    between atoms: N_11  and  C_12 
REMARK    3  A    between atoms: C_15  and  O_16 
REMARK    4  A    between atoms: O_16  and  C_17 
ROOT
HETATM    1  C   UNL     1      34.443  51.684  43.587  1.00  0.00     0.054 A 
HETATM    2  C   UNL     1      34.250  51.075  42.350  1.00  0.00     0.149 A 
HETATM    3  N   UNL     1      33.034  50.760  41.834  1.00  0.00    -0.235 NA
HETATM    4  C   UNL     1      31.952  51.071  42.580  1.00  0.00     0.169 A 
HETATM    5  C   UNL     1      32.035  51.689  43.817  1.00  0.00     0.060 A 
HETATM    6  C   UNL     1      33.298  51.999  44.324  1.00  0.00     0.035 A 
ENDROOT
BRANCH   1   7
HETATM    7  N   UNL     1      35.695  52.000  44.158  1.00  0.00    -0.307 N 
HETATM    8  C   UNL     1      36.620  52.913  43.672  1.00  0.00     0.325 C 
HETATM    9  N   UNL     1      37.742  52.944  44.478  1.00  0.00    -0.305 N 
HETATM   10  O   UNL     1      36.455  53.589  42.667  1.00  0.00    -0.247 OA
HETATM   11  H   UNL     1      37.645  52.591  45.416  1.00  0.00     0.171 HD
HETATM   12  H   UNL     1      35.989  51.430  44.934  1.00  0.00     0.170 HD
BRANCH   9  13
HETATM   13  C   UNL     1      38.936  53.600  44.211  1.00  0.00     0.086 A 
HETATM   14  C   UNL     1      39.408  54.612  45.028  1.00  0.00     0.052 A 
HETATM   15  C   UNL     1      38.872  55.243  46.256  1.00  0.00     0.072 C 
HETATM   16  N   UNL     1      40.589  55.017  44.475  1.00  0.00    -0.280 N 
HETATM   17  H   UNL     1      41.214  55.749  44.796  1.00  0.00     0.189 HD
HETATM   18  N   UNL     1      40.937  54.333  43.384  1.00  0.00    -0.177 NA
HETATM   19  C   UNL     1      39.939  53.454  43.207  1.00  0.00     0.079 A 
HETATM   20  C   UNL     1      40.050  52.495  42.078  1.00  0.00     0.075 C 
ENDBRANCH   9  13
ENDBRANCH   1   7
BRANCH   4  21
HETATM   21  O   UNL     1      30.670  50.763  42.136  1.00  0.00    -0.292 OA
BRANCH  21  22
HETATM   22  C   UNL     1      30.196  51.487  41.069  1.00  0.00     0.078 A 
HETATM   23  C   UNL     1      29.904  50.809  39.885  1.00  0.00     0.040 A 
HETATM   24  C   UNL     1      29.371  51.511  38.804  1.00  0.00     0.045 A 
HETATM   25  C   UNL     1      29.126  52.876  38.926  1.00  0.00     0.116 A 
HETATM   26  F   UNL     1      28.613  53.548  37.887  1.00  0.00    -0.206 F 
HETATM   27  C   UNL     1      29.396  53.553  40.113  1.00  0.00     0.045 A 
HETATM   28  C   UNL     1      29.926  52.852  41.197  1.00  0.00     0.040 A 
ENDBRANCH  21  22
ENDBRANCH   4  21
TORSDOF 4
ENDMDL
