MODEL 1
REMARK VINA RESULT:      -8.8      0.000      0.000
REMARK  7 active torsions:
REMARK  status: ('A' for Active; 'I' for Inactive)
REMARK    1  A    between atoms: O_2  and  C_3 
REMARK    2  A    between atoms: C_3  and  C_4 
REMARK    3  A    between atoms: C_5  and  N_6 
REMARK       I    between atoms: N_6  and  C_7 
REMARK    4  A    between atoms: C_7  and  C_8 
REMARK    5  A    between atoms: C_8  and  N_9 
REMARK    6  A    between atoms: C_11  and  C_12 
REMARK    7  A    between atoms: C_20  and  O_21 
ROOT
HETATM    1  N   UNL     1      24.789  45.018  51.303  1.00  0.00    -0.054 N 
HETATM    2  H   UNL     1      24.066  45.517  51.829  1.00  0.00     0.281 HD
HETATM    3  C   UNL     1      25.973  45.972  51.145  1.00  0.00     0.228 C 
HETATM    4  C   UNL     1      26.514  46.413  52.547  1.00  0.00     0.055 C 
HETATM    5  C   UNL     1      26.824  45.187  53.441  1.00  0.00     0.065 C 
HETATM    6  C   UNL     1      25.652  44.200  53.476  1.00  0.00     0.066 C 
HETATM    7  C   UNL     1      25.192  43.798  52.091  1.00  0.00     0.239 C 
HETATM    8  C   UNL     1      25.648  47.415  53.328  1.00  0.00     0.010 C 
HETATM    9  C   UNL     1      26.329  47.899  54.615  1.00  0.00     0.001 C 
HETATM   10  C   UNL     1      27.508  47.039  55.058  1.00  0.00     0.003 C 
HETATM   11  C   UNL     1      27.197  45.558  54.897  1.00  0.00     0.038 C 
ENDROOT
BRANCH   1  12
HETATM   12  C   UNL     1      24.111  44.581  49.976  1.00  0.00     0.338 C 
BRANCH  12  13
HETATM   13  C   UNL     1      23.303  43.275  49.999  1.00  0.00     0.248 C 
HETATM   14  N   UNL     1      23.863  42.095  49.596  1.00  0.00    -0.319 N 
HETATM   15  H   UNL     1      23.451  41.271  50.042  1.00  0.00     0.169 HD
HETATM   16  O   UNL     1      22.190  43.246  50.531  1.00  0.00    -0.271 OA
BRANCH  14  17
HETATM   17  C   UNL     1      24.681  41.797  48.515  1.00  0.00     0.094 A 
HETATM   18  C   UNL     1      26.068  41.676  48.535  1.00  0.00     0.080 A 
HETATM   19  C   UNL     1      26.559  41.221  47.244  1.00  0.00    -0.026 A 
HETATM   20  C   UNL     1      25.519  40.974  46.368  1.00  0.00    -0.008 A 
HETATM   21  C   UNL     1      27.988  40.937  46.854  1.00  0.00     0.041 C 
HETATM   22  S   UNL     1      24.009  41.338  47.029  1.00  0.00    -0.075 SA
HETATM   23  C   UNL     1      25.662  40.439  44.975  1.00  0.00     0.047 C 
HETATM   24  C   UNL     1      27.029  39.765  44.805  1.00  0.00     0.005 C 
HETATM   25  C   UNL     1      28.151  40.656  45.351  1.00  0.00     0.005 C 
BRANCH  18  26
HETATM   26  C   UNL     1      26.851  41.974  49.743  1.00  0.00     0.296 C 
HETATM   27  O   UNL     1      27.492  43.013  49.865  1.00  0.00    -0.259 OA
BRANCH  26  28
HETATM   28  O   UNL     1      26.794  40.995  50.686  1.00  0.00    -0.322 OA
HETATM   29  C   UNL     1      27.768  41.106  51.725  1.00  0.00     0.213 C 
ENDBRANCH  26  28
ENDBRANCH  18  26
ENDBRANCH  14  17
ENDBRANCH  12  13
ENDBRANCH   1  12
BRANCH   3  30
HETATM   30  C   UNL     1      25.725  47.169  50.234  1.00  0.00    -0.027 A 
HETATM   31  C   UNL     1      24.438  47.649  49.927  1.00  0.00     0.012 A 
HETATM   32  C   UNL     1      24.273  48.771  49.109  1.00  0.00     0.043 A 
HETATM   33  C   UNL     1      25.388  49.422  48.597  1.00  0.00     0.116 A 
HETATM   34  F   UNL     1      25.222  50.499  47.820  1.00  0.00    -0.206 F 
HETATM   35  C   UNL     1      26.667  48.973  48.883  1.00  0.00     0.043 A 
HETATM   36  C   UNL     1      26.837  47.852  49.700  1.00  0.00     0.012 A 
ENDBRANCH   3  30
BRANCH   5  37
HETATM   37  O   UNL     1      27.920  44.491  52.841  1.00  0.00    -0.389 OA
HETATM   38  H   UNL     1      27.587  43.676  52.415  1.00  0.00     0.210 HD
ENDBRANCH   5  37
TORSDOF 7
ENDMDL
MODEL 2
REMARK VINA RESULT:      -8.7      3.458      7.195
REMARK  7 active torsions:
REMARK  status: ('A' for Active; 'I' for Inactive)
REMARK    1  A    between atoms: O_2  and  C_3 
REMARK    2  A    between atoms: C_3  and  C_4 
REMARK    3  A    between atoms: C_5  and  N_6 
REMARK       I    between atoms: N_6  and  C_7 
REMARK    4  A    between atoms: C_7  and  C_8 
REMARK    5  A    between atoms: C_8  and  N_9 
REMARK    6  A    between atoms: C_11  and  C_12 
REMARK    7  A    between atoms: C_20  and  O_21 
ROOT
HETATM    1  N   UNL     1      26.352  43.942  51.056  1.00  0.00    -0.054 N 
HETATM    2  H   UNL     1      27.216  44.298  50.639  1.00  0.00     0.281 HD
HETATM    3  C   UNL     1      26.663  42.561  51.633  1.00  0.00     0.228 C 
HETATM    4  C   UNL     1      27.797  42.657  52.708  1.00  0.00     0.055 C 
HETATM    5  C   UNL     1      27.460  43.715  53.788  1.00  0.00     0.065 C 
HETATM    6  C   UNL     1      27.041  45.050  53.162  1.00  0.00     0.066 C 
HETATM    7  C   UNL     1      25.927  44.890  52.149  1.00  0.00     0.239 C 
HETATM    8  C   UNL     1      29.220  42.896  52.179  1.00  0.00     0.010 C 
HETATM    9  C   UNL     1      30.278  42.827  53.290  1.00  0.00     0.001 C 
HETATM   10  C   UNL     1      29.706  42.921  54.701  1.00  0.00     0.003 C 
HETATM   11  C   UNL     1      28.617  43.981  54.781  1.00  0.00     0.038 C 
ENDROOT
BRANCH   1  12
HETATM   12  C   UNL     1      25.301  43.959  49.913  1.00  0.00     0.338 C 
BRANCH  12  13
HETATM   13  C   UNL     1      23.820  43.949  50.322  1.00  0.00     0.248 C 
HETATM   14  N   UNL     1      22.903  44.717  49.662  1.00  0.00    -0.319 N 
HETATM   15  H   UNL     1      21.954  44.335  49.686  1.00  0.00     0.169 HD
HETATM   16  O   UNL     1      23.414  43.127  51.148  1.00  0.00    -0.271 OA
BRANCH  14  17
HETATM   17  C   UNL     1      22.969  46.027  49.210  1.00  0.00     0.094 A 
HETATM   18  C   UNL     1      21.948  46.739  48.584  1.00  0.00     0.080 A 
HETATM   19  C   UNL     1      22.343  48.123  48.380  1.00  0.00    -0.026 A 
HETATM   20  C   UNL     1      23.594  48.375  48.912  1.00  0.00    -0.008 A 
HETATM   21  C   UNL     1      21.523  49.231  47.764  1.00  0.00     0.041 C 
HETATM   22  S   UNL     1      24.310  46.996  49.571  1.00  0.00    -0.075 SA
HETATM   23  C   UNL     1      24.281  49.707  48.930  1.00  0.00     0.047 C 
HETATM   24  C   UNL     1      23.260  50.832  48.719  1.00  0.00     0.005 C 
HETATM   25  C   UNL     1      22.334  50.517  47.538  1.00  0.00     0.005 C 
BRANCH  18  26
HETATM   26  C   UNL     1      20.671  46.104  48.227  1.00  0.00     0.296 C 
HETATM   27  O   UNL     1      20.599  45.209  47.391  1.00  0.00    -0.259 OA
BRANCH  26  28
HETATM   28  O   UNL     1      19.603  46.608  48.902  1.00  0.00    -0.322 OA
HETATM   29  C   UNL     1      18.448  46.856  48.099  1.00  0.00     0.213 C 
ENDBRANCH  26  28
ENDBRANCH  18  26
ENDBRANCH  14  17
ENDBRANCH  12  13
ENDBRANCH   1  12
BRANCH   3  30
HETATM   30  C   UNL     1      26.955  41.477  50.600  1.00  0.00    -0.027 A 
HETATM   31  C   UNL     1      27.853  41.654  49.532  1.00  0.00     0.012 A 
HETATM   32  C   UNL     1      28.104  40.614  48.633  1.00  0.00     0.043 A 
HETATM   33  C   UNL     1      27.465  39.391  48.796  1.00  0.00     0.116 A 
HETATM   34  F   UNL     1      27.715  38.397  47.935  1.00  0.00    -0.206 F 
HETATM   35  C   UNL     1      26.576  39.188  49.840  1.00  0.00     0.043 A 
HETATM   36  C   UNL     1      26.323  40.225  50.740  1.00  0.00     0.012 A 
ENDBRANCH   3  30
BRANCH   5  37
HETATM   37  O   UNL     1      26.324  43.235  54.512  1.00  0.00    -0.389 OA
HETATM   38  H   UNL     1      25.510  43.477  54.028  1.00  0.00     0.210 HD
ENDBRANCH   5  37
TORSDOF 7
ENDMDL
MODEL 3
REMARK VINA RESULT:      -8.6      3.664      6.453
REMARK  7 active torsions:
REMARK  status: ('A' for Active; 'I' for Inactive)
REMARK    1  A    between atoms: O_2  and  C_3 
REMARK    2  A    between atoms: C_3  and  C_4 
REMARK    3  A    between atoms: C_5  and  N_6 
REMARK       I    between atoms: N_6  and  C_7 
REMARK    4  A    between atoms: C_7  and  C_8 
REMARK    5  A    between atoms: C_8  and  N_9 
REMARK    6  A    between atoms: C_11  and  C_12 
REMARK    7  A    between atoms: C_20  and  O_21 
ROOT
HETATM    1  N   UNL     1      23.101  46.750  49.007  1.00  0.00    -0.054 N 
HETATM    2  H   UNL     1      22.477  46.770  49.818  1.00  0.00     0.281 HD
HETATM    3  C   UNL     1      22.287  47.214  47.799  1.00  0.00     0.228 C 
HETATM    4  C   UNL     1      21.729  48.659  48.034  1.00  0.00     0.055 C 
HETATM    5  C   UNL     1      22.861  49.640  48.430  1.00  0.00     0.065 C 
HETATM    6  C   UNL     1      23.723  49.082  49.567  1.00  0.00     0.066 C 
HETATM    7  C   UNL     1      24.248  47.694  49.268  1.00  0.00     0.239 C 
HETATM    8  C   UNL     1      20.564  48.787  49.029  1.00  0.00     0.010 C 
HETATM    9  C   UNL     1      19.991  50.210  49.079  1.00  0.00     0.001 C 
HETATM   10  C   UNL     1      20.896  51.268  48.457  1.00  0.00     0.003 C 
HETATM   11  C   UNL     1      22.351  51.042  48.844  1.00  0.00     0.038 C 
ENDROOT
BRANCH   1  12
HETATM   12  C   UNL     1      23.632  45.293  48.926  1.00  0.00     0.338 C 
BRANCH  12  13
HETATM   13  C   UNL     1      23.014  44.268  49.889  1.00  0.00     0.248 C 
HETATM   14  N   UNL     1      23.664  43.897  51.032  1.00  0.00    -0.319 N 
HETATM   15  H   UNL     1      23.036  43.595  51.782  1.00  0.00     0.169 HD
HETATM   16  O   UNL     1      21.853  43.886  49.722  1.00  0.00    -0.271 OA
BRANCH  14  17
HETATM   17  C   UNL     1      24.999  43.601  51.266  1.00  0.00     0.094 A 
HETATM   18  C   UNL     1      25.874  44.312  52.084  1.00  0.00     0.080 A 
HETATM   19  C   UNL     1      27.150  43.622  52.188  1.00  0.00    -0.026 A 
HETATM   20  C   UNL     1      27.132  42.423  51.501  1.00  0.00    -0.008 A 
HETATM   21  C   UNL     1      28.355  44.038  52.994  1.00  0.00     0.041 C 
HETATM   22  S   UNL     1      25.672  42.154  50.697  1.00  0.00    -0.075 SA
HETATM   23  C   UNL     1      28.256  41.433  51.447  1.00  0.00     0.047 C 
HETATM   24  C   UNL     1      29.233  41.678  52.603  1.00  0.00     0.005 C 
HETATM   25  C   UNL     1      29.590  43.165  52.713  1.00  0.00     0.005 C 
BRANCH  18  26
HETATM   26  C   UNL     1      25.476  45.573  52.727  1.00  0.00     0.296 C 
HETATM   27  O   UNL     1      25.082  46.538  52.081  1.00  0.00    -0.259 OA
BRANCH  26  28
HETATM   28  O   UNL     1      25.596  45.556  54.082  1.00  0.00    -0.322 OA
HETATM   29  C   UNL     1      26.270  46.687  54.638  1.00  0.00     0.213 C 
ENDBRANCH  26  28
ENDBRANCH  18  26
ENDBRANCH  14  17
ENDBRANCH  12  13
ENDBRANCH   1  12
BRANCH   3  30
HETATM   30  C   UNL     1      21.192  46.254  47.347  1.00  0.00    -0.027 A 
HETATM   31  C   UNL     1      20.048  45.972  48.117  1.00  0.00     0.012 A 
HETATM   32  C   UNL     1      19.062  45.106  47.637  1.00  0.00     0.043 A 
HETATM   33  C   UNL     1      19.209  44.519  46.387  1.00  0.00     0.116 A 
HETATM   34  F   UNL     1      18.257  43.695  45.930  1.00  0.00    -0.206 F 
HETATM   35  C   UNL     1      20.324  44.778  45.606  1.00  0.00     0.043 A 
HETATM   36  C   UNL     1      21.311  45.643  46.082  1.00  0.00     0.012 A 
ENDBRANCH   3  30
BRANCH   5  37
HETATM   37  O   UNL     1      23.723  49.773  47.297  1.00  0.00    -0.389 OA
HETATM   38  H   UNL     1      24.095  48.897  47.074  1.00  0.00     0.210 HD
ENDBRANCH   5  37
TORSDOF 7
ENDMDL
MODEL 4
REMARK VINA RESULT:      -8.5      1.405      2.454
REMARK  7 active torsions:
REMARK  status: ('A' for Active; 'I' for Inactive)
REMARK    1  A    between atoms: O_2  and  C_3 
REMARK    2  A    between atoms: C_3  and  C_4 
REMARK    3  A    between atoms: C_5  and  N_6 
REMARK       I    between atoms: N_6  and  C_7 
REMARK    4  A    between atoms: C_7  and  C_8 
REMARK    5  A    between atoms: C_8  and  N_9 
REMARK    6  A    between atoms: C_11  and  C_12 
REMARK    7  A    between atoms: C_20  and  O_21 
ROOT
HETATM    1  N   UNL     1      24.826  45.044  51.243  1.00  0.00    -0.054 N 
HETATM    2  H   UNL     1      24.095  45.526  51.773  1.00  0.00     0.281 HD
HETATM    3  C   UNL     1      25.999  46.014  51.104  1.00  0.00     0.228 C 
HETATM    4  C   UNL     1      26.529  46.442  52.514  1.00  0.00     0.055 C 
HETATM    5  C   UNL     1      26.851  45.207  53.392  1.00  0.00     0.065 C 
HETATM    6  C   UNL     1      25.690  44.206  53.408  1.00  0.00     0.066 C 
HETATM    7  C   UNL     1      25.241  43.817  52.016  1.00  0.00     0.239 C 
HETATM    8  C   UNL     1      25.647  47.422  53.305  1.00  0.00     0.010 C 
HETATM    9  C   UNL     1      26.318  47.896  54.603  1.00  0.00     0.001 C 
HETATM   10  C   UNL     1      27.506  47.044  55.037  1.00  0.00     0.003 C 
HETATM   11  C   UNL     1      27.213  45.562  54.854  1.00  0.00     0.038 C 
ENDROOT
BRANCH   1  12
HETATM   12  C   UNL     1      24.158  44.618  49.907  1.00  0.00     0.338 C 
BRANCH  12  13
HETATM   13  C   UNL     1      23.193  43.424  49.956  1.00  0.00     0.248 C 
HETATM   14  N   UNL     1      23.636  42.152  49.725  1.00  0.00    -0.319 N 
HETATM   15  H   UNL     1      23.080  41.432  50.194  1.00  0.00     0.169 HD
HETATM   16  O   UNL     1      22.038  43.580  50.362  1.00  0.00    -0.271 OA
BRANCH  14  17
HETATM   17  C   UNL     1      24.513  41.651  48.774  1.00  0.00     0.094 A 
HETATM   18  C   UNL     1      24.241  41.445  47.424  1.00  0.00     0.080 A 
HETATM   19  C   UNL     1      25.444  41.040  46.716  1.00  0.00    -0.026 A 
HETATM   20  C   UNL     1      26.542  41.025  47.556  1.00  0.00    -0.008 A 
HETATM   21  C   UNL     1      25.588  40.746  45.243  1.00  0.00     0.041 C 
HETATM   22  S   UNL     1      26.147  41.412  49.151  1.00  0.00    -0.075 SA
HETATM   23  C   UNL     1      27.949  40.711  47.145  1.00  0.00     0.047 C 
HETATM   24  C   UNL     1      28.104  40.868  45.627  1.00  0.00     0.005 C 
HETATM   25  C   UNL     1      26.965  40.161  44.884  1.00  0.00     0.005 C 
BRANCH  18  26
HETATM   26  C   UNL     1      22.894  41.648  46.869  1.00  0.00     0.296 C 
HETATM   27  O   UNL     1      21.914  41.047  47.298  1.00  0.00    -0.259 OA
BRANCH  26  28
HETATM   28  O   UNL     1      22.853  42.546  45.848  1.00  0.00    -0.322 OA
HETATM   29  C   UNL     1      22.817  43.915  46.256  1.00  0.00     0.213 C 
ENDBRANCH  26  28
ENDBRANCH  18  26
ENDBRANCH  14  17
ENDBRANCH  12  13
ENDBRANCH   1  12
BRANCH   3  30
HETATM   30  C   UNL     1      25.739  47.221  50.209  1.00  0.00    -0.027 A 
HETATM   31  C   UNL     1      24.450  47.712  49.934  1.00  0.00     0.012 A 
HETATM   32  C   UNL     1      24.275  48.842  49.130  1.00  0.00     0.043 A 
HETATM   33  C   UNL     1      25.383  49.490  48.599  1.00  0.00     0.116 A 
HETATM   34  F   UNL     1      25.209  50.576  47.835  1.00  0.00    -0.206 F 
HETATM   35  C   UNL     1      26.665  49.030  48.854  1.00  0.00     0.043 A 
HETATM   36  C   UNL     1      26.844  47.901  49.657  1.00  0.00     0.012 A 
ENDBRANCH   3  30
BRANCH   5  37
HETATM   37  O   UNL     1      27.957  44.532  52.787  1.00  0.00    -0.389 OA
HETATM   38  H   UNL     1      28.117  44.912  51.900  1.00  0.00     0.210 HD
ENDBRANCH   5  37
TORSDOF 7
ENDMDL
MODEL 5
REMARK VINA RESULT:      -8.5      3.648      6.751
REMARK  7 active torsions:
REMARK  status: ('A' for Active; 'I' for Inactive)
REMARK    1  A    between atoms: O_2  and  C_3 
REMARK    2  A    between atoms: C_3  and  C_4 
REMARK    3  A    between atoms: C_5  and  N_6 
REMARK       I    between atoms: N_6  and  C_7 
REMARK    4  A    between atoms: C_7  and  C_8 
REMARK    5  A    between atoms: C_8  and  N_9 
REMARK    6  A    between atoms: C_11  and  C_12 
REMARK    7  A    between atoms: C_20  and  O_21 
ROOT
HETATM    1  N   UNL     1      26.504  46.085  52.372  1.00  0.00    -0.054 N 
HETATM    2  H   UNL     1      27.333  46.211  51.785  1.00  0.00     0.281 HD
HETATM    3  C   UNL     1      26.296  44.581  52.545  1.00  0.00     0.228 C 
HETATM    4  C   UNL     1      27.550  43.926  53.215  1.00  0.00     0.055 C 
HETATM    5  C   UNL     1      27.930  44.653  54.530  1.00  0.00     0.065 C 
HETATM    6  C   UNL     1      28.012  46.171  54.334  1.00  0.00     0.066 C 
HETATM    7  C   UNL     1      26.760  46.742  53.704  1.00  0.00     0.239 C 
HETATM    8  C   UNL     1      28.799  43.780  52.329  1.00  0.00     0.010 C 
HETATM    9  C   UNL     1      29.922  42.997  53.023  1.00  0.00     0.001 C 
HETATM   10  C   UNL     1      29.744  42.859  54.532  1.00  0.00     0.003 C 
HETATM   11  C   UNL     1      29.261  44.164  55.148  1.00  0.00     0.038 C 
ENDROOT
BRANCH   1  12
HETATM   12  C   UNL     1      25.357  46.830  51.635  1.00  0.00     0.338 C 
BRANCH  12  13
HETATM   13  C   UNL     1      25.706  47.508  50.301  1.00  0.00     0.248 C 
HETATM   14  N   UNL     1      24.732  48.061  49.518  1.00  0.00    -0.319 N 
HETATM   15  H   UNL     1      25.064  48.832  48.933  1.00  0.00     0.169 HD
HETATM   16  O   UNL     1      26.886  47.703  49.998  1.00  0.00    -0.271 OA
BRANCH  14  17
HETATM   17  C   UNL     1      23.468  47.601  49.175  1.00  0.00     0.094 A 
HETATM   18  C   UNL     1      22.375  48.381  48.809  1.00  0.00     0.080 A 
HETATM   19  C   UNL     1      21.266  47.541  48.388  1.00  0.00    -0.026 A 
HETATM   20  C   UNL     1      21.612  46.202  48.408  1.00  0.00    -0.008 A 
HETATM   21  C   UNL     1      19.913  47.986  47.891  1.00  0.00     0.041 C 
HETATM   22  S   UNL     1      23.181  45.944  48.974  1.00  0.00    -0.075 SA
HETATM   23  C   UNL     1      20.730  45.068  47.980  1.00  0.00     0.047 C 
HETATM   24  C   UNL     1      19.593  45.588  47.092  1.00  0.00     0.005 C 
HETATM   25  C   UNL     1      18.927  46.818  47.718  1.00  0.00     0.005 C 
BRANCH  18  26
HETATM   26  C   UNL     1      22.424  49.850  48.856  1.00  0.00     0.296 C 
HETATM   27  O   UNL     1      23.012  50.512  48.007  1.00  0.00    -0.259 OA
BRANCH  26  28
HETATM   28  O   UNL     1      21.769  50.384  49.922  1.00  0.00    -0.322 OA
HETATM   29  C   UNL     1      20.574  51.096  49.596  1.00  0.00     0.213 C 
ENDBRANCH  26  28
ENDBRANCH  18  26
ENDBRANCH  14  17
ENDBRANCH  12  13
ENDBRANCH   1  12
BRANCH   3  30
HETATM   30  C   UNL     1      25.876  43.834  51.284  1.00  0.00    -0.027 A 
HETATM   31  C   UNL     1      26.682  43.750  50.134  1.00  0.00     0.012 A 
HETATM   32  C   UNL     1      26.257  43.025  49.018  1.00  0.00     0.043 A 
HETATM   33  C   UNL     1      25.029  42.377  49.042  1.00  0.00     0.116 A 
HETATM   34  F   UNL     1      24.631  41.679  47.971  1.00  0.00    -0.206 F 
HETATM   35  C   UNL     1      24.214  42.441  50.160  1.00  0.00     0.043 A 
HETATM   36  C   UNL     1      24.635  43.165  51.279  1.00  0.00     0.012 A 
ENDBRANCH   3  30
BRANCH   5  37
HETATM   37  O   UNL     1      26.870  44.423  55.462  1.00  0.00    -0.389 OA
HETATM   38  H   UNL     1      26.294  43.710  55.123  1.00  0.00     0.210 HD
ENDBRANCH   5  37
TORSDOF 7
ENDMDL
MODEL 6
REMARK VINA RESULT:      -8.5      4.071      6.443
REMARK  7 active torsions:
REMARK  status: ('A' for Active; 'I' for Inactive)
REMARK    1  A    between atoms: O_2  and  C_3 
REMARK    2  A    between atoms: C_3  and  C_4 
REMARK    3  A    between atoms: C_5  and  N_6 
REMARK       I    between atoms: N_6  and  C_7 
REMARK    4  A    between atoms: C_7  and  C_8 
REMARK    5  A    between atoms: C_8  and  N_9 
REMARK    6  A    between atoms: C_11  and  C_12 
REMARK    7  A    between atoms: C_20  and  O_21 
ROOT
HETATM    1  N   UNL     1      20.365  47.757  48.695  1.00  0.00    -0.054 N 
HETATM    2  H   UNL     1      20.190  48.087  47.742  1.00  0.00     0.281 HD
HETATM    3  C   UNL     1      21.059  48.894  49.446  1.00  0.00     0.228 C 
HETATM    4  C   UNL     1      20.158  50.174  49.460  1.00  0.00     0.055 C 
HETATM    5  C   UNL     1      18.739  49.857  49.995  1.00  0.00     0.065 C 
HETATM    6  C   UNL     1      18.129  48.638  49.294  1.00  0.00     0.066 C 
HETATM    7  C   UNL     1      19.040  47.430  49.335  1.00  0.00     0.239 C 
HETATM    8  C   UNL     1      20.049  50.946  48.135  1.00  0.00     0.010 C 
HETATM    9  C   UNL     1      19.270  52.261  48.285  1.00  0.00     0.001 C 
HETATM   10  C   UNL     1      18.453  52.357  49.569  1.00  0.00     0.003 C 
HETATM   11  C   UNL     1      17.750  51.041  49.871  1.00  0.00     0.038 C 
ENDROOT
BRANCH   1  12
HETATM   12  C   UNL     1      21.204  46.459  48.539  1.00  0.00     0.338 C 
BRANCH  12  13
HETATM   13  C   UNL     1      21.835  46.194  47.163  1.00  0.00     0.248 C 
HETATM   14  N   UNL     1      22.395  44.983  46.869  1.00  0.00    -0.319 N 
HETATM   15  H   UNL     1      22.374  44.753  45.872  1.00  0.00     0.169 HD
HETATM   16  O   UNL     1      21.702  47.018  46.254  1.00  0.00    -0.271 OA
BRANCH  14  17
HETATM   17  C   UNL     1      23.213  44.151  47.619  1.00  0.00     0.094 A 
HETATM   18  C   UNL     1      23.354  42.774  47.469  1.00  0.00     0.080 A 
HETATM   19  C   UNL     1      24.400  42.269  48.342  1.00  0.00    -0.026 A 
HETATM   20  C   UNL     1      25.012  43.294  49.040  1.00  0.00    -0.008 A 
HETATM   21  C   UNL     1      24.886  40.846  48.466  1.00  0.00     0.041 C 
HETATM   22  S   UNL     1      24.321  44.801  48.723  1.00  0.00    -0.075 SA
HETATM   23  C   UNL     1      26.167  43.138  49.982  1.00  0.00     0.047 C 
HETATM   24  C   UNL     1      26.882  41.805  49.727  1.00  0.00     0.005 C 
HETATM   25  C   UNL     1      25.875  40.653  49.628  1.00  0.00     0.005 C 
BRANCH  18  26
HETATM   26  C   UNL     1      22.525  42.012  46.521  1.00  0.00     0.296 C 
HETATM   27  O   UNL     1      23.007  41.428  45.556  1.00  0.00    -0.259 OA
BRANCH  26  28
HETATM   28  O   UNL     1      21.198  42.030  46.821  1.00  0.00    -0.322 OA
HETATM   29  C   UNL     1      20.336  42.267  45.707  1.00  0.00     0.213 C 
ENDBRANCH  26  28
ENDBRANCH  18  26
ENDBRANCH  14  17
ENDBRANCH  12  13
ENDBRANCH   1  12
BRANCH   3  30
HETATM   30  C   UNL     1      22.477  49.207  48.981  1.00  0.00    -0.027 A 
HETATM   31  C   UNL     1      22.773  50.187  48.016  1.00  0.00     0.012 A 
HETATM   32  C   UNL     1      24.096  50.452  47.651  1.00  0.00     0.043 A 
HETATM   33  C   UNL     1      25.131  49.745  48.249  1.00  0.00     0.116 A 
HETATM   34  F   UNL     1      26.396  50.009  47.900  1.00  0.00    -0.206 F 
HETATM   35  C   UNL     1      24.871  48.775  49.204  1.00  0.00     0.043 A 
HETATM   36  C   UNL     1      23.550  48.507  49.571  1.00  0.00     0.012 A 
ENDBRANCH   3  30
BRANCH   5  37
HETATM   37  O   UNL     1      18.875  49.504  51.373  1.00  0.00    -0.389 OA
HETATM   38  H   UNL     1      19.822  49.506  51.613  1.00  0.00     0.210 HD
ENDBRANCH   5  37
TORSDOF 7
ENDMDL
MODEL 7
REMARK VINA RESULT:      -8.4      2.947      6.643
REMARK  7 active torsions:
REMARK  status: ('A' for Active; 'I' for Inactive)
REMARK    1  A    between atoms: O_2  and  C_3 
REMARK    2  A    between atoms: C_3  and  C_4 
REMARK    3  A    between atoms: C_5  and  N_6 
REMARK       I    between atoms: N_6  and  C_7 
REMARK    4  A    between atoms: C_7  and  C_8 
REMARK    5  A    between atoms: C_8  and  N_9 
REMARK    6  A    between atoms: C_11  and  C_12 
REMARK    7  A    between atoms: C_20  and  O_21 
ROOT
HETATM    1  N   UNL     1      25.184  43.643  49.607  1.00  0.00    -0.054 N 
HETATM    2  H   UNL     1      25.370  43.579  48.602  1.00  0.00     0.281 HD
HETATM    3  C   UNL     1      24.580  45.023  49.867  1.00  0.00     0.228 C 
HETATM    4  C   UNL     1      23.259  45.209  49.047  1.00  0.00     0.055 C 
HETATM    5  C   UNL     1      22.270  44.044  49.303  1.00  0.00     0.065 C 
HETATM    6  C   UNL     1      22.949  42.679  49.144  1.00  0.00     0.066 C 
HETATM    7  C   UNL     1      24.206  42.558  49.979  1.00  0.00     0.239 C 
HETATM    8  C   UNL     1      23.421  45.425  47.533  1.00  0.00     0.010 C 
HETATM    9  C   UNL     1      22.088  45.745  46.842  1.00  0.00     0.001 C 
HETATM   10  C   UNL     1      20.857  45.415  47.679  1.00  0.00     0.003 C 
HETATM   11  C   UNL     1      21.020  44.079  48.391  1.00  0.00     0.038 C 
ENDROOT
BRANCH   1  12
HETATM   12  C   UNL     1      26.548  43.377  50.300  1.00  0.00     0.338 C 
BRANCH  12  13
HETATM   13  C   UNL     1      26.704  42.046  51.051  1.00  0.00     0.248 C 
HETATM   14  N   UNL     1      26.936  42.021  52.397  1.00  0.00    -0.319 N 
HETATM   15  H   UNL     1      26.592  41.174  52.858  1.00  0.00     0.169 HD
HETATM   16  O   UNL     1      26.462  40.981  50.476  1.00  0.00    -0.271 OA
BRANCH  14  17
HETATM   17  C   UNL     1      27.776  42.789  53.191  1.00  0.00     0.094 A 
HETATM   18  C   UNL     1      27.444  43.973  53.844  1.00  0.00     0.080 A 
HETATM   19  C   UNL     1      28.540  44.415  54.690  1.00  0.00    -0.026 A 
HETATM   20  C   UNL     1      29.590  43.515  54.665  1.00  0.00    -0.008 A 
HETATM   21  C   UNL     1      28.580  45.630  55.583  1.00  0.00     0.041 C 
HETATM   22  S   UNL     1      29.314  42.220  53.617  1.00  0.00    -0.075 SA
HETATM   23  C   UNL     1      30.853  43.628  55.464  1.00  0.00     0.047 C 
HETATM   24  C   UNL     1      30.650  44.589  56.642  1.00  0.00     0.005 C 
HETATM   25  C   UNL     1      29.973  45.885  56.182  1.00  0.00     0.005 C 
BRANCH  18  26
HETATM   26  C   UNL     1      26.133  44.615  53.659  1.00  0.00     0.296 C 
HETATM   27  O   UNL     1      25.102  44.139  54.121  1.00  0.00    -0.259 OA
BRANCH  26  28
HETATM   28  O   UNL     1      26.187  45.763  52.931  1.00  0.00    -0.322 OA
HETATM   29  C   UNL     1      25.786  46.939  53.637  1.00  0.00     0.213 C 
ENDBRANCH  26  28
ENDBRANCH  18  26
ENDBRANCH  14  17
ENDBRANCH  12  13
ENDBRANCH   1  12
BRANCH   3  30
HETATM   30  C   UNL     1      25.535  46.196  49.672  1.00  0.00    -0.027 A 
HETATM   31  C   UNL     1      25.124  47.541  49.729  1.00  0.00     0.012 A 
HETATM   32  C   UNL     1      26.051  48.575  49.573  1.00  0.00     0.043 A 
HETATM   33  C   UNL     1      27.391  48.276  49.364  1.00  0.00     0.116 A 
HETATM   34  F   UNL     1      28.274  49.272  49.222  1.00  0.00    -0.206 F 
HETATM   35  C   UNL     1      27.825  46.961  49.304  1.00  0.00     0.043 A 
HETATM   36  C   UNL     1      26.901  45.924  49.459  1.00  0.00     0.012 A 
ENDBRANCH   3  30
BRANCH   5  37
HETATM   37  O   UNL     1      21.855  44.132  50.668  1.00  0.00    -0.389 OA
HETATM   38  H   UNL     1      22.262  43.402  51.174  1.00  0.00     0.210 HD
ENDBRANCH   5  37
TORSDOF 7
ENDMDL
MODEL 8
REMARK VINA RESULT:      -8.4      2.255      3.713
REMARK  7 active torsions:
REMARK  status: ('A' for Active; 'I' for Inactive)
REMARK    1  A    between atoms: O_2  and  C_3 
REMARK    2  A    between atoms: C_3  and  C_4 
REMARK    3  A    between atoms: C_5  and  N_6 
REMARK       I    between atoms: N_6  and  C_7 
REMARK    4  A    between atoms: C_7  and  C_8 
REMARK    5  A    between atoms: C_8  and  N_9 
REMARK    6  A    between atoms: C_11  and  C_12 
REMARK    7  A    between atoms: C_20  and  O_21 
ROOT
HETATM    1  N   UNL     1      26.790  42.522  51.793  1.00  0.00    -0.054 N 
HETATM    2  H   UNL     1      26.142  42.678  52.570  1.00  0.00     0.281 HD
HETATM    3  C   UNL     1      27.664  43.770  51.675  1.00  0.00     0.228 C 
HETATM    4  C   UNL     1      28.450  44.020  53.006  1.00  0.00     0.055 C 
HETATM    5  C   UNL     1      29.233  42.756  53.442  1.00  0.00     0.065 C 
HETATM    6  C   UNL     1      28.343  41.507  53.434  1.00  0.00     0.066 C 
HETATM    7  C   UNL     1      27.631  41.313  52.112  1.00  0.00     0.239 C 
HETATM    8  C   UNL     1      27.629  44.552  54.192  1.00  0.00     0.010 C 
HETATM    9  C   UNL     1      28.507  44.905  55.401  1.00  0.00     0.001 C 
HETATM   10  C   UNL     1      29.914  44.319  55.341  1.00  0.00     0.003 C 
HETATM   11  C   UNL     1      29.888  42.882  54.839  1.00  0.00     0.038 C 
ENDROOT
BRANCH   1  12
HETATM   12  C   UNL     1      25.894  42.223  50.560  1.00  0.00     0.338 C 
BRANCH  12  13
HETATM   13  C   UNL     1      24.409  42.601  50.665  1.00  0.00     0.248 C 
HETATM   14  N   UNL     1      23.506  42.168  49.735  1.00  0.00    -0.319 N 
HETATM   15  H   UNL     1      22.553  42.078  50.098  1.00  0.00     0.169 HD
HETATM   16  O   UNL     1      23.986  43.168  51.676  1.00  0.00    -0.271 OA
BRANCH  14  17
HETATM   17  C   UNL     1      23.587  42.091  48.352  1.00  0.00     0.094 A 
HETATM   18  C   UNL     1      23.176  43.063  47.443  1.00  0.00     0.080 A 
HETATM   19  C   UNL     1      23.547  42.686  46.090  1.00  0.00    -0.026 A 
HETATM   20  C   UNL     1      24.257  41.499  46.073  1.00  0.00    -0.008 A 
HETATM   21  C   UNL     1      23.313  43.468  44.821  1.00  0.00     0.041 C 
HETATM   22  S   UNL     1      24.419  40.817  47.609  1.00  0.00    -0.075 SA
HETATM   23  C   UNL     1      24.843  40.851  44.855  1.00  0.00     0.047 C 
HETATM   24  C   UNL     1      24.968  41.875  43.720  1.00  0.00     0.005 C 
HETATM   25  C   UNL     1      23.669  42.671  43.555  1.00  0.00     0.005 C 
BRANCH  18  26
HETATM   26  C   UNL     1      22.480  44.283  47.880  1.00  0.00     0.296 C 
HETATM   27  O   UNL     1      23.032  45.378  47.900  1.00  0.00    -0.259 OA
BRANCH  26  28
HETATM   28  O   UNL     1      21.190  44.069  48.257  1.00  0.00    -0.322 OA
HETATM   29  C   UNL     1      20.494  45.235  48.702  1.00  0.00     0.213 C 
ENDBRANCH  26  28
ENDBRANCH  18  26
ENDBRANCH  14  17
ENDBRANCH  12  13
ENDBRANCH   1  12
BRANCH   3  30
HETATM   30  C   UNL     1      26.941  45.027  51.203  1.00  0.00    -0.027 A 
HETATM   31  C   UNL     1      26.012  45.724  51.996  1.00  0.00     0.012 A 
HETATM   32  C   UNL     1      25.402  46.889  51.520  1.00  0.00     0.043 A 
HETATM   33  C   UNL     1      25.718  47.366  50.255  1.00  0.00     0.116 A 
HETATM   34  F   UNL     1      25.135  48.486  49.809  1.00  0.00    -0.206 F 
HETATM   35  C   UNL     1      26.631  46.701  49.452  1.00  0.00     0.043 A 
HETATM   36  C   UNL     1      27.242  45.537  49.923  1.00  0.00     0.012 A 
ENDBRANCH   3  30
BRANCH   5  37
HETATM   37  O   UNL     1      30.253  42.531  52.466  1.00  0.00    -0.389 OA
HETATM   38  H   UNL     1      30.027  41.736  51.944  1.00  0.00     0.210 HD
ENDBRANCH   5  37
TORSDOF 7
ENDMDL
MODEL 9
REMARK VINA RESULT:      -8.3      3.955      9.063
REMARK  7 active torsions:
REMARK  status: ('A' for Active; 'I' for Inactive)
REMARK    1  A    between atoms: O_2  and  C_3 
REMARK    2  A    between atoms: C_3  and  C_4 
REMARK    3  A    between atoms: C_5  and  N_6 
REMARK       I    between atoms: N_6  and  C_7 
REMARK    4  A    between atoms: C_7  and  C_8 
REMARK    5  A    between atoms: C_8  and  N_9 
REMARK    6  A    between atoms: C_11  and  C_12 
REMARK    7  A    between atoms: C_20  and  O_21 
ROOT
HETATM    1  N   UNL     1      26.426  40.280  48.875  1.00  0.00    -0.054 N 
HETATM    2  H   UNL     1      25.757  39.524  48.705  1.00  0.00     0.281 HD
HETATM    3  C   UNL     1      27.812  39.744  48.516  1.00  0.00     0.228 C 
HETATM    4  C   UNL     1      27.856  39.293  47.017  1.00  0.00     0.055 C 
HETATM    5  C   UNL     1      27.367  40.421  46.075  1.00  0.00     0.065 C 
HETATM    6  C   UNL     1      26.029  41.007  46.540  1.00  0.00     0.066 C 
HETATM    7  C   UNL     1      26.061  41.444  47.989  1.00  0.00     0.239 C 
HETATM    8  C   UNL     1      27.123  37.984  46.678  1.00  0.00     0.010 C 
HETATM    9  C   UNL     1      27.347  37.548  45.223  1.00  0.00     0.001 C 
HETATM   10  C   UNL     1      27.903  38.646  44.322  1.00  0.00     0.003 C 
HETATM   11  C   UNL     1      27.222  39.979  44.599  1.00  0.00     0.038 C 
ENDROOT
BRANCH   1  12
HETATM   12  C   UNL     1      26.236  40.677  50.364  1.00  0.00     0.338 C 
BRANCH  12  13
HETATM   13  C   UNL     1      25.368  41.911  50.655  1.00  0.00     0.248 C 
HETATM   14  N   UNL     1      25.934  43.097  51.030  1.00  0.00    -0.319 N 
HETATM   15  H   UNL     1      25.379  43.917  50.772  1.00  0.00     0.169 HD
HETATM   16  O   UNL     1      24.161  41.891  50.398  1.00  0.00    -0.271 OA
BRANCH  14  17
HETATM   17  C   UNL     1      26.965  43.374  51.916  1.00  0.00     0.094 A 
HETATM   18  C   UNL     1      26.875  44.134  53.079  1.00  0.00     0.080 A 
HETATM   19  C   UNL     1      28.126  44.088  53.818  1.00  0.00    -0.026 A 
HETATM   20  C   UNL     1      29.044  43.258  53.202  1.00  0.00    -0.008 A 
HETATM   21  C   UNL     1      28.438  44.749  55.137  1.00  0.00     0.041 C 
HETATM   22  S   UNL     1      28.468  42.608  51.755  1.00  0.00    -0.075 SA
HETATM   23  C   UNL     1      30.413  42.935  53.723  1.00  0.00     0.047 C 
HETATM   24  C   UNL     1      30.496  43.250  55.222  1.00  0.00     0.005 C 
HETATM   25  C   UNL     1      29.923  44.640  55.523  1.00  0.00     0.005 C 
BRANCH  18  26
HETATM   26  C   UNL     1      25.639  44.844  53.443  1.00  0.00     0.296 C 
HETATM   27  O   UNL     1      24.600  44.251  53.709  1.00  0.00    -0.259 OA
BRANCH  26  28
HETATM   28  O   UNL     1      25.769  46.199  53.445  1.00  0.00    -0.322 OA
HETATM   29  C   UNL     1      25.701  46.810  52.156  1.00  0.00     0.213 C 
ENDBRANCH  26  28
ENDBRANCH  18  26
ENDBRANCH  14  17
ENDBRANCH  12  13
ENDBRANCH   1  12
BRANCH   3  30
HETATM   30  C   UNL     1      28.352  38.664  49.447  1.00  0.00    -0.027 A 
HETATM   31  C   UNL     1      27.708  37.429  49.647  1.00  0.00     0.012 A 
HETATM   32  C   UNL     1      28.266  36.464  50.490  1.00  0.00     0.043 A 
HETATM   33  C   UNL     1      29.469  36.723  51.135  1.00  0.00     0.116 A 
HETATM   34  F   UNL     1      30.001  35.791  51.936  1.00  0.00    -0.206 F 
HETATM   35  C   UNL     1      30.126  37.930  50.956  1.00  0.00     0.043 A 
HETATM   36  C   UNL     1      29.572  38.897  50.114  1.00  0.00     0.012 A 
ENDBRANCH   3  30
BRANCH   5  37
HETATM   37  O   UNL     1      28.322  41.482  46.153  1.00  0.00    -0.389 OA
HETATM   38  H   UNL     1      27.879  42.327  45.938  1.00  0.00     0.210 HD
ENDBRANCH   5  37
TORSDOF 7
ENDMDL
MODEL 10
REMARK VINA RESULT:      -8.3      2.440      3.198
REMARK  7 active torsions:
REMARK  status: ('A' for Active; 'I' for Inactive)
REMARK    1  A    between atoms: O_2  and  C_3 
REMARK    2  A    between atoms: C_3  and  C_4 
REMARK    3  A    between atoms: C_5  and  N_6 
REMARK       I    between atoms: N_6  and  C_7 
REMARK    4  A    between atoms: C_7  and  C_8 
REMARK    5  A    between atoms: C_8  and  N_9 
REMARK    6  A    between atoms: C_11  and  C_12 
REMARK    7  A    between atoms: C_20  and  O_21 
ROOT
HETATM    1  N   UNL     1      27.006  42.634  50.855  1.00  0.00    -0.054 N 
HETATM    2  H   UNL     1      26.209  42.535  51.489  1.00  0.00     0.281 HD
HETATM    3  C   UNL     1      27.602  44.022  51.091  1.00  0.00     0.228 C 
HETATM    4  C   UNL     1      28.059  44.177  52.581  1.00  0.00     0.055 C 
HETATM    5  C   UNL     1      28.999  43.021  53.004  1.00  0.00     0.065 C 
HETATM    6  C   UNL     1      28.412  41.652  52.641  1.00  0.00     0.066 C 
HETATM    7  C   UNL     1      28.012  41.561  51.184  1.00  0.00     0.239 C 
HETATM    8  C   UNL     1      26.941  44.340  53.624  1.00  0.00     0.010 C 
HETATM    9  C   UNL     1      27.488  44.634  55.028  1.00  0.00     0.001 C 
HETATM   10  C   UNL     1      28.974  44.332  55.193  1.00  0.00     0.003 C 
HETATM   11  C   UNL     1      29.346  43.022  54.512  1.00  0.00     0.038 C 
ENDROOT
BRANCH   1  12
HETATM   12  C   UNL     1      26.435  42.394  49.430  1.00  0.00     0.338 C 
BRANCH  12  13
HETATM   13  C   UNL     1      25.274  41.396  49.299  1.00  0.00     0.248 C 
HETATM   14  N   UNL     1      25.499  40.103  48.920  1.00  0.00    -0.319 N 
HETATM   15  H   UNL     1      24.803  39.443  49.278  1.00  0.00     0.169 HD
HETATM   16  O   UNL     1      24.145  41.708  49.689  1.00  0.00    -0.271 OA
BRANCH  14  17
HETATM   17  C   UNL     1      26.321  39.571  47.937  1.00  0.00     0.094 A 
HETATM   18  C   UNL     1      27.215  38.514  48.089  1.00  0.00     0.080 A 
HETATM   19  C   UNL     1      27.798  38.151  46.807  1.00  0.00    -0.026 A 
HETATM   20  C   UNL     1      27.266  38.908  45.779  1.00  0.00    -0.008 A 
HETATM   21  C   UNL     1      28.786  37.047  46.528  1.00  0.00     0.041 C 
HETATM   22  S   UNL     1      26.162  40.062  46.324  1.00  0.00    -0.075 SA
HETATM   23  C   UNL     1      27.598  38.757  44.325  1.00  0.00     0.047 C 
HETATM   24  C   UNL     1      28.224  37.381  44.066  1.00  0.00     0.005 C 
HETATM   25  C   UNL     1      29.326  37.079  45.088  1.00  0.00     0.005 C 
BRANCH  18  26
HETATM   26  C   UNL     1      27.467  37.898  49.400  1.00  0.00     0.296 C 
HETATM   27  O   UNL     1      26.779  36.979  49.832  1.00  0.00    -0.259 OA
BRANCH  26  28
HETATM   28  O   UNL     1      28.516  38.448  50.069  1.00  0.00    -0.322 OA
HETATM   29  C   UNL     1      29.703  37.653  50.081  1.00  0.00     0.213 C 
ENDBRANCH  26  28
ENDBRANCH  18  26
ENDBRANCH  14  17
ENDBRANCH  12  13
ENDBRANCH   1  12
BRANCH   3  30
HETATM   30  C   UNL     1      26.727  45.188  50.645  1.00  0.00    -0.027 A 
HETATM   31  C   UNL     1      25.367  45.304  50.984  1.00  0.00     0.012 A 
HETATM   32  C   UNL     1      24.622  46.413  50.571  1.00  0.00     0.043 A 
HETATM   33  C   UNL     1      25.230  47.413  49.823  1.00  0.00     0.116 A 
HETATM   34  F   UNL     1      24.512  48.475  49.437  1.00  0.00    -0.206 F 
HETATM   35  C   UNL     1      26.568  47.326  49.475  1.00  0.00     0.043 A 
HETATM   36  C   UNL     1      27.316  46.220  49.885  1.00  0.00     0.012 A 
ENDBRANCH   3  30
BRANCH   5  37
HETATM   37  O   UNL     1      30.205  43.156  52.247  1.00  0.00    -0.389 OA
HETATM   38  H   UNL     1      30.001  43.044  51.297  1.00  0.00     0.210 HD
ENDBRANCH   5  37
TORSDOF 7
ENDMDL
