MODEL 1
REMARK VINA RESULT:      -9.5      0.000      0.000
REMARK  5 active torsions:
REMARK  status: ('A' for Active; 'I' for Inactive)
REMARK    1  A    between atoms: O_2  and  C_3 
REMARK    2  A    between atoms: C_6  and  C_7 
REMARK       I    between atoms: C_7  and  N_8 
REMARK    3  A    between atoms: N_8  and  C_9 
REMARK    4  A    between atoms: C_9  and  C_10 
REMARK       I    between atoms: C_10  and  N_11 
REMARK    5  A    between atoms: N_11  and  N_12 
ROOT
HETATM    1  C   UNL     1      25.040  47.124  50.645  1.00  0.00     0.255 C 
HETATM    2  N   UNL     1      24.947  46.061  51.524  1.00  0.00    -0.245 N 
HETATM    3  O   UNL     1      25.889  48.013  50.705  1.00  0.00    -0.270 OA
HETATM    4  H   UNL     1      24.268  45.317  51.349  1.00  0.00     0.192 HD
ENDROOT
BRANCH   1   5
HETATM    5  C   UNL     1      24.033  47.086  49.495  1.00  0.00     0.227 C 
BRANCH   5   6
HETATM    6  N   UNL     1      22.789  47.822  49.680  1.00  0.00    -0.348 N 
HETATM    7  C   UNL     1      22.107  48.349  48.604  1.00  0.00     0.252 C 
HETATM    8  O   UNL     1      22.351  48.006  47.452  1.00  0.00    -0.268 OA
HETATM    9  H   UNL     1      22.487  48.002  50.626  1.00  0.00     0.163 HD
BRANCH   7  10
HETATM   10  C   UNL     1      21.060  49.379  48.879  1.00  0.00     0.032 A 
HETATM   11  C   UNL     1      19.966  49.148  49.721  1.00  0.00     0.020 A 
HETATM   12  C   UNL     1      19.074  50.186  50.013  1.00  0.00     0.038 A 
HETATM   13  C   UNL     1      19.271  51.467  49.491  1.00  0.00     0.068 A 
HETATM   14  C   UNL     1      20.347  51.697  48.635  1.00  0.00     0.038 A 
HETATM   15  C   UNL     1      21.237  50.659  48.334  1.00  0.00     0.020 A 
BRANCH  13  16
HETATM   16  O   UNL     1      18.351  52.398  49.886  1.00  0.00    -0.356 OA
HETATM   17  C   UNL     1      16.987  51.991  49.839  1.00  0.00     0.210 C 
ENDBRANCH  13  16
ENDBRANCH   7  10
ENDBRANCH   5   6
ENDBRANCH   1   5
BRANCH   2  18
HETATM   18  N   UNL     1      25.854  45.936  52.535  1.00  0.00    -0.166 NA
HETATM   19  C   UNL     1      26.707  44.969  52.446  1.00  0.00     0.157 A 
HETATM   20  C   UNL     1      26.822  43.882  51.374  1.00  0.00     0.277 A 
HETATM   21  C   UNL     1      27.772  44.701  53.405  1.00  0.00     0.028 A 
HETATM   22  O   UNL     1      26.091  43.769  50.413  1.00  0.00    -0.266 OA
HETATM   23  N   UNL     1      27.889  43.096  51.760  1.00  0.00    -0.321 N 
HETATM   24  C   UNL     1      28.446  43.571  52.944  1.00  0.00     0.048 A 
HETATM   25  H   UNL     1      28.201  42.292  51.237  1.00  0.00     0.169 HD
HETATM   26  C   UNL     1      29.522  43.054  53.633  1.00  0.00     0.032 A 
HETATM   27  C   UNL     1      29.910  43.710  54.808  1.00  0.00     0.021 A 
HETATM   28  C   UNL     1      29.220  44.855  55.260  1.00  0.00     0.012 A 
HETATM   29 BR   UNL     1      29.786  45.710  56.849  1.00  0.00    -0.051 Br
HETATM   30  C   UNL     1      28.131  45.370  54.557  1.00  0.00     0.035 A 
ENDBRANCH   2  18
TORSDOF 5
ENDMDL
MODEL 2
REMARK VINA RESULT:      -9.4      3.737     10.129
REMARK  5 active torsions:
REMARK  status: ('A' for Active; 'I' for Inactive)
REMARK    1  A    between atoms: O_2  and  C_3 
REMARK    2  A    between atoms: C_6  and  C_7 
REMARK       I    between atoms: C_7  and  N_8 
REMARK    3  A    between atoms: N_8  and  C_9 
REMARK    4  A    between atoms: C_9  and  C_10 
REMARK       I    between atoms: C_10  and  N_11 
REMARK    5  A    between atoms: N_11  and  N_12 
ROOT
HETATM    1  C   UNL     1      25.155  44.820  51.069  1.00  0.00     0.255 C 
HETATM    2  N   UNL     1      25.104  45.683  49.991  1.00  0.00    -0.245 N 
HETATM    3  O   UNL     1      24.280  44.721  51.931  1.00  0.00    -0.270 OA
HETATM    4  H   UNL     1      25.831  45.637  49.273  1.00  0.00     0.192 HD
ENDROOT
BRANCH   1   5
HETATM    5  C   UNL     1      26.374  43.898  51.089  1.00  0.00     0.227 C 
BRANCH   5   6
HETATM    6  N   UNL     1      27.460  44.255  51.993  1.00  0.00    -0.348 N 
HETATM    7  C   UNL     1      28.011  43.323  52.847  1.00  0.00     0.252 C 
HETATM    8  O   UNL     1      27.816  42.121  52.705  1.00  0.00    -0.268 OA
HETATM    9  H   UNL     1      27.738  45.224  52.031  1.00  0.00     0.163 HD
BRANCH   7  10
HETATM   10  C   UNL     1      28.849  43.823  53.978  1.00  0.00     0.032 A 
HETATM   11  C   UNL     1      28.543  44.984  54.698  1.00  0.00     0.020 A 
HETATM   12  C   UNL     1      29.315  45.344  55.808  1.00  0.00     0.038 A 
HETATM   13  C   UNL     1      30.382  44.546  56.228  1.00  0.00     0.068 A 
HETATM   14  C   UNL     1      30.704  43.401  55.502  1.00  0.00     0.038 A 
HETATM   15  C   UNL     1      29.939  43.042  54.385  1.00  0.00     0.020 A 
BRANCH  13  16
HETATM   16  O   UNL     1      31.028  44.990  57.348  1.00  0.00    -0.356 OA
HETATM   17  C   UNL     1      30.391  46.043  58.064  1.00  0.00     0.210 C 
ENDBRANCH  13  16
ENDBRANCH   7  10
ENDBRANCH   5   6
ENDBRANCH   1   5
BRANCH   2  18
HETATM   18  N   UNL     1      24.017  46.486  49.815  1.00  0.00    -0.166 NA
HETATM   19  C   UNL     1      24.236  47.700  49.432  1.00  0.00     0.157 A 
HETATM   20  C   UNL     1      25.573  48.407  49.190  1.00  0.00     0.277 A 
HETATM   21  C   UNL     1      23.203  48.691  49.154  1.00  0.00     0.028 A 
HETATM   22  O   UNL     1      26.666  47.902  49.335  1.00  0.00    -0.266 OA
HETATM   23  N   UNL     1      25.246  49.692  48.809  1.00  0.00    -0.321 N 
HETATM   24  C   UNL     1      23.864  49.862  48.786  1.00  0.00     0.048 A 
HETATM   25  H   UNL     1      25.934  50.395  48.583  1.00  0.00     0.169 HD
HETATM   26  C   UNL     1      23.162  51.001  48.453  1.00  0.00     0.032 A 
HETATM   27  C   UNL     1      21.764  50.931  48.498  1.00  0.00     0.021 A 
HETATM   28  C   UNL     1      21.109  49.737  48.869  1.00  0.00     0.012 A 
HETATM   29 BR   UNL     1      19.219  49.692  48.907  1.00  0.00    -0.051 Br
HETATM   30  C   UNL     1      21.828  48.591  49.206  1.00  0.00     0.035 A 
ENDBRANCH   2  18
TORSDOF 5
ENDMDL
MODEL 3
REMARK VINA RESULT:      -8.7      6.336      9.519
REMARK  5 active torsions:
REMARK  status: ('A' for Active; 'I' for Inactive)
REMARK    1  A    between atoms: O_2  and  C_3 
REMARK    2  A    between atoms: C_6  and  C_7 
REMARK       I    between atoms: C_7  and  N_8 
REMARK    3  A    between atoms: N_8  and  C_9 
REMARK    4  A    between atoms: C_9  and  C_10 
REMARK       I    between atoms: C_10  and  N_11 
REMARK    5  A    between atoms: N_11  and  N_12 
ROOT
HETATM    1  C   UNL     1      25.504  43.402  51.225  1.00  0.00     0.255 C 
HETATM    2  N   UNL     1      25.711  42.047  51.401  1.00  0.00    -0.245 N 
HETATM    3  O   UNL     1      25.602  43.993  50.150  1.00  0.00    -0.270 OA
HETATM    4  H   UNL     1      25.521  41.620  52.311  1.00  0.00     0.192 HD
ENDROOT
BRANCH   1   5
HETATM    5  C   UNL     1      25.050  44.143  52.482  1.00  0.00     0.227 C 
BRANCH   5   6
HETATM    6  N   UNL     1      26.023  44.279  53.560  1.00  0.00    -0.348 N 
HETATM    7  C   UNL     1      26.952  45.297  53.556  1.00  0.00     0.252 C 
HETATM    8  O   UNL     1      26.841  46.271  52.818  1.00  0.00    -0.268 OA
HETATM    9  H   UNL     1      26.045  43.557  54.264  1.00  0.00     0.163 HD
BRANCH   7  10
HETATM   10  C   UNL     1      28.125  45.174  54.472  1.00  0.00     0.032 A 
HETATM   11  C   UNL     1      28.357  46.053  55.537  1.00  0.00     0.020 A 
HETATM   12  C   UNL     1      29.421  45.825  56.416  1.00  0.00     0.038 A 
HETATM   13  C   UNL     1      30.250  44.711  56.262  1.00  0.00     0.068 A 
HETATM   14  C   UNL     1      30.036  43.844  55.192  1.00  0.00     0.038 A 
HETATM   15  C   UNL     1      28.978  44.074  54.305  1.00  0.00     0.020 A 
BRANCH  13  16
HETATM   16  O   UNL     1      31.225  44.584  57.211  1.00  0.00    -0.356 OA
HETATM   17  C   UNL     1      31.968  43.369  57.189  1.00  0.00     0.210 C 
ENDBRANCH  13  16
ENDBRANCH   7  10
ENDBRANCH   5   6
ENDBRANCH   1   5
BRANCH   2  18
HETATM   18  N   UNL     1      26.026  41.264  50.330  1.00  0.00    -0.166 NA
HETATM   19  C   UNL     1      27.105  40.558  50.413  1.00  0.00     0.157 A 
HETATM   20  C   UNL     1      28.138  40.507  51.541  1.00  0.00     0.277 A 
HETATM   21  C   UNL     1      27.582  39.634  49.390  1.00  0.00     0.028 A 
HETATM   22  O   UNL     1      28.088  41.156  52.564  1.00  0.00    -0.266 OA
HETATM   23  N   UNL     1      29.096  39.606  51.122  1.00  0.00    -0.321 N 
HETATM   24  C   UNL     1      28.775  39.095  49.867  1.00  0.00     0.048 A 
HETATM   25  H   UNL     1      29.910  39.369  51.670  1.00  0.00     0.169 HD
HETATM   26  C   UNL     1      29.486  38.173  49.128  1.00  0.00     0.032 A 
HETATM   27  C   UNL     1      28.959  37.802  47.884  1.00  0.00     0.021 A 
HETATM   28  C   UNL     1      27.748  38.355  47.416  1.00  0.00     0.012 A 
HETATM   29 BR   UNL     1      27.075  37.816  45.733  1.00  0.00    -0.051 Br
HETATM   30  C   UNL     1      27.038  39.288  48.170  1.00  0.00     0.035 A 
ENDBRANCH   2  18
TORSDOF 5
ENDMDL
MODEL 4
REMARK VINA RESULT:      -8.7      3.911      9.937
REMARK  5 active torsions:
REMARK  status: ('A' for Active; 'I' for Inactive)
REMARK    1  A    between atoms: O_2  and  C_3 
REMARK    2  A    between atoms: C_6  and  C_7 
REMARK       I    between atoms: C_7  and  N_8 
REMARK    3  A    between atoms: N_8  and  C_9 
REMARK    4  A    between atoms: C_9  and  C_10 
REMARK       I    between atoms: C_10  and  N_11 
REMARK    5  A    between atoms: N_11  and  N_12 
ROOT
HETATM    1  C   UNL     1      26.756  44.376  50.009  1.00  0.00     0.255 C 
HETATM    2  N   UNL     1      25.388  44.557  50.078  1.00  0.00    -0.245 N 
HETATM    3  O   UNL     1      27.555  45.213  49.586  1.00  0.00    -0.270 OA
HETATM    4  H   UNL     1      24.806  43.846  50.527  1.00  0.00     0.192 HD
ENDROOT
BRANCH   1   5
HETATM    5  C   UNL     1      27.251  43.049  50.585  1.00  0.00     0.227 C 
BRANCH   5   6
HETATM    6  N   UNL     1      28.088  43.117  51.777  1.00  0.00    -0.348 N 
HETATM    7  C   UNL     1      27.601  43.630  52.961  1.00  0.00     0.252 C 
HETATM    8  O   UNL     1      26.400  43.798  53.148  1.00  0.00    -0.268 OA
HETATM    9  H   UNL     1      29.056  42.850  51.685  1.00  0.00     0.163 HD
BRANCH   7  10
HETATM   10  C   UNL     1      28.589  44.001  54.018  1.00  0.00     0.032 A 
HETATM   11  C   UNL     1      28.428  45.111  54.856  1.00  0.00     0.020 A 
HETATM   12  C   UNL     1      29.340  45.347  55.890  1.00  0.00     0.038 A 
HETATM   13  C   UNL     1      30.406  44.473  56.117  1.00  0.00     0.068 A 
HETATM   14  C   UNL     1      30.583  43.378  55.273  1.00  0.00     0.038 A 
HETATM   15  C   UNL     1      29.677  43.144  54.232  1.00  0.00     0.020 A 
BRANCH  13  16
HETATM   16  O   UNL     1      31.199  44.797  57.183  1.00  0.00    -0.356 OA
HETATM   17  C   UNL     1      30.605  45.621  58.180  1.00  0.00     0.210 C 
ENDBRANCH  13  16
ENDBRANCH   7  10
ENDBRANCH   5   6
ENDBRANCH   1   5
BRANCH   2  18
HETATM   18  N   UNL     1      24.839  45.741  49.683  1.00  0.00    -0.166 NA
HETATM   19  C   UNL     1      23.635  45.706  49.215  1.00  0.00     0.157 A 
HETATM   20  C   UNL     1      22.727  44.496  48.983  1.00  0.00     0.277 A 
HETATM   21  C   UNL     1      22.871  46.870  48.781  1.00  0.00     0.028 A 
HETATM   22  O   UNL     1      23.026  43.343  49.215  1.00  0.00    -0.266 OA
HETATM   23  N   UNL     1      21.558  45.008  48.458  1.00  0.00    -0.321 N 
HETATM   24  C   UNL     1      21.638  46.394  48.338  1.00  0.00     0.048 A 
HETATM   25  H   UNL     1      20.768  44.435  48.203  1.00  0.00     0.169 HD
HETATM   26  C   UNL     1      20.673  47.253  47.860  1.00  0.00     0.032 A 
HETATM   27  C   UNL     1      20.981  48.619  47.840  1.00  0.00     0.021 A 
HETATM   28  C   UNL     1      22.232  49.087  48.294  1.00  0.00     0.012 A 
HETATM   29 BR   UNL     1      22.597  50.943  48.253  1.00  0.00    -0.051 Br
HETATM   30  C   UNL     1      23.203  48.209  48.775  1.00  0.00     0.035 A 
ENDBRANCH   2  18
TORSDOF 5
ENDMDL
MODEL 5
REMARK VINA RESULT:      -8.6      1.615      2.515
REMARK  5 active torsions:
REMARK  status: ('A' for Active; 'I' for Inactive)
REMARK    1  A    between atoms: O_2  and  C_3 
REMARK    2  A    between atoms: C_6  and  C_7 
REMARK       I    between atoms: C_7  and  N_8 
REMARK    3  A    between atoms: N_8  and  C_9 
REMARK    4  A    between atoms: C_9  and  C_10 
REMARK       I    between atoms: C_10  and  N_11 
REMARK    5  A    between atoms: N_11  and  N_12 
ROOT
HETATM    1  C   UNL     1      25.663  44.968  49.906  1.00  0.00     0.255 C 
HETATM    2  N   UNL     1      25.411  44.776  51.252  1.00  0.00    -0.245 N 
HETATM    3  O   UNL     1      26.783  44.970  49.395  1.00  0.00    -0.270 OA
HETATM    4  H   UNL     1      24.445  44.699  51.580  1.00  0.00     0.192 HD
ENDROOT
BRANCH   1   5
HETATM    5  C   UNL     1      24.411  45.105  49.039  1.00  0.00     0.227 C 
BRANCH   5   6
HETATM    6  N   UNL     1      23.472  46.163  49.394  1.00  0.00    -0.348 N 
HETATM    7  C   UNL     1      22.586  46.668  48.466  1.00  0.00     0.252 C 
HETATM    8  O   UNL     1      22.356  46.089  47.410  1.00  0.00    -0.268 OA
HETATM    9  H   UNL     1      23.549  46.567  50.315  1.00  0.00     0.163 HD
BRANCH   7  10
HETATM   10  C   UNL     1      21.917  47.967  48.777  1.00  0.00     0.032 A 
HETATM   11  C   UNL     1      20.526  48.123  48.791  1.00  0.00     0.020 A 
HETATM   12  C   UNL     1      19.961  49.342  49.184  1.00  0.00     0.038 A 
HETATM   13  C   UNL     1      20.769  50.407  49.589  1.00  0.00     0.068 A 
HETATM   14  C   UNL     1      22.155  50.263  49.558  1.00  0.00     0.038 A 
HETATM   15  C   UNL     1      22.724  49.048  49.157  1.00  0.00     0.020 A 
BRANCH  13  16
HETATM   16  O   UNL     1      20.091  51.525  49.987  1.00  0.00    -0.356 OA
HETATM   17  C   UNL     1      18.670  51.449  49.935  1.00  0.00     0.210 C 
ENDBRANCH  13  16
ENDBRANCH   7  10
ENDBRANCH   5   6
ENDBRANCH   1   5
BRANCH   2  18
HETATM   18  N   UNL     1      26.446  44.546  52.110  1.00  0.00    -0.166 NA
HETATM   19  C   UNL     1      26.700  45.461  52.985  1.00  0.00     0.157 A 
HETATM   20  C   UNL     1      26.031  46.825  53.176  1.00  0.00     0.277 A 
HETATM   21  C   UNL     1      27.738  45.377  54.007  1.00  0.00     0.028 A 
HETATM   22  O   UNL     1      25.125  47.260  52.496  1.00  0.00    -0.266 OA
HETATM   23  N   UNL     1      26.688  47.411  54.239  1.00  0.00    -0.321 N 
HETATM   24  C   UNL     1      27.684  46.570  54.726  1.00  0.00     0.048 A 
HETATM   25  H   UNL     1      26.458  48.328  54.593  1.00  0.00     0.169 HD
HETATM   26  C   UNL     1      28.544  46.807  55.778  1.00  0.00     0.032 A 
HETATM   27  C   UNL     1      29.467  45.801  56.093  1.00  0.00     0.021 A 
HETATM   28  C   UNL     1      29.507  44.598  55.357  1.00  0.00     0.012 A 
HETATM   29 BR   UNL     1      30.768  43.268  55.826  1.00  0.00    -0.051 Br
HETATM   30  C   UNL     1      28.634  44.368  54.294  1.00  0.00     0.035 A 
ENDBRANCH   2  18
TORSDOF 5
ENDMDL
MODEL 6
REMARK VINA RESULT:      -8.6      3.812      9.984
REMARK  5 active torsions:
REMARK  status: ('A' for Active; 'I' for Inactive)
REMARK    1  A    between atoms: O_2  and  C_3 
REMARK    2  A    between atoms: C_6  and  C_7 
REMARK       I    between atoms: C_7  and  N_8 
REMARK    3  A    between atoms: N_8  and  C_9 
REMARK    4  A    between atoms: C_9  and  C_10 
REMARK       I    between atoms: C_10  and  N_11 
REMARK    5  A    between atoms: N_11  and  N_12 
ROOT
HETATM    1  C   UNL     1      23.800  46.020  49.496  1.00  0.00     0.255 C 
HETATM    2  N   UNL     1      23.486  47.365  49.458  1.00  0.00    -0.245 N 
HETATM    3  O   UNL     1      22.990  45.105  49.341  1.00  0.00    -0.270 OA
HETATM    4  H   UNL     1      24.234  48.061  49.507  1.00  0.00     0.192 HD
ENDROOT
BRANCH   1   5
HETATM    5  C   UNL     1      25.289  45.720  49.668  1.00  0.00     0.227 C 
BRANCH   5   6
HETATM    6  N   UNL     1      25.760  45.459  51.023  1.00  0.00    -0.348 N 
HETATM    7  C   UNL     1      25.848  46.473  51.953  1.00  0.00     0.252 C 
HETATM    8  O   UNL     1      25.297  47.556  51.785  1.00  0.00    -0.268 OA
HETATM    9  H   UNL     1      26.094  44.530  51.232  1.00  0.00     0.163 HD
BRANCH   7  10
HETATM   10  C   UNL     1      26.661  46.223  53.182  1.00  0.00     0.032 A 
HETATM   11  C   UNL     1      27.213  44.974  53.489  1.00  0.00     0.020 A 
HETATM   12  C   UNL     1      28.044  44.830  54.605  1.00  0.00     0.038 A 
HETATM   13  C   UNL     1      28.356  45.927  55.411  1.00  0.00     0.068 A 
HETATM   14  C   UNL     1      27.793  47.169  55.121  1.00  0.00     0.038 A 
HETATM   15  C   UNL     1      26.953  47.315  54.011  1.00  0.00     0.020 A 
BRANCH  13  16
HETATM   16  O   UNL     1      29.210  45.658  56.444  1.00  0.00    -0.356 OA
HETATM   17  C   UNL     1      28.820  46.146  57.724  1.00  0.00     0.210 C 
ENDBRANCH  13  16
ENDBRANCH   7  10
ENDBRANCH   5   6
ENDBRANCH   1   5
BRANCH   2  18
HETATM   18  N   UNL     1      22.203  47.756  49.214  1.00  0.00    -0.166 NA
HETATM   19  C   UNL     1      21.998  49.016  49.014  1.00  0.00     0.157 A 
HETATM   20  C   UNL     1      22.998  50.174  49.065  1.00  0.00     0.277 A 
HETATM   21  C   UNL     1      20.706  49.615  48.699  1.00  0.00     0.028 A 
HETATM   22  O   UNL     1      24.180  50.066  49.315  1.00  0.00    -0.266 OA
HETATM   23  N   UNL     1      22.261  51.309  48.792  1.00  0.00    -0.321 N 
HETATM   24  C   UNL     1      20.923  50.987  48.578  1.00  0.00     0.048 A 
HETATM   25  H   UNL     1      22.662  52.234  48.759  1.00  0.00     0.169 HD
HETATM   26  C   UNL     1      19.889  51.848  48.277  1.00  0.00     0.032 A 
HETATM   27  C   UNL     1      18.618  51.288  48.098  1.00  0.00     0.021 A 
HETATM   28  C   UNL     1      18.414  49.897  48.222  1.00  0.00     0.012 A 
HETATM   29 BR   UNL     1      16.679  49.189  47.964  1.00  0.00    -0.051 Br
HETATM   30  C   UNL     1      19.467  49.034  48.528  1.00  0.00     0.035 A 
ENDBRANCH   2  18
TORSDOF 5
ENDMDL
MODEL 7
REMARK VINA RESULT:      -8.5      1.523      2.067
REMARK  5 active torsions:
REMARK  status: ('A' for Active; 'I' for Inactive)
REMARK    1  A    between atoms: O_2  and  C_3 
REMARK    2  A    between atoms: C_6  and  C_7 
REMARK       I    between atoms: C_7  and  N_8 
REMARK    3  A    between atoms: N_8  and  C_9 
REMARK    4  A    between atoms: C_9  and  C_10 
REMARK       I    between atoms: C_10  and  N_11 
REMARK    5  A    between atoms: N_11  and  N_12 
ROOT
HETATM    1  C   UNL     1      24.602  44.634  50.968  1.00  0.00     0.255 C 
HETATM    2  N   UNL     1      25.974  44.801  50.927  1.00  0.00    -0.245 N 
HETATM    3  O   UNL     1      23.932  44.585  51.999  1.00  0.00    -0.270 OA
HETATM    4  H   UNL     1      26.442  44.922  50.025  1.00  0.00     0.192 HD
ENDROOT
BRANCH   1   5
HETATM    5  C   UNL     1      23.927  44.592  49.597  1.00  0.00     0.227 C 
BRANCH   5   6
HETATM    6  N   UNL     1      23.196  45.784  49.182  1.00  0.00    -0.348 N 
HETATM    7  C   UNL     1      23.772  47.034  49.259  1.00  0.00     0.252 C 
HETATM    8  O   UNL     1      24.980  47.182  49.414  1.00  0.00    -0.268 OA
HETATM    9  H   UNL     1      22.230  45.671  48.914  1.00  0.00     0.163 HD
BRANCH   7  10
HETATM   10  C   UNL     1      22.871  48.223  49.166  1.00  0.00     0.032 A 
HETATM   11  C   UNL     1      21.477  48.119  49.103  1.00  0.00     0.020 A 
HETATM   12  C   UNL     1      20.687  49.274  49.115  1.00  0.00     0.038 A 
HETATM   13  C   UNL     1      21.270  50.539  49.215  1.00  0.00     0.068 A 
HETATM   14  C   UNL     1      22.659  50.649  49.258  1.00  0.00     0.038 A 
HETATM   15  C   UNL     1      23.453  49.496  49.237  1.00  0.00     0.020 A 
BRANCH  13  16
HETATM   16  O   UNL     1      20.385  51.580  49.257  1.00  0.00    -0.356 OA
HETATM   17  C   UNL     1      19.382  51.592  48.247  1.00  0.00     0.210 C 
ENDBRANCH  13  16
ENDBRANCH   7  10
ENDBRANCH   5   6
ENDBRANCH   1   5
BRANCH   2  18
HETATM   18  N   UNL     1      26.675  44.949  52.087  1.00  0.00    -0.166 NA
HETATM   19  C   UNL     1      27.625  44.104  52.313  1.00  0.00     0.157 A 
HETATM   20  C   UNL     1      28.060  42.896  51.478  1.00  0.00     0.277 A 
HETATM   21  C   UNL     1      28.506  44.125  53.476  1.00  0.00     0.028 A 
HETATM   22  O   UNL     1      27.546  42.546  50.437  1.00  0.00    -0.266 OA
HETATM   23  N   UNL     1      29.108  42.327  52.172  1.00  0.00    -0.321 N 
HETATM   24  C   UNL     1      29.371  43.041  53.339  1.00  0.00     0.048 A 
HETATM   25  H   UNL     1      29.599  41.504  51.856  1.00  0.00     0.169 HD
HETATM   26  C   UNL     1      30.341  42.780  54.283  1.00  0.00     0.032 A 
HETATM   27  C   UNL     1      30.421  43.648  55.379  1.00  0.00     0.021 A 
HETATM   28  C   UNL     1      29.540  44.744  55.503  1.00  0.00     0.012 A 
HETATM   29 BR   UNL     1      29.694  45.891  56.999  1.00  0.00    -0.051 Br
HETATM   30  C   UNL     1      28.561  44.998  54.543  1.00  0.00     0.035 A 
ENDBRANCH   2  18
TORSDOF 5
ENDMDL
MODEL 8
REMARK VINA RESULT:      -8.3      1.763      2.497
REMARK  5 active torsions:
REMARK  status: ('A' for Active; 'I' for Inactive)
REMARK    1  A    between atoms: O_2  and  C_3 
REMARK    2  A    between atoms: C_6  and  C_7 
REMARK       I    between atoms: C_7  and  N_8 
REMARK    3  A    between atoms: N_8  and  C_9 
REMARK    4  A    between atoms: C_9  and  C_10 
REMARK       I    between atoms: C_10  and  N_11 
REMARK    5  A    between atoms: N_11  and  N_12 
ROOT
HETATM    1  C   UNL     1      24.286  48.734  49.257  1.00  0.00     0.255 C 
HETATM    2  N   UNL     1      23.828  47.897  50.257  1.00  0.00    -0.245 N 
HETATM    3  O   UNL     1      25.441  49.149  49.164  1.00  0.00    -0.270 OA
HETATM    4  H   UNL     1      22.875  47.526  50.210  1.00  0.00     0.192 HD
ENDROOT
BRANCH   1   5
HETATM    5  C   UNL     1      23.251  49.062  48.181  1.00  0.00     0.227 C 
BRANCH   5   6
HETATM    6  N   UNL     1      22.125  49.898  48.578  1.00  0.00    -0.348 N 
HETATM    7  C   UNL     1      20.923  49.340  48.957  1.00  0.00     0.252 C 
HETATM    8  O   UNL     1      20.822  48.150  49.237  1.00  0.00    -0.268 OA
HETATM    9  H   UNL     1      22.229  50.898  48.488  1.00  0.00     0.163 HD
BRANCH   7  10
HETATM   10  C   UNL     1      19.723  50.230  49.001  1.00  0.00     0.032 A 
HETATM   11  C   UNL     1      19.809  51.626  48.962  1.00  0.00     0.020 A 
HETATM   12  C   UNL     1      18.644  52.399  48.909  1.00  0.00     0.038 A 
HETATM   13  C   UNL     1      17.386  51.795  48.870  1.00  0.00     0.068 A 
HETATM   14  C   UNL     1      17.294  50.405  48.929  1.00  0.00     0.038 A 
HETATM   15  C   UNL     1      18.457  49.629  48.991  1.00  0.00     0.020 A 
BRANCH  13  16
HETATM   16  O   UNL     1      16.333  52.662  48.778  1.00  0.00    -0.356 OA
HETATM   17  C   UNL     1      16.059  53.441  49.938  1.00  0.00     0.210 C 
ENDBRANCH  13  16
ENDBRANCH   7  10
ENDBRANCH   5   6
ENDBRANCH   1   5
BRANCH   2  18
HETATM   18  N   UNL     1      24.687  47.458  51.221  1.00  0.00    -0.166 NA
HETATM   19  C   UNL     1      24.943  46.192  51.249  1.00  0.00     0.157 A 
HETATM   20  C   UNL     1      24.370  45.073  50.374  1.00  0.00     0.277 A 
HETATM   21  C   UNL     1      25.863  45.544  52.177  1.00  0.00     0.028 A 
HETATM   22  O   UNL     1      23.554  45.227  49.490  1.00  0.00    -0.266 OA
HETATM   23  N   UNL     1      24.964  43.912  50.826  1.00  0.00    -0.321 N 
HETATM   24  C   UNL     1      25.835  44.183  51.878  1.00  0.00     0.048 A 
HETATM   25  H   UNL     1      24.773  43.004  50.431  1.00  0.00     0.169 HD
HETATM   26  C   UNL     1      26.607  43.283  52.582  1.00  0.00     0.032 A 
HETATM   27  C   UNL     1      27.419  43.793  53.603  1.00  0.00     0.021 A 
HETATM   28  C   UNL     1      27.438  45.175  53.892  1.00  0.00     0.012 A 
HETATM   29 BR   UNL     1      28.556  45.815  55.277  1.00  0.00    -0.051 Br
HETATM   30  C   UNL     1      26.652  46.076  53.175  1.00  0.00     0.035 A 
ENDBRANCH   2  18
TORSDOF 5
ENDMDL
MODEL 9
REMARK VINA RESULT:      -8.3      3.326      5.349
REMARK  5 active torsions:
REMARK  status: ('A' for Active; 'I' for Inactive)
REMARK    1  A    between atoms: O_2  and  C_3 
REMARK    2  A    between atoms: C_6  and  C_7 
REMARK       I    between atoms: C_7  and  N_8 
REMARK    3  A    between atoms: N_8  and  C_9 
REMARK    4  A    between atoms: C_9  and  C_10 
REMARK       I    between atoms: C_10  and  N_11 
REMARK    5  A    between atoms: N_11  and  N_12 
ROOT
HETATM    1  C   UNL     1      27.291  40.931  51.173  1.00  0.00     0.255 C 
HETATM    2  N   UNL     1      26.979  41.728  52.258  1.00  0.00    -0.245 N 
HETATM    3  O   UNL     1      28.419  40.512  50.911  1.00  0.00    -0.270 OA
HETATM    4  H   UNL     1      26.001  41.957  52.453  1.00  0.00     0.192 HD
ENDROOT
BRANCH   1   5
HETATM    5  C   UNL     1      26.089  40.514  50.325  1.00  0.00     0.227 C 
BRANCH   5   6
HETATM    6  N   UNL     1      25.253  41.582  49.791  1.00  0.00    -0.348 N 
HETATM    7  C   UNL     1      25.810  42.737  49.285  1.00  0.00     0.252 C 
HETATM    8  O   UNL     1      27.003  42.813  49.011  1.00  0.00    -0.268 OA
HETATM    9  H   UNL     1      24.253  41.482  49.879  1.00  0.00     0.163 HD
BRANCH   7  10
HETATM   10  C   UNL     1      24.914  43.917  49.093  1.00  0.00     0.032 A 
HETATM   11  C   UNL     1      23.579  43.803  48.690  1.00  0.00     0.020 A 
HETATM   12  C   UNL     1      22.767  44.940  48.623  1.00  0.00     0.038 A 
HETATM   13  C   UNL     1      23.264  46.196  48.977  1.00  0.00     0.068 A 
HETATM   14  C   UNL     1      24.599  46.319  49.360  1.00  0.00     0.038 A 
HETATM   15  C   UNL     1      25.417  45.185  49.419  1.00  0.00     0.020 A 
BRANCH  13  16
HETATM   16  O   UNL     1      22.357  47.216  48.905  1.00  0.00    -0.356 OA
HETATM   17  C   UNL     1      21.041  46.858  48.497  1.00  0.00     0.210 C 
ENDBRANCH  13  16
ENDBRANCH   7  10
ENDBRANCH   5   6
ENDBRANCH   1   5
BRANCH   2  18
HETATM   18  N   UNL     1      27.955  42.085  53.141  1.00  0.00    -0.166 NA
HETATM   19  C   UNL     1      27.933  43.298  53.586  1.00  0.00     0.157 A 
HETATM   20  C   UNL     1      26.983  44.441  53.220  1.00  0.00     0.277 A 
HETATM   21  C   UNL     1      28.866  43.849  54.562  1.00  0.00     0.028 A 
HETATM   22  O   UNL     1      26.074  44.365  52.420  1.00  0.00    -0.266 OA
HETATM   23  N   UNL     1      27.404  45.522  53.967  1.00  0.00    -0.321 N 
HETATM   24  C   UNL     1      28.502  45.181  54.752  1.00  0.00     0.048 A 
HETATM   25  H   UNL     1      26.959  46.427  53.930  1.00  0.00     0.169 HD
HETATM   26  C   UNL     1      29.193  45.990  55.628  1.00  0.00     0.032 A 
HETATM   27  C   UNL     1      30.271  45.419  56.318  1.00  0.00     0.021 A 
HETATM   28  C   UNL     1      30.625  44.068  56.117  1.00  0.00     0.012 A 
HETATM   29 BR   UNL     1      32.083  43.342  57.078  1.00  0.00    -0.051 Br
HETATM   30  C   UNL     1      29.920  43.257  55.228  1.00  0.00     0.035 A 
ENDBRANCH   2  18
TORSDOF 5
ENDMDL
MODEL 10
REMARK VINA RESULT:      -8.2      4.464      9.839
REMARK  5 active torsions:
REMARK  status: ('A' for Active; 'I' for Inactive)
REMARK    1  A    between atoms: O_2  and  C_3 
REMARK    2  A    between atoms: C_6  and  C_7 
REMARK       I    between atoms: C_7  and  N_8 
REMARK    3  A    between atoms: N_8  and  C_9 
REMARK    4  A    between atoms: C_9  and  C_10 
REMARK       I    between atoms: C_10  and  N_11 
REMARK    5  A    between atoms: N_11  and  N_12 
ROOT
HETATM    1  C   UNL     1      26.398  42.165  51.041  1.00  0.00     0.255 C 
HETATM    2  N   UNL     1      25.269  42.847  51.458  1.00  0.00    -0.245 N 
HETATM    3  O   UNL     1      26.749  42.040  49.868  1.00  0.00    -0.270 OA
HETATM    4  H   UNL     1      25.099  42.980  52.458  1.00  0.00     0.192 HD
ENDROOT
BRANCH   1   5
HETATM    5  C   UNL     1      27.265  41.620  52.176  1.00  0.00     0.227 C 
BRANCH   5   6
HETATM    6  N   UNL     1      27.656  42.560  53.220  1.00  0.00    -0.348 N 
HETATM    7  C   UNL     1      28.662  43.480  53.010  1.00  0.00     0.252 C 
HETATM    8  O   UNL     1      29.079  43.736  51.885  1.00  0.00    -0.268 OA
HETATM    9  H   UNL     1      27.224  42.460  54.126  1.00  0.00     0.163 HD
BRANCH   7  10
HETATM   10  C   UNL     1      29.252  44.153  54.206  1.00  0.00     0.032 A 
HETATM   11  C   UNL     1      28.711  45.314  54.770  1.00  0.00     0.020 A 
HETATM   12  C   UNL     1      29.255  45.840  55.948  1.00  0.00     0.038 A 
HETATM   13  C   UNL     1      30.322  45.207  56.588  1.00  0.00     0.068 A 
HETATM   14  C   UNL     1      30.877  44.062  56.019  1.00  0.00     0.038 A 
HETATM   15  C   UNL     1      30.342  43.538  54.836  1.00  0.00     0.020 A 
BRANCH  13  16
HETATM   16  O   UNL     1      30.732  45.801  57.749  1.00  0.00    -0.356 OA
HETATM   17  C   UNL     1      30.570  45.033  58.937  1.00  0.00     0.210 C 
ENDBRANCH  13  16
ENDBRANCH   7  10
ENDBRANCH   5   6
ENDBRANCH   1   5
BRANCH   2  18
HETATM   18  N   UNL     1      24.469  43.460  50.539  1.00  0.00    -0.166 NA
HETATM   19  C   UNL     1      24.482  44.751  50.515  1.00  0.00     0.157 A 
HETATM   20  C   UNL     1      25.240  45.725  51.421  1.00  0.00     0.277 A 
HETATM   21  C   UNL     1      23.727  45.579  49.581  1.00  0.00     0.028 A 
HETATM   22  O   UNL     1      25.969  45.403  52.336  1.00  0.00    -0.266 OA
HETATM   23  N   UNL     1      24.895  46.985  50.978  1.00  0.00    -0.321 N 
HETATM   24  C   UNL     1      24.012  46.904  49.904  1.00  0.00     0.048 A 
HETATM   25  H   UNL     1      25.247  47.833  51.395  1.00  0.00     0.169 HD
HETATM   26  C   UNL     1      23.451  47.946  49.198  1.00  0.00     0.032 A 
HETATM   27  C   UNL     1      22.588  47.618  48.144  1.00  0.00     0.021 A 
HETATM   28  C   UNL     1      22.312  46.271  47.826  1.00  0.00     0.012 A 
HETATM   29 BR   UNL     1      21.146  45.880  46.389  1.00  0.00    -0.051 Br
HETATM   30  C   UNL     1      22.884  45.224  48.548  1.00  0.00     0.035 A 
ENDBRANCH   2  18
TORSDOF 5
ENDMDL
