MODEL 1
REMARK VINA RESULT:      -7.9      0.000      0.000
REMARK  6 active torsions:
REMARK  status: ('A' for Active; 'I' for Inactive)
REMARK    1  A    between atoms: C_3  and  N_4 
REMARK    2  A    between atoms: N_4  and  C_5 
REMARK    3  A    between atoms: C_5  and  C_6 
REMARK    4  A    between atoms: N_8  and  C_10 
REMARK    5  A    between atoms: C_10  and  C_11 
REMARK    6  A    between atoms: C_12  and  O_13 
ROOT
HETATM    1  C   UNL     1      27.500  44.798  53.630  1.00  0.00     0.026 C 
HETATM    2  C   UNL     1      26.202  45.079  52.881  1.00  0.00     0.241 C 
HETATM    3  N   UNL     1      26.080  43.924  51.917  1.00  0.00    -0.067 N 
HETATM    4  H   UNL     1      25.103  43.572  51.952  1.00  0.00     0.280 HD
HETATM    5  C   UNL     1      27.004  42.823  52.381  1.00  0.00     0.235 C 
HETATM    6  C   UNL     1      27.464  43.277  53.758  1.00  0.00     0.035 C 
ENDROOT
BRANCH   3   7
HETATM    7  C   UNL     1      26.249  44.279  50.458  1.00  0.00     0.276 C 
BRANCH   7   8
HETATM    8  C   UNL     1      25.806  45.679  50.135  1.00  0.00     0.002 A 
HETATM    9  C   UNL     1      24.448  46.028  50.125  1.00  0.00     0.073 A 
HETATM   10  C   UNL     1      24.031  47.316  49.798  1.00  0.00     0.038 A 
HETATM   11  C   UNL     1      24.981  48.284  49.475  1.00  0.00     0.022 A 
HETATM   12  C   UNL     1      26.335  47.954  49.476  1.00  0.00     0.011 A 
HETATM   13 BR   UNL     1      27.624  49.267  49.048  1.00  0.00    -0.051 Br
HETATM   14  C   UNL     1      26.750  46.660  49.795  1.00  0.00     0.030 A 
BRANCH   9  15
HETATM   15  O   UNL     1      23.532  45.071  50.474  1.00  0.00    -0.360 OA
HETATM   16  H   UNL     1      24.030  44.306  50.836  1.00  0.00     0.217 HD
ENDBRANCH   9  15
ENDBRANCH   7   8
ENDBRANCH   3   7
BRANCH   1  17
HETATM   17  C   UNL     1      27.606  45.545  54.966  1.00  0.00     0.100 C 
BRANCH  17  18
HETATM   18  N   UNL     1      28.985  45.979  55.171  1.00  0.00    -0.279 NA
HETATM   19  H   UNL     1      29.061  46.989  55.321  1.00  0.00     0.129 HD
BRANCH  18  20
HETATM   20  C   UNL     1      29.865  45.326  56.036  1.00  0.00     0.079 A 
HETATM   21  C   UNL     1      30.502  44.151  55.609  1.00  0.00     0.042 A 
HETATM   22  C   UNL     1      31.356  43.458  56.464  1.00  0.00     0.005 A 
HETATM   23  C   UNL     1      31.553  43.927  57.754  1.00  0.00     0.017 A 
HETATM   24  C   UNL     1      30.880  45.068  58.159  1.00  0.00     0.089 A 
HETATM   25  N   UNL     1      30.065  45.715  57.307  1.00  0.00    -0.357 N 
HETATM   26  H   UNL     1      29.570  46.528  57.653  1.00  0.00     0.166 HD
ENDBRANCH  18  20
ENDBRANCH  17  18
ENDBRANCH   1  17
TORSDOF 6
ENDMDL
MODEL 2
REMARK VINA RESULT:      -7.9      2.200      2.698
REMARK  6 active torsions:
REMARK  status: ('A' for Active; 'I' for Inactive)
REMARK    1  A    between atoms: C_3  and  N_4 
REMARK    2  A    between atoms: N_4  and  C_5 
REMARK    3  A    between atoms: C_5  and  C_6 
REMARK    4  A    between atoms: N_8  and  C_10 
REMARK    5  A    between atoms: C_10  and  C_11 
REMARK    6  A    between atoms: C_12  and  O_13 
ROOT
HETATM    1  C   UNL     1      26.827  45.697  53.628  1.00  0.00     0.026 C 
HETATM    2  C   UNL     1      26.580  47.042  52.954  1.00  0.00     0.241 C 
HETATM    3  N   UNL     1      25.682  46.706  51.788  1.00  0.00    -0.067 N 
HETATM    4  H   UNL     1      24.909  47.400  51.762  1.00  0.00     0.280 HD
HETATM    5  C   UNL     1      25.090  45.337  52.028  1.00  0.00     0.235 C 
HETATM    6  C   UNL     1      25.473  45.011  53.463  1.00  0.00     0.035 C 
ENDROOT
BRANCH   3   7
HETATM    7  C   UNL     1      26.311  46.861  50.424  1.00  0.00     0.276 C 
BRANCH   7   8
HETATM    8  C   UNL     1      25.708  47.978  49.617  1.00  0.00     0.002 A 
HETATM    9  C   UNL     1      26.511  48.850  48.869  1.00  0.00     0.073 A 
HETATM   10  C   UNL     1      25.960  49.903  48.143  1.00  0.00     0.038 A 
HETATM   11  C   UNL     1      24.579  50.096  48.155  1.00  0.00     0.022 A 
HETATM   12  C   UNL     1      23.766  49.241  48.895  1.00  0.00     0.011 A 
HETATM   13 BR   UNL     1      21.894  49.495  48.903  1.00  0.00    -0.051 Br
HETATM   14  C   UNL     1      24.321  48.191  49.629  1.00  0.00     0.030 A 
BRANCH   9  15
HETATM   15  O   UNL     1      27.863  48.626  48.848  1.00  0.00    -0.360 OA
HETATM   16  H   UNL     1      28.189  48.708  49.770  1.00  0.00     0.217 HD
ENDBRANCH   9  15
ENDBRANCH   7   8
ENDBRANCH   3   7
BRANCH   1  17
HETATM   17  C   UNL     1      27.303  45.821  55.082  1.00  0.00     0.100 C 
BRANCH  17  18
HETATM   18  N   UNL     1      28.738  46.090  55.101  1.00  0.00    -0.279 NA
HETATM   19  H   UNL     1      28.951  47.079  55.259  1.00  0.00     0.129 HD
BRANCH  18  20
HETATM   20  C   UNL     1      29.646  45.312  55.821  1.00  0.00     0.079 A 
HETATM   21  C   UNL     1      30.097  44.101  55.273  1.00  0.00     0.042 A 
HETATM   22  C   UNL     1      30.975  43.286  55.985  1.00  0.00     0.005 A 
HETATM   23  C   UNL     1      31.380  43.670  57.255  1.00  0.00     0.017 A 
HETATM   24  C   UNL     1      30.886  44.852  57.784  1.00  0.00     0.089 A 
HETATM   25  N   UNL     1      30.044  45.617  57.068  1.00  0.00    -0.357 N 
HETATM   26  H   UNL     1      29.684  46.457  57.504  1.00  0.00     0.166 HD
ENDBRANCH  18  20
ENDBRANCH  17  18
ENDBRANCH   1  17
TORSDOF 6
ENDMDL
MODEL 3
REMARK VINA RESULT:      -7.8      3.822      8.764
REMARK  6 active torsions:
REMARK  status: ('A' for Active; 'I' for Inactive)
REMARK    1  A    between atoms: C_3  and  N_4 
REMARK    2  A    between atoms: N_4  and  C_5 
REMARK    3  A    between atoms: C_5  and  C_6 
REMARK    4  A    between atoms: N_8  and  C_10 
REMARK    5  A    between atoms: C_10  and  C_11 
REMARK    6  A    between atoms: C_12  and  O_13 
ROOT
HETATM    1  C   UNL     1      24.419  46.866  50.205  1.00  0.00     0.026 C 
HETATM    2  C   UNL     1      25.565  47.082  51.187  1.00  0.00     0.241 C 
HETATM    3  N   UNL     1      25.934  45.686  51.629  1.00  0.00    -0.067 N 
HETATM    4  H   UNL     1      26.969  45.600  51.604  1.00  0.00     0.280 HD
HETATM    5  C   UNL     1      25.346  44.707  50.641  1.00  0.00     0.235 C 
HETATM    6  C   UNL     1      24.849  45.581  49.500  1.00  0.00     0.035 C 
ENDROOT
BRANCH   3   7
HETATM    7  C   UNL     1      25.611  45.360  53.069  1.00  0.00     0.276 C 
BRANCH   7   8
HETATM    8  C   UNL     1      26.786  45.529  53.993  1.00  0.00     0.002 A 
HETATM    9  C   UNL     1      26.919  46.668  54.798  1.00  0.00     0.073 A 
HETATM   10  C   UNL     1      28.019  46.843  55.634  1.00  0.00     0.038 A 
HETATM   11  C   UNL     1      29.012  45.864  55.676  1.00  0.00     0.022 A 
HETATM   12  C   UNL     1      28.897  44.726  54.879  1.00  0.00     0.011 A 
HETATM   13 BR   UNL     1      30.236  43.395  54.943  1.00  0.00    -0.051 Br
HETATM   14  C   UNL     1      27.798  44.557  54.036  1.00  0.00     0.030 A 
BRANCH   9  15
HETATM   15  O   UNL     1      25.919  47.605  54.764  1.00  0.00    -0.360 OA
HETATM   16  H   UNL     1      25.433  47.485  53.920  1.00  0.00     0.217 HD
ENDBRANCH   9  15
ENDBRANCH   7   8
ENDBRANCH   3   7
BRANCH   1  17
HETATM   17  C   UNL     1      24.188  48.058  49.267  1.00  0.00     0.100 C 
BRANCH  17  18
HETATM   18  N   UNL     1      23.392  49.070  49.956  1.00  0.00    -0.279 NA
HETATM   19  H   UNL     1      23.954  49.870  50.262  1.00  0.00     0.129 HD
BRANCH  18  20
HETATM   20  C   UNL     1      22.170  49.536  49.469  1.00  0.00     0.079 A 
HETATM   21  C   UNL     1      22.087  50.840  48.956  1.00  0.00     0.042 A 
HETATM   22  C   UNL     1      20.872  51.344  48.498  1.00  0.00     0.005 A 
HETATM   23  C   UNL     1      19.736  50.554  48.577  1.00  0.00     0.017 A 
HETATM   24  C   UNL     1      19.841  49.286  49.124  1.00  0.00     0.089 A 
HETATM   25  N   UNL     1      21.030  48.828  49.553  1.00  0.00    -0.357 N 
HETATM   26  H   UNL     1      21.057  47.908  49.974  1.00  0.00     0.166 HD
ENDBRANCH  18  20
ENDBRANCH  17  18
ENDBRANCH   1  17
TORSDOF 6
ENDMDL
MODEL 4
REMARK VINA RESULT:      -7.8      3.454      8.445
REMARK  6 active torsions:
REMARK  status: ('A' for Active; 'I' for Inactive)
REMARK    1  A    between atoms: C_3  and  N_4 
REMARK    2  A    between atoms: N_4  and  C_5 
REMARK    3  A    between atoms: C_5  and  C_6 
REMARK    4  A    between atoms: N_8  and  C_10 
REMARK    5  A    between atoms: C_10  and  C_11 
REMARK    6  A    between atoms: C_12  and  O_13 
ROOT
HETATM    1  C   UNL     1      24.774  46.035  51.070  1.00  0.00     0.026 C 
HETATM    2  C   UNL     1      26.185  45.713  51.548  1.00  0.00     0.241 C 
HETATM    3  N   UNL     1      26.108  44.263  51.962  1.00  0.00    -0.067 N 
HETATM    4  H   UNL     1      26.935  43.769  51.574  1.00  0.00     0.280 HD
HETATM    5  C   UNL     1      24.862  43.665  51.352  1.00  0.00     0.235 C 
HETATM    6  C   UNL     1      24.369  44.731  50.387  1.00  0.00     0.035 C 
ENDROOT
BRANCH   3   7
HETATM    7  C   UNL     1      26.237  44.008  53.445  1.00  0.00     0.276 C 
BRANCH   7   8
HETATM    8  C   UNL     1      27.660  43.809  53.890  1.00  0.00     0.002 A 
HETATM    9  C   UNL     1      28.435  42.751  53.395  1.00  0.00     0.073 A 
HETATM   10  C   UNL     1      29.743  42.545  53.826  1.00  0.00     0.038 A 
HETATM   11  C   UNL     1      30.300  43.409  54.769  1.00  0.00     0.022 A 
HETATM   12  C   UNL     1      29.542  44.464  55.274  1.00  0.00     0.011 A 
HETATM   13 BR   UNL     1      30.298  45.641  56.544  1.00  0.00    -0.051 Br
HETATM   14  C   UNL     1      28.228  44.663  54.848  1.00  0.00     0.030 A 
BRANCH   9  15
HETATM   15  O   UNL     1      27.880  41.931  52.448  1.00  0.00    -0.360 OA
HETATM   16  H   UNL     1      27.044  41.575  52.821  1.00  0.00     0.217 HD
ENDBRANCH   9  15
ENDBRANCH   7   8
ENDBRANCH   3   7
BRANCH   1  17
HETATM   17  C   UNL     1      24.704  47.274  50.167  1.00  0.00     0.100 C 
BRANCH  17  18
HETATM   18  N   UNL     1      23.387  47.344  49.540  1.00  0.00    -0.279 NA
HETATM   19  H   UNL     1      22.699  46.742  50.003  1.00  0.00     0.129 HD
BRANCH  18  20
HETATM   20  C   UNL     1      22.774  48.549  49.195  1.00  0.00     0.079 A 
HETATM   21  C   UNL     1      23.521  49.534  48.531  1.00  0.00     0.042 A 
HETATM   22  C   UNL     1      22.946  50.761  48.207  1.00  0.00     0.005 A 
HETATM   23  C   UNL     1      21.632  51.011  48.570  1.00  0.00     0.017 A 
HETATM   24  C   UNL     1      20.932  50.034  49.260  1.00  0.00     0.089 A 
HETATM   25  N   UNL     1      21.516  48.859  49.553  1.00  0.00    -0.357 N 
HETATM   26  H   UNL     1      20.979  48.185  50.084  1.00  0.00     0.166 HD
ENDBRANCH  18  20
ENDBRANCH  17  18
ENDBRANCH   1  17
TORSDOF 6
ENDMDL
MODEL 5
REMARK VINA RESULT:      -7.6      3.479      4.838
REMARK  6 active torsions:
REMARK  status: ('A' for Active; 'I' for Inactive)
REMARK    1  A    between atoms: C_3  and  N_4 
REMARK    2  A    between atoms: N_4  and  C_5 
REMARK    3  A    between atoms: C_5  and  C_6 
REMARK    4  A    between atoms: N_8  and  C_10 
REMARK    5  A    between atoms: C_10  and  C_11 
REMARK    6  A    between atoms: C_12  and  O_13 
ROOT
HETATM    1  C   UNL     1      26.780  44.532  53.577  1.00  0.00     0.026 C 
HETATM    2  C   UNL     1      27.704  43.610  52.790  1.00  0.00     0.241 C 
HETATM    3  N   UNL     1      27.005  43.441  51.462  1.00  0.00    -0.067 N 
HETATM    4  H   UNL     1      27.710  43.554  50.707  1.00  0.00     0.280 HD
HETATM    5  C   UNL     1      25.977  44.540  51.327  1.00  0.00     0.235 C 
HETATM    6  C   UNL     1      26.276  45.476  52.488  1.00  0.00     0.035 C 
ENDROOT
BRANCH   3   7
HETATM    7  C   UNL     1      26.453  42.061  51.195  1.00  0.00     0.276 C 
BRANCH   7   8
HETATM    8  C   UNL     1      27.319  41.245  50.274  1.00  0.00     0.002 A 
HETATM    9  C   UNL     1      27.412  41.546  48.908  1.00  0.00     0.073 A 
HETATM   10  C   UNL     1      28.190  40.776  48.046  1.00  0.00     0.038 A 
HETATM   11  C   UNL     1      28.894  39.682  48.549  1.00  0.00     0.022 A 
HETATM   12  C   UNL     1      28.809  39.366  49.903  1.00  0.00     0.011 A 
HETATM   13 BR   UNL     1      29.770  37.891  50.587  1.00  0.00    -0.051 Br
HETATM   14  C   UNL     1      28.023  40.134  50.764  1.00  0.00     0.030 A 
BRANCH   9  15
HETATM   15  O   UNL     1      26.736  42.641  48.440  1.00  0.00    -0.360 OA
HETATM   16  H   UNL     1      27.394  43.234  48.017  1.00  0.00     0.217 HD
ENDBRANCH   9  15
ENDBRANCH   7   8
ENDBRANCH   3   7
BRANCH   1  17
HETATM   17  C   UNL     1      27.474  45.232  54.753  1.00  0.00     0.100 C 
BRANCH  17  18
HETATM   18  N   UNL     1      28.922  45.113  54.602  1.00  0.00    -0.279 NA
HETATM   19  H   UNL     1      29.322  45.874  54.045  1.00  0.00     0.129 HD
BRANCH  18  20
HETATM   20  C   UNL     1      29.776  44.837  55.671  1.00  0.00     0.079 A 
HETATM   21  C   UNL     1      30.585  43.691  55.625  1.00  0.00     0.042 A 
HETATM   22  C   UNL     1      31.419  43.370  56.693  1.00  0.00     0.005 A 
HETATM   23  C   UNL     1      31.425  44.181  57.818  1.00  0.00     0.017 A 
HETATM   24  C   UNL     1      30.586  45.284  57.850  1.00  0.00     0.089 A 
HETATM   25  N   UNL     1      29.796  45.567  56.799  1.00  0.00    -0.357 N 
HETATM   26  H   UNL     1      29.177  46.364  56.876  1.00  0.00     0.166 HD
ENDBRANCH  18  20
ENDBRANCH  17  18
ENDBRANCH   1  17
TORSDOF 6
ENDMDL
MODEL 6
REMARK VINA RESULT:      -7.3     12.933     13.793
REMARK  6 active torsions:
REMARK  status: ('A' for Active; 'I' for Inactive)
REMARK    1  A    between atoms: C_3  and  N_4 
REMARK    2  A    between atoms: N_4  and  C_5 
REMARK    3  A    between atoms: C_5  and  C_6 
REMARK    4  A    between atoms: N_8  and  C_10 
REMARK    5  A    between atoms: C_10  and  C_11 
REMARK    6  A    between atoms: C_12  and  O_13 
ROOT
HETATM    1  C   UNL     1      30.848  48.044  39.938  1.00  0.00     0.026 C 
HETATM    2  C   UNL     1      29.580  48.492  40.657  1.00  0.00     0.241 C 
HETATM    3  N   UNL     1      28.541  48.548  39.563  1.00  0.00    -0.067 N 
HETATM    4  H   UNL     1      27.677  48.090  39.912  1.00  0.00     0.280 HD
HETATM    5  C   UNL     1      29.057  47.762  38.381  1.00  0.00     0.235 C 
HETATM    6  C   UNL     1      30.294  47.056  38.914  1.00  0.00     0.035 C 
ENDROOT
BRANCH   3   7
HETATM    7  C   UNL     1      28.058  49.933  39.203  1.00  0.00     0.276 C 
BRANCH   7   8
HETATM    8  C   UNL     1      28.836  51.027  39.881  1.00  0.00     0.002 A 
HETATM    9  C   UNL     1      28.244  51.842  40.856  1.00  0.00     0.073 A 
HETATM   10  C   UNL     1      28.952  52.875  41.466  1.00  0.00     0.038 A 
HETATM   11  C   UNL     1      30.279  53.105  41.105  1.00  0.00     0.022 A 
HETATM   12  C   UNL     1      30.882  52.307  40.135  1.00  0.00     0.011 A 
HETATM   13 BR   UNL     1      32.682  52.611  39.652  1.00  0.00    -0.051 Br
HETATM   14  C   UNL     1      30.168  51.278  39.518  1.00  0.00     0.030 A 
BRANCH   9  15
HETATM   15  O   UNL     1      26.949  51.582  41.217  1.00  0.00    -0.360 OA
HETATM   16  H   UNL     1      26.656  50.793  40.713  1.00  0.00     0.217 HD
ENDBRANCH   9  15
ENDBRANCH   7   8
ENDBRANCH   3   7
BRANCH   1  17
HETATM   17  C   UNL     1      31.908  47.457  40.879  1.00  0.00     0.100 C 
BRANCH  17  18
HETATM   18  N   UNL     1      33.086  48.320  40.882  1.00  0.00    -0.279 NA
HETATM   19  H   UNL     1      33.345  48.633  39.941  1.00  0.00     0.129 HD
BRANCH  18  20
HETATM   20  C   UNL     1      33.248  49.382  41.772  1.00  0.00     0.079 A 
HETATM   21  C   UNL     1      32.155  49.799  42.548  1.00  0.00     0.042 A 
HETATM   22  C   UNL     1      32.277  50.880  43.418  1.00  0.00     0.005 A 
HETATM   23  C   UNL     1      33.484  51.559  43.492  1.00  0.00     0.017 A 
HETATM   24  C   UNL     1      34.532  51.148  42.686  1.00  0.00     0.089 A 
HETATM   25  N   UNL     1      34.382  50.098  41.860  1.00  0.00    -0.357 N 
HETATM   26  H   UNL     1      35.163  49.849  41.266  1.00  0.00     0.166 HD
ENDBRANCH  18  20
ENDBRANCH  17  18
ENDBRANCH   1  17
TORSDOF 6
ENDMDL
MODEL 7
REMARK VINA RESULT:      -7.1      2.946      5.453
REMARK  6 active torsions:
REMARK  status: ('A' for Active; 'I' for Inactive)
REMARK    1  A    between atoms: C_3  and  N_4 
REMARK    2  A    between atoms: N_4  and  C_5 
REMARK    3  A    between atoms: C_5  and  C_6 
REMARK    4  A    between atoms: N_8  and  C_10 
REMARK    5  A    between atoms: C_10  and  C_11 
REMARK    6  A    between atoms: C_12  and  O_13 
ROOT
HETATM    1  C   UNL     1      28.534  42.689  53.802  1.00  0.00     0.026 C 
HETATM    2  C   UNL     1      28.120  43.770  52.809  1.00  0.00     0.241 C 
HETATM    3  N   UNL     1      28.016  45.018  53.652  1.00  0.00    -0.067 N 
HETATM    4  H   UNL     1      28.489  45.792  53.147  1.00  0.00     0.280 HD
HETATM    5  C   UNL     1      28.747  44.773  54.951  1.00  0.00     0.235 C 
HETATM    6  C   UNL     1      29.475  43.457  54.726  1.00  0.00     0.035 C 
ENDROOT
BRANCH   3   7
HETATM    7  C   UNL     1      26.616  45.555  53.839  1.00  0.00     0.276 C 
BRANCH   7   8
HETATM    8  C   UNL     1      25.870  45.729  52.544  1.00  0.00     0.002 A 
HETATM    9  C   UNL     1      24.910  44.797  52.128  1.00  0.00     0.073 A 
HETATM   10  C   UNL     1      24.237  44.938  50.916  1.00  0.00     0.038 A 
HETATM   11  C   UNL     1      24.520  46.031  50.097  1.00  0.00     0.022 A 
HETATM   12  C   UNL     1      25.475  46.965  50.494  1.00  0.00     0.011 A 
HETATM   13 BR   UNL     1      25.852  48.451  49.391  1.00  0.00    -0.051 Br
HETATM   14  C   UNL     1      26.154  46.817  51.705  1.00  0.00     0.030 A 
BRANCH   9  15
HETATM   15  O   UNL     1      24.625  43.746  52.959  1.00  0.00    -0.360 OA
HETATM   16  H   UNL     1      24.950  42.929  52.523  1.00  0.00     0.217 HD
ENDBRANCH   9  15
ENDBRANCH   7   8
ENDBRANCH   3   7
BRANCH   1  17
HETATM   17  C   UNL     1      29.162  41.458  53.135  1.00  0.00     0.100 C 
BRANCH  17  18
HETATM   18  N   UNL     1      28.150  40.766  52.341  1.00  0.00    -0.279 NA
HETATM   19  H   UNL     1      27.243  41.243  52.360  1.00  0.00     0.129 HD
BRANCH  18  20
HETATM   20  C   UNL     1      28.389  40.300  51.048  1.00  0.00     0.079 A 
HETATM   21  C   UNL     1      27.886  41.022  49.954  1.00  0.00     0.042 A 
HETATM   22  C   UNL     1      28.077  40.560  48.654  1.00  0.00     0.005 A 
HETATM   23  C   UNL     1      28.747  39.364  48.449  1.00  0.00     0.017 A 
HETATM   24  C   UNL     1      29.198  38.654  49.551  1.00  0.00     0.089 A 
HETATM   25  N   UNL     1      29.000  39.131  50.793  1.00  0.00    -0.357 N 
HETATM   26  H   UNL     1      29.319  38.566  51.570  1.00  0.00     0.166 HD
ENDBRANCH  18  20
ENDBRANCH  17  18
ENDBRANCH   1  17
TORSDOF 6
ENDMDL
MODEL 8
REMARK VINA RESULT:      -7.0      3.942      5.862
REMARK  6 active torsions:
REMARK  status: ('A' for Active; 'I' for Inactive)
REMARK    1  A    between atoms: C_3  and  N_4 
REMARK    2  A    between atoms: N_4  and  C_5 
REMARK    3  A    between atoms: C_5  and  C_6 
REMARK    4  A    between atoms: N_8  and  C_10 
REMARK    5  A    between atoms: C_10  and  C_11 
REMARK    6  A    between atoms: C_12  and  O_13 
ROOT
HETATM    1  C   UNL     1      24.899  46.365  49.756  1.00  0.00     0.026 C 
HETATM    2  C   UNL     1      24.312  47.645  50.342  1.00  0.00     0.241 C 
HETATM    3  N   UNL     1      23.068  47.884  49.519  1.00  0.00    -0.067 N 
HETATM    4  H   UNL     1      22.292  48.125  50.165  1.00  0.00     0.280 HD
HETATM    5  C   UNL     1      22.720  46.600  48.806  1.00  0.00     0.235 C 
HETATM    6  C   UNL     1      23.641  45.563  49.431  1.00  0.00     0.035 C 
ENDROOT
BRANCH   3   7
HETATM    7  C   UNL     1      23.121  49.087  48.606  1.00  0.00     0.276 C 
BRANCH   7   8
HETATM    8  C   UNL     1      21.849  49.888  48.607  1.00  0.00     0.002 A 
HETATM    9  C   UNL     1      21.464  50.640  49.726  1.00  0.00     0.073 A 
HETATM   10  C   UNL     1      20.273  51.361  49.742  1.00  0.00     0.038 A 
HETATM   11  C   UNL     1      19.441  51.339  48.622  1.00  0.00     0.022 A 
HETATM   12  C   UNL     1      19.806  50.593  47.503  1.00  0.00     0.011 A 
HETATM   13 BR   UNL     1      18.686  50.571  45.982  1.00  0.00    -0.051 Br
HETATM   14  C   UNL     1      20.997  49.865  47.492  1.00  0.00     0.030 A 
BRANCH   9  15
HETATM   15  O   UNL     1      22.308  50.672  50.804  1.00  0.00    -0.360 OA
HETATM   16  H   UNL     1      21.953  50.050  51.474  1.00  0.00     0.217 HD
ENDBRANCH   9  15
ENDBRANCH   7   8
ENDBRANCH   3   7
BRANCH   1  17
HETATM   17  C   UNL     1      25.878  45.656  50.702  1.00  0.00     0.100 C 
BRANCH  17  18
HETATM   18  N   UNL     1      25.429  45.826  52.081  1.00  0.00    -0.279 NA
HETATM   19  H   UNL     1      24.740  45.121  52.359  1.00  0.00     0.129 HD
BRANCH  18  20
HETATM   20  C   UNL     1      26.308  46.042  53.144  1.00  0.00     0.079 A 
HETATM   21  C   UNL     1      26.347  47.305  53.755  1.00  0.00     0.042 A 
HETATM   22  C   UNL     1      27.241  47.561  54.793  1.00  0.00     0.005 A 
HETATM   23  C   UNL     1      28.111  46.562  55.201  1.00  0.00     0.017 A 
HETATM   24  C   UNL     1      28.075  45.339  54.552  1.00  0.00     0.089 A 
HETATM   25  N   UNL     1      27.198  45.124  53.557  1.00  0.00    -0.357 N 
HETATM   26  H   UNL     1      27.225  44.226  53.090  1.00  0.00     0.166 HD
ENDBRANCH  18  20
ENDBRANCH  17  18
ENDBRANCH   1  17
TORSDOF 6
ENDMDL
MODEL 9
REMARK VINA RESULT:      -7.0      3.355      8.393
REMARK  6 active torsions:
REMARK  status: ('A' for Active; 'I' for Inactive)
REMARK    1  A    between atoms: C_3  and  N_4 
REMARK    2  A    between atoms: N_4  and  C_5 
REMARK    3  A    between atoms: C_5  and  C_6 
REMARK    4  A    between atoms: N_8  and  C_10 
REMARK    5  A    between atoms: C_10  and  C_11 
REMARK    6  A    between atoms: C_12  and  O_13 
ROOT
HETATM    1  C   UNL     1      25.098  44.464  50.288  1.00  0.00     0.026 C 
HETATM    2  C   UNL     1      25.310  45.336  51.521  1.00  0.00     0.241 C 
HETATM    3  N   UNL     1      26.689  44.954  52.004  1.00  0.00    -0.067 N 
HETATM    4  H   UNL     1      27.209  45.825  52.225  1.00  0.00     0.280 HD
HETATM    5  C   UNL     1      27.401  44.240  50.880  1.00  0.00     0.235 C 
HETATM    6  C   UNL     1      26.496  44.443  49.675  1.00  0.00     0.035 C 
ENDROOT
BRANCH   3   7
HETATM    7  C   UNL     1      26.728  44.205  53.316  1.00  0.00     0.276 C 
BRANCH   7   8
HETATM    8  C   UNL     1      27.720  44.773  54.293  1.00  0.00     0.002 A 
HETATM    9  C   UNL     1      27.575  46.071  54.803  1.00  0.00     0.073 A 
HETATM   10  C   UNL     1      28.506  46.612  55.687  1.00  0.00     0.038 A 
HETATM   11  C   UNL     1      29.607  45.849  56.077  1.00  0.00     0.022 A 
HETATM   12  C   UNL     1      29.767  44.559  55.577  1.00  0.00     0.011 A 
HETATM   13 BR   UNL     1      31.252  43.521  56.113  1.00  0.00    -0.051 Br
HETATM   14  C   UNL     1      28.838  44.021  54.685  1.00  0.00     0.030 A 
BRANCH   9  15
HETATM   15  O   UNL     1      26.472  46.793  54.430  1.00  0.00    -0.360 OA
HETATM   16  H   UNL     1      26.179  46.453  53.558  1.00  0.00     0.217 HD
ENDBRANCH   9  15
ENDBRANCH   7   8
ENDBRANCH   3   7
BRANCH   1  17
HETATM   17  C   UNL     1      24.001  44.990  49.352  1.00  0.00     0.100 C 
BRANCH  17  18
HETATM   18  N   UNL     1      23.941  46.446  49.444  1.00  0.00    -0.279 NA
HETATM   19  H   UNL     1      24.819  46.894  49.162  1.00  0.00     0.129 HD
BRANCH  18  20
HETATM   20  C   UNL     1      22.872  47.195  48.950  1.00  0.00     0.079 A 
HETATM   21  C   UNL     1      22.226  46.777  47.776  1.00  0.00     0.042 A 
HETATM   22  C   UNL     1      21.181  47.524  47.239  1.00  0.00     0.005 A 
HETATM   23  C   UNL     1      20.799  48.703  47.862  1.00  0.00     0.017 A 
HETATM   24  C   UNL     1      21.482  49.110  48.997  1.00  0.00     0.089 A 
HETATM   25  N   UNL     1      22.484  48.362  49.491  1.00  0.00    -0.357 N 
HETATM   26  H   UNL     1      22.976  48.711  50.304  1.00  0.00     0.166 HD
ENDBRANCH  18  20
ENDBRANCH  17  18
ENDBRANCH   1  17
TORSDOF 6
ENDMDL
MODEL 10
REMARK VINA RESULT:      -7.0     13.202     14.493
REMARK  6 active torsions:
REMARK  status: ('A' for Active; 'I' for Inactive)
REMARK    1  A    between atoms: C_3  and  N_4 
REMARK    2  A    between atoms: N_4  and  C_5 
REMARK    3  A    between atoms: C_5  and  C_6 
REMARK    4  A    between atoms: N_8  and  C_10 
REMARK    5  A    between atoms: C_10  and  C_11 
REMARK    6  A    between atoms: C_12  and  O_13 
ROOT
HETATM    1  C   UNL     1      29.421  52.473  40.248  1.00  0.00     0.026 C 
HETATM    2  C   UNL     1      28.621  52.568  38.954  1.00  0.00     0.241 C 
HETATM    3  N   UNL     1      27.568  51.495  39.097  1.00  0.00    -0.067 N 
HETATM    4  H   UNL     1      26.654  51.896  38.809  1.00  0.00     0.280 HD
HETATM    5  C   UNL     1      27.484  51.108  40.554  1.00  0.00     0.235 C 
HETATM    6  C   UNL     1      28.330  52.151  41.267  1.00  0.00     0.035 C 
ENDROOT
BRANCH   3   7
HETATM    7  C   UNL     1      27.718  50.315  38.166  1.00  0.00     0.276 C 
BRANCH   7   8
HETATM    8  C   UNL     1      28.366  49.125  38.818  1.00  0.00     0.002 A 
HETATM    9  C   UNL     1      29.759  48.968  38.822  1.00  0.00     0.073 A 
HETATM   10  C   UNL     1      30.363  47.853  39.399  1.00  0.00     0.038 A 
HETATM   11  C   UNL     1      29.568  46.870  39.989  1.00  0.00     0.022 A 
HETATM   12  C   UNL     1      28.182  47.009  39.991  1.00  0.00     0.011 A 
HETATM   13 BR   UNL     1      27.105  45.684  40.799  1.00  0.00    -0.051 Br
HETATM   14  C   UNL     1      27.579  48.123  39.404  1.00  0.00     0.030 A 
BRANCH   9  15
HETATM   15  O   UNL     1      30.524  49.958  38.263  1.00  0.00    -0.360 OA
HETATM   16  H   UNL     1      31.434  49.605  38.161  1.00  0.00     0.217 HD
ENDBRANCH   9  15
ENDBRANCH   7   8
ENDBRANCH   3   7
BRANCH   1  17
HETATM   17  C   UNL     1      30.228  53.740  40.560  1.00  0.00     0.100 C 
BRANCH  17  18
HETATM   18  N   UNL     1      31.602  53.372  40.889  1.00  0.00    -0.279 NA
HETATM   19  H   UNL     1      32.064  54.068  41.482  1.00  0.00     0.129 HD
BRANCH  18  20
HETATM   20  C   UNL     1      31.963  52.096  41.324  1.00  0.00     0.079 A 
HETATM   21  C   UNL     1      31.861  51.781  42.688  1.00  0.00     0.042 A 
HETATM   22  C   UNL     1      32.249  50.528  43.156  1.00  0.00     0.005 A 
HETATM   23  C   UNL     1      32.763  49.599  42.264  1.00  0.00     0.017 A 
HETATM   24  C   UNL     1      32.887  49.953  40.930  1.00  0.00     0.089 A 
HETATM   25  N   UNL     1      32.500  51.170  40.511  1.00  0.00    -0.357 N 
HETATM   26  H   UNL     1      32.636  51.398  39.534  1.00  0.00     0.166 HD
ENDBRANCH  18  20
ENDBRANCH  17  18
ENDBRANCH   1  17
TORSDOF 6
ENDMDL
