MODEL 1
REMARK VINA RESULT:      -9.8      0.000      0.000
REMARK  6 active torsions:
REMARK  status: ('A' for Active; 'I' for Inactive)
REMARK    1  A    between atoms: C_5  and  C_6 
REMARK    2  A    between atoms: C_12  and  C_13 
REMARK       I    between atoms: C_13  and  N_14 
REMARK    3  A    between atoms: N_14  and  C_15 
REMARK    4  A    between atoms: C_18  and  C_19 
REMARK    5  A    between atoms: C_19  and  O_20 
REMARK    6  A    between atoms: C_25  and  C_26 
ROOT
HETATM    1  C   UNL     1      27.923  42.662  52.863  1.00  0.00     0.097 C 
HETATM    2  N   UNL     1      27.559  43.562  51.750  1.00  0.00    -0.268 NA
HETATM    3  C   UNL     1      26.807  43.003  50.753  1.00  0.00     0.118 C 
HETATM    4  N   UNL     1      26.787  41.636  50.578  1.00  0.00    -0.245 N 
HETATM    5  N   UNL     1      25.895  41.221  49.670  1.00  0.00    -0.182 NA
HETATM    6  C   UNL     1      25.443  42.361  49.145  1.00  0.00     0.159 C 
HETATM    7  C   UNL     1      25.988  43.517  49.763  1.00  0.00     0.091 C 
HETATM    8  C   UNL     1      27.581  40.685  51.338  1.00  0.00     0.221 C 
HETATM    9  C   UNL     1      28.575  41.412  52.266  1.00  0.00     0.061 C 
HETATM   10  H   UNL     1      28.360  44.130  51.460  1.00  0.00     0.130 HD
ENDROOT
BRANCH   7  11
HETATM   11  C   UNL     1      25.675  44.887  49.385  1.00  0.00     0.261 C 
HETATM   12  N   UNL     1      24.327  45.150  49.256  1.00  0.00    -0.323 N 
HETATM   13  H   UNL     1      23.719  44.340  49.304  1.00  0.00     0.169 HD
HETATM   14  O   UNL     1      26.581  45.700  49.239  1.00  0.00    -0.267 OA
BRANCH  12  15
HETATM   15  C   UNL     1      23.713  46.416  49.150  1.00  0.00     0.035 A 
HETATM   16  C   UNL     1      22.649  46.695  48.292  1.00  0.00     0.030 A 
HETATM   17  C   UNL     1      22.139  47.995  48.174  1.00  0.00     0.012 A 
HETATM   18  C   UNL     1      22.686  49.052  48.908  1.00  0.00    -0.030 A 
HETATM   19  C   UNL     1      23.734  48.759  49.795  1.00  0.00     0.012 A 
HETATM   20  C   UNL     1      24.239  47.458  49.919  1.00  0.00     0.030 A 
BRANCH  18  21
HETATM   21  C   UNL     1      22.202  50.484  48.793  1.00  0.00     0.147 C 
HETATM   22  C   UNL     1      20.698  50.680  48.621  1.00  0.00     0.044 C 
BRANCH  21  23
HETATM   23  O   UNL     1      22.602  51.212  49.954  1.00  0.00    -0.391 OA
HETATM   24  H   UNL     1      23.394  51.724  49.717  1.00  0.00     0.210 HD
ENDBRANCH  21  23
ENDBRANCH  18  21
ENDBRANCH  12  15
ENDBRANCH   7  11
BRANCH   1  25
HETATM   25  C   UNL     1      28.736  43.416  53.899  1.00  0.00    -0.040 A 
HETATM   26  C   UNL     1      28.215  44.617  54.415  1.00  0.00     0.009 A 
HETATM   27  C   UNL     1      28.867  45.306  55.440  1.00  0.00     0.007 A 
HETATM   28  C   UNL     1      30.066  44.820  55.969  1.00  0.00    -0.062 A 
HETATM   29  C   UNL     1      30.723  45.514  57.125  1.00  0.00     0.048 C 
HETATM   30  C   UNL     1      30.600  43.637  55.452  1.00  0.00     0.007 A 
HETATM   31  C   UNL     1      29.949  42.948  54.423  1.00  0.00     0.009 A 
ENDBRANCH   1  25
BRANCH   8  32
HETATM   32  C   UNL     1      28.343  39.751  50.422  1.00  0.00     0.409 C 
HETATM   33  F   UNL     1      28.894  40.404  49.373  1.00  0.00    -0.169 F 
HETATM   34  F   UNL     1      29.376  39.188  51.108  1.00  0.00    -0.169 F 
HETATM   35  F   UNL     1      27.607  38.728  49.948  1.00  0.00    -0.169 F 
ENDBRANCH   8  32
TORSDOF 6
ENDMDL
MODEL 2
REMARK VINA RESULT:      -9.8      1.604      2.252
REMARK  6 active torsions:
REMARK  status: ('A' for Active; 'I' for Inactive)
REMARK    1  A    between atoms: C_5  and  C_6 
REMARK    2  A    between atoms: C_12  and  C_13 
REMARK       I    between atoms: C_13  and  N_14 
REMARK    3  A    between atoms: N_14  and  C_15 
REMARK    4  A    between atoms: C_18  and  C_19 
REMARK    5  A    between atoms: C_19  and  O_20 
REMARK    6  A    between atoms: C_25  and  C_26 
ROOT
HETATM    1  C   UNL     1      27.017  43.845  52.898  1.00  0.00     0.097 C 
HETATM    2  N   UNL     1      26.491  44.933  52.049  1.00  0.00    -0.268 NA
HETATM    3  C   UNL     1      25.618  44.554  51.067  1.00  0.00     0.118 C 
HETATM    4  N   UNL     1      25.594  43.249  50.621  1.00  0.00    -0.245 N 
HETATM    5  N   UNL     1      24.593  42.987  49.773  1.00  0.00    -0.182 NA
HETATM    6  C   UNL     1      24.056  44.189  49.555  1.00  0.00     0.159 C 
HETATM    7  C   UNL     1      24.664  45.220  50.319  1.00  0.00     0.091 C 
HETATM    8  C   UNL     1      26.498  42.200  51.060  1.00  0.00     0.221 C 
HETATM    9  C   UNL     1      27.599  42.768  51.978  1.00  0.00     0.061 C 
HETATM   10  H   UNL     1      27.236  45.581  51.779  1.00  0.00     0.130 HD
ENDROOT
BRANCH   7  11
HETATM   11  C   UNL     1      24.282  46.624  50.272  1.00  0.00     0.261 C 
HETATM   12  N   UNL     1      23.410  46.945  49.252  1.00  0.00    -0.323 N 
HETATM   13  H   UNL     1      23.242  46.210  48.576  1.00  0.00     0.169 HD
HETATM   14  O   UNL     1      24.711  47.399  51.120  1.00  0.00    -0.267 OA
BRANCH  12  15
HETATM   15  C   UNL     1      22.679  48.142  49.103  1.00  0.00     0.035 A 
HETATM   16  C   UNL     1      23.238  49.416  49.220  1.00  0.00     0.030 A 
HETATM   17  C   UNL     1      22.440  50.564  49.143  1.00  0.00     0.012 A 
HETATM   18  C   UNL     1      21.057  50.468  48.954  1.00  0.00    -0.030 A 
HETATM   19  C   UNL     1      20.505  49.187  48.803  1.00  0.00     0.012 A 
HETATM   20  C   UNL     1      21.304  48.038  48.873  1.00  0.00     0.030 A 
BRANCH  18  21
HETATM   21  C   UNL     1      20.138  51.673  48.901  1.00  0.00     0.147 C 
HETATM   22  C   UNL     1      19.112  51.694  47.771  1.00  0.00     0.044 C 
BRANCH  21  23
HETATM   23  O   UNL     1      19.425  51.779  50.134  1.00  0.00    -0.391 OA
HETATM   24  H   UNL     1      19.546  52.687  50.461  1.00  0.00     0.210 HD
ENDBRANCH  21  23
ENDBRANCH  18  21
ENDBRANCH  12  15
ENDBRANCH   7  11
BRANCH   1  25
HETATM   25  C   UNL     1      27.953  44.410  53.950  1.00  0.00    -0.040 A 
HETATM   26  C   UNL     1      27.606  45.621  54.575  1.00  0.00     0.009 A 
HETATM   27  C   UNL     1      28.373  46.142  55.619  1.00  0.00     0.007 A 
HETATM   28  C   UNL     1      29.519  45.473  56.058  1.00  0.00    -0.062 A 
HETATM   29  C   UNL     1      30.298  45.988  57.232  1.00  0.00     0.048 C 
HETATM   30  C   UNL     1      29.882  44.278  55.432  1.00  0.00     0.007 A 
HETATM   31  C   UNL     1      29.115  43.756  54.385  1.00  0.00     0.009 A 
ENDBRANCH   1  25
BRANCH   8  32
HETATM   32  C   UNL     1      27.141  41.501  49.881  1.00  0.00     0.409 C 
HETATM   33  F   UNL     1      28.366  41.010  50.187  1.00  0.00    -0.169 F 
HETATM   34  F   UNL     1      26.380  40.431  49.519  1.00  0.00    -0.169 F 
HETATM   35  F   UNL     1      27.253  42.271  48.783  1.00  0.00    -0.169 F 
ENDBRANCH   8  32
TORSDOF 6
ENDMDL
MODEL 3
REMARK VINA RESULT:      -9.6      3.292      9.072
REMARK  6 active torsions:
REMARK  status: ('A' for Active; 'I' for Inactive)
REMARK    1  A    between atoms: C_5  and  C_6 
REMARK    2  A    between atoms: C_12  and  C_13 
REMARK       I    between atoms: C_13  and  N_14 
REMARK    3  A    between atoms: N_14  and  C_15 
REMARK    4  A    between atoms: C_18  and  C_19 
REMARK    5  A    between atoms: C_19  and  O_20 
REMARK    6  A    between atoms: C_25  and  C_26 
ROOT
HETATM    1  C   UNL     1      22.515  47.517  48.486  1.00  0.00     0.097 C 
HETATM    2  N   UNL     1      23.237  47.173  49.728  1.00  0.00    -0.268 NA
HETATM    3  C   UNL     1      24.053  46.077  49.660  1.00  0.00     0.118 C 
HETATM    4  N   UNL     1      23.864  45.127  48.678  1.00  0.00    -0.245 N 
HETATM    5  N   UNL     1      24.824  44.195  48.637  1.00  0.00    -0.182 NA
HETATM    6  C   UNL     1      25.561  44.470  49.715  1.00  0.00     0.159 C 
HETATM    7  C   UNL     1      25.122  45.626  50.413  1.00  0.00     0.091 C 
HETATM    8  C   UNL     1      22.786  45.136  47.705  1.00  0.00     0.221 C 
HETATM    9  C   UNL     1      21.778  46.263  48.006  1.00  0.00     0.061 C 
HETATM   10  H   UNL     1      22.618  47.237  50.542  1.00  0.00     0.130 HD
ENDROOT
BRANCH   7  11
HETATM   11  C   UNL     1      25.738  46.149  51.623  1.00  0.00     0.261 C 
HETATM   12  N   UNL     1      26.243  45.184  52.471  1.00  0.00    -0.323 N 
HETATM   13  H   UNL     1      26.011  44.228  52.228  1.00  0.00     0.169 HD
HETATM   14  O   UNL     1      25.799  47.361  51.800  1.00  0.00    -0.267 OA
BRANCH  12  15
HETATM   15  C   UNL     1      27.101  45.383  53.573  1.00  0.00     0.035 A 
HETATM   16  C   UNL     1      27.064  46.511  54.394  1.00  0.00     0.030 A 
HETATM   17  C   UNL     1      28.000  46.686  55.422  1.00  0.00     0.012 A 
HETATM   18  C   UNL     1      29.002  45.739  55.651  1.00  0.00    -0.030 A 
HETATM   19  C   UNL     1      29.013  44.589  54.845  1.00  0.00     0.012 A 
HETATM   20  C   UNL     1      28.074  44.411  53.821  1.00  0.00     0.030 A 
BRANCH  18  21
HETATM   21  C   UNL     1      30.064  45.892  56.722  1.00  0.00     0.147 C 
HETATM   22  C   UNL     1      29.568  45.954  58.165  1.00  0.00     0.044 C 
BRANCH  21  23
HETATM   23  O   UNL     1      30.989  44.808  56.631  1.00  0.00    -0.391 OA
HETATM   24  H   UNL     1      30.470  43.986  56.595  1.00  0.00     0.210 HD
ENDBRANCH  21  23
ENDBRANCH  18  21
ENDBRANCH  12  15
ENDBRANCH   7  11
BRANCH   1  25
HETATM   25  C   UNL     1      21.668  48.756  48.701  1.00  0.00    -0.040 A 
HETATM   26  C   UNL     1      22.160  49.992  48.245  1.00  0.00     0.009 A 
HETATM   27  C   UNL     1      21.387  51.153  48.325  1.00  0.00     0.007 A 
HETATM   28  C   UNL     1      20.104  51.112  48.877  1.00  0.00    -0.062 A 
HETATM   29  C   UNL     1      19.241  52.339  48.888  1.00  0.00     0.048 C 
HETATM   30  C   UNL     1      19.611  49.892  49.348  1.00  0.00     0.007 A 
HETATM   31  C   UNL     1      20.387  48.730  49.271  1.00  0.00     0.009 A 
ENDBRANCH   1  25
BRANCH   8  32
HETATM   32  C   UNL     1      22.057  43.808  47.681  1.00  0.00     0.409 C 
HETATM   33  F   UNL     1      20.763  43.945  47.308  1.00  0.00    -0.169 F 
HETATM   34  F   UNL     1      22.636  42.991  46.758  1.00  0.00    -0.169 F 
HETATM   35  F   UNL     1      22.096  43.142  48.850  1.00  0.00    -0.169 F 
ENDBRANCH   8  32
TORSDOF 6
ENDMDL
MODEL 4
REMARK VINA RESULT:      -9.3      1.191      1.525
REMARK  6 active torsions:
REMARK  status: ('A' for Active; 'I' for Inactive)
REMARK    1  A    between atoms: C_5  and  C_6 
REMARK    2  A    between atoms: C_12  and  C_13 
REMARK       I    between atoms: C_13  and  N_14 
REMARK    3  A    between atoms: N_14  and  C_15 
REMARK    4  A    between atoms: C_18  and  C_19 
REMARK    5  A    between atoms: C_19  and  O_20 
REMARK    6  A    between atoms: C_25  and  C_26 
ROOT
HETATM    1  C   UNL     1      27.588  42.658  52.507  1.00  0.00     0.097 C 
HETATM    2  N   UNL     1      26.919  43.753  51.775  1.00  0.00    -0.268 NA
HETATM    3  C   UNL     1      26.007  43.370  50.830  1.00  0.00     0.118 C 
HETATM    4  N   UNL     1      26.051  42.100  50.295  1.00  0.00    -0.245 N 
HETATM    5  N   UNL     1      25.013  41.814  49.500  1.00  0.00    -0.182 NA
HETATM    6  C   UNL     1      24.372  42.980  49.405  1.00  0.00     0.159 C 
HETATM    7  C   UNL     1      24.953  44.004  50.198  1.00  0.00     0.091 C 
HETATM    8  C   UNL     1      27.062  41.101  50.595  1.00  0.00     0.221 C 
HETATM    9  C   UNL     1      28.181  41.694  51.475  1.00  0.00     0.061 C 
HETATM   10  H   UNL     1      27.591  44.476  51.503  1.00  0.00     0.130 HD
ENDROOT
BRANCH   7  11
HETATM   11  C   UNL     1      24.463  45.372  50.278  1.00  0.00     0.261 C 
HETATM   12  N   UNL     1      23.834  45.822  49.134  1.00  0.00    -0.323 N 
HETATM   13  H   UNL     1      23.903  45.208  48.330  1.00  0.00     0.169 HD
HETATM   14  O   UNL     1      24.603  46.008  51.316  1.00  0.00    -0.267 OA
BRANCH  12  15
HETATM   15  C   UNL     1      23.050  46.986  48.996  1.00  0.00     0.035 A 
HETATM   16  C   UNL     1      23.519  48.275  49.254  1.00  0.00     0.030 A 
HETATM   17  C   UNL     1      22.664  49.382  49.177  1.00  0.00     0.012 A 
HETATM   18  C   UNL     1      21.314  49.228  48.847  1.00  0.00    -0.030 A 
HETATM   19  C   UNL     1      20.856  47.933  48.555  1.00  0.00     0.012 A 
HETATM   20  C   UNL     1      21.712  46.827  48.625  1.00  0.00     0.030 A 
BRANCH  18  21
HETATM   21  C   UNL     1      20.334  50.383  48.786  1.00  0.00     0.147 C 
HETATM   22  C   UNL     1      19.478  50.613  50.028  1.00  0.00     0.044 C 
BRANCH  21  23
HETATM   23  O   UNL     1      21.045  51.593  48.521  1.00  0.00    -0.391 OA
HETATM   24  H   UNL     1      20.791  52.234  49.207  1.00  0.00     0.210 HD
ENDBRANCH  21  23
ENDBRANCH  18  21
ENDBRANCH  12  15
ENDBRANCH   7  11
BRANCH   1  25
HETATM   25  C   UNL     1      28.552  43.226  53.531  1.00  0.00    -0.040 A 
HETATM   26  C   UNL     1      28.176  44.385  54.234  1.00  0.00     0.009 A 
HETATM   27  C   UNL     1      28.975  44.900  55.257  1.00  0.00     0.007 A 
HETATM   28  C   UNL     1      30.180  44.279  55.596  1.00  0.00    -0.062 A 
HETATM   29  C   UNL     1      30.997  44.783  56.748  1.00  0.00     0.048 C 
HETATM   30  C   UNL     1      30.571  43.137  54.892  1.00  0.00     0.007 A 
HETATM   31  C   UNL     1      29.772  42.622  53.865  1.00  0.00     0.009 A 
ENDBRANCH   1  25
BRANCH   8  32
HETATM   32  C   UNL     1      27.669  40.535  49.329  1.00  0.00     0.409 C 
HETATM   33  F   UNL     1      27.881  41.492  48.395  1.00  0.00    -0.169 F 
HETATM   34  F   UNL     1      28.889  40.000  49.612  1.00  0.00    -0.169 F 
HETATM   35  F   UNL     1      26.946  39.547  48.770  1.00  0.00    -0.169 F 
ENDBRANCH   8  32
TORSDOF 6
ENDMDL
MODEL 5
REMARK VINA RESULT:      -9.2      2.880      8.598
REMARK  6 active torsions:
REMARK  status: ('A' for Active; 'I' for Inactive)
REMARK    1  A    between atoms: C_5  and  C_6 
REMARK    2  A    between atoms: C_12  and  C_13 
REMARK       I    between atoms: C_13  and  N_14 
REMARK    3  A    between atoms: N_14  and  C_15 
REMARK    4  A    between atoms: C_18  and  C_19 
REMARK    5  A    between atoms: C_19  and  O_20 
REMARK    6  A    between atoms: C_25  and  C_26 
ROOT
HETATM    1  C   UNL     1      23.792  46.058  48.769  1.00  0.00     0.097 C 
HETATM    2  N   UNL     1      24.458  45.698  50.038  1.00  0.00    -0.268 NA
HETATM    3  C   UNL     1      25.195  44.546  50.019  1.00  0.00     0.118 C 
HETATM    4  N   UNL     1      24.961  43.585  49.057  1.00  0.00    -0.245 N 
HETATM    5  N   UNL     1      25.852  42.586  49.065  1.00  0.00    -0.182 NA
HETATM    6  C   UNL     1      26.582  42.838  50.153  1.00  0.00     0.159 C 
HETATM    7  C   UNL     1      26.210  44.041  50.810  1.00  0.00     0.091 C 
HETATM    8  C   UNL     1      23.909  43.643  48.057  1.00  0.00     0.221 C 
HETATM    9  C   UNL     1      22.978  44.847  48.303  1.00  0.00     0.061 C 
HETATM   10  H   UNL     1      23.827  45.829  50.833  1.00  0.00     0.130 HD
ENDROOT
BRANCH   7  11
HETATM   11  C   UNL     1      26.834  44.552  52.021  1.00  0.00     0.261 C 
HETATM   12  N   UNL     1      27.652  43.649  52.668  1.00  0.00    -0.323 N 
HETATM   13  H   UNL     1      27.622  42.701  52.311  1.00  0.00     0.169 HD
HETATM   14  O   UNL     1      26.632  45.711  52.367  1.00  0.00    -0.267 OA
BRANCH  12  15
HETATM   15  C   UNL     1      28.571  43.922  53.703  1.00  0.00     0.035 A 
HETATM   16  C   UNL     1      29.746  43.198  53.912  1.00  0.00     0.030 A 
HETATM   17  C   UNL     1      30.574  43.468  55.009  1.00  0.00     0.012 A 
HETATM   18  C   UNL     1      30.244  44.466  55.932  1.00  0.00    -0.030 A 
HETATM   19  C   UNL     1      29.079  45.214  55.698  1.00  0.00     0.012 A 
HETATM   20  C   UNL     1      28.254  44.949  54.597  1.00  0.00     0.030 A 
BRANCH  18  21
HETATM   21  C   UNL     1      31.081  44.777  57.157  1.00  0.00     0.147 C 
HETATM   22  C   UNL     1      30.378  45.525  58.287  1.00  0.00     0.044 C 
BRANCH  21  23
HETATM   23  O   UNL     1      31.596  43.561  57.700  1.00  0.00    -0.391 OA
HETATM   24  H   UNL     1      32.380  43.319  57.177  1.00  0.00     0.210 HD
ENDBRANCH  21  23
ENDBRANCH  18  21
ENDBRANCH  12  15
ENDBRANCH   7  11
BRANCH   1  25
HETATM   25  C   UNL     1      23.030  47.360  48.931  1.00  0.00    -0.040 A 
HETATM   26  C   UNL     1      23.761  48.538  49.168  1.00  0.00     0.009 A 
HETATM   27  C   UNL     1      23.128  49.782  49.228  1.00  0.00     0.007 A 
HETATM   28  C   UNL     1      21.743  49.880  49.067  1.00  0.00    -0.062 A 
HETATM   29  C   UNL     1      21.073  51.222  49.049  1.00  0.00     0.048 C 
HETATM   30  C   UNL     1      21.006  48.713  48.848  1.00  0.00     0.007 A 
HETATM   31  C   UNL     1      21.640  47.467  48.789  1.00  0.00     0.009 A 
ENDBRANCH   1  25
BRANCH   8  32
HETATM   32  C   UNL     1      23.088  42.371  48.049  1.00  0.00     0.409 C 
HETATM   33  F   UNL     1      23.772  41.327  47.524  1.00  0.00    -0.169 F 
HETATM   34  F   UNL     1      22.781  42.022  49.329  1.00  0.00    -0.169 F 
HETATM   35  F   UNL     1      21.915  42.481  47.398  1.00  0.00    -0.169 F 
ENDBRANCH   8  32
TORSDOF 6
ENDMDL
MODEL 6
REMARK VINA RESULT:      -9.1      3.815      8.764
REMARK  6 active torsions:
REMARK  status: ('A' for Active; 'I' for Inactive)
REMARK    1  A    between atoms: C_5  and  C_6 
REMARK    2  A    between atoms: C_12  and  C_13 
REMARK       I    between atoms: C_13  and  N_14 
REMARK    3  A    between atoms: N_14  and  C_15 
REMARK    4  A    between atoms: C_18  and  C_19 
REMARK    5  A    between atoms: C_19  and  O_20 
REMARK    6  A    between atoms: C_25  and  C_26 
ROOT
HETATM    1  C   UNL     1      25.982  46.151  51.761  1.00  0.00     0.097 C 
HETATM    2  N   UNL     1      26.727  45.019  51.171  1.00  0.00    -0.268 NA
HETATM    3  C   UNL     1      27.094  44.028  52.039  1.00  0.00     0.118 C 
HETATM    4  N   UNL     1      27.168  44.281  53.393  1.00  0.00    -0.245 N 
HETATM    5  N   UNL     1      27.389  43.188  54.133  1.00  0.00    -0.182 NA
HETATM    6  C   UNL     1      27.610  42.240  53.220  1.00  0.00     0.159 C 
HETATM    7  C   UNL     1      27.462  42.704  51.886  1.00  0.00     0.091 C 
HETATM    8  C   UNL     1      26.957  45.576  54.014  1.00  0.00     0.221 C 
HETATM    9  C   UNL     1      26.792  46.680  52.949  1.00  0.00     0.061 C 
HETATM   10  H   UNL     1      27.445  45.352  50.520  1.00  0.00     0.130 HD
ENDROOT
BRANCH   7  11
HETATM   11  C   UNL     1      27.651  41.886  50.697  1.00  0.00     0.261 C 
HETATM   12  N   UNL     1      27.942  40.562  50.954  1.00  0.00    -0.323 N 
HETATM   13  H   UNL     1      28.124  40.337  51.926  1.00  0.00     0.169 HD
HETATM   14  O   UNL     1      27.519  42.389  49.586  1.00  0.00    -0.267 OA
BRANCH  12  15
HETATM   15  C   UNL     1      27.930  39.494  50.033  1.00  0.00     0.035 A 
HETATM   16  C   UNL     1      29.082  38.905  49.510  1.00  0.00     0.030 A 
HETATM   17  C   UNL     1      29.001  37.902  48.535  1.00  0.00     0.012 A 
HETATM   18  C   UNL     1      27.763  37.467  48.052  1.00  0.00    -0.030 A 
HETATM   19  C   UNL     1      26.606  38.038  48.607  1.00  0.00     0.012 A 
HETATM   20  C   UNL     1      26.687  39.036  49.587  1.00  0.00     0.030 A 
BRANCH  18  21
HETATM   21  C   UNL     1      27.613  36.414  46.972  1.00  0.00     0.147 C 
HETATM   22  C   UNL     1      26.558  36.683  45.902  1.00  0.00     0.044 C 
BRANCH  21  23
HETATM   23  O   UNL     1      28.865  36.236  46.308  1.00  0.00    -0.391 OA
HETATM   24  H   UNL     1      29.566  36.407  46.960  1.00  0.00     0.210 HD
ENDBRANCH  21  23
ENDBRANCH  18  21
ENDBRANCH  12  15
ENDBRANCH   7  11
BRANCH   1  25
HETATM   25  C   UNL     1      25.626  47.159  50.686  1.00  0.00    -0.040 A 
HETATM   26  C   UNL     1      24.271  47.335  50.354  1.00  0.00     0.009 A 
HETATM   27  C   UNL     1      23.870  48.316  49.443  1.00  0.00     0.007 A 
HETATM   28  C   UNL     1      24.816  49.140  48.829  1.00  0.00    -0.062 A 
HETATM   29  C   UNL     1      24.382  50.247  47.915  1.00  0.00     0.048 C 
HETATM   30  C   UNL     1      26.167  48.963  49.139  1.00  0.00     0.007 A 
HETATM   31  C   UNL     1      26.569  47.979  50.049  1.00  0.00     0.009 A 
ENDBRANCH   1  25
BRANCH   8  32
HETATM   32  C   UNL     1      28.103  45.938  54.934  1.00  0.00     0.409 C 
HETATM   33  F   UNL     1      27.882  45.533  56.207  1.00  0.00    -0.169 F 
HETATM   34  F   UNL     1      29.233  45.301  54.521  1.00  0.00    -0.169 F 
HETATM   35  F   UNL     1      28.398  47.252  54.951  1.00  0.00    -0.169 F 
ENDBRANCH   8  32
TORSDOF 6
ENDMDL
MODEL 7
REMARK VINA RESULT:      -8.7      7.012      9.951
REMARK  6 active torsions:
REMARK  status: ('A' for Active; 'I' for Inactive)
REMARK    1  A    between atoms: C_5  and  C_6 
REMARK    2  A    between atoms: C_12  and  C_13 
REMARK       I    between atoms: C_13  and  N_14 
REMARK    3  A    between atoms: N_14  and  C_15 
REMARK    4  A    between atoms: C_18  and  C_19 
REMARK    5  A    between atoms: C_19  and  O_20 
REMARK    6  A    between atoms: C_25  and  C_26 
ROOT
HETATM    1  C   UNL     1      22.124  49.302  48.323  1.00  0.00     0.097 C 
HETATM    2  N   UNL     1      21.589  47.939  48.516  1.00  0.00    -0.268 NA
HETATM    3  C   UNL     1      20.244  47.791  48.311  1.00  0.00     0.118 C 
HETATM    4  N   UNL     1      19.406  48.885  48.375  1.00  0.00    -0.245 N 
HETATM    5  N   UNL     1      18.147  48.621  48.005  1.00  0.00    -0.182 NA
HETATM    6  C   UNL     1      18.147  47.296  47.848  1.00  0.00     0.159 C 
HETATM    7  C   UNL     1      19.425  46.710  48.044  1.00  0.00     0.091 C 
HETATM    8  C   UNL     1      19.817  50.233  48.727  1.00  0.00     0.221 C 
HETATM    9  C   UNL     1      21.291  50.262  49.178  1.00  0.00     0.061 C 
HETATM   10  H   UNL     1      21.977  47.508  49.359  1.00  0.00     0.130 HD
ENDROOT
BRANCH   7  11
HETATM   11  C   UNL     1      19.711  45.286  47.941  1.00  0.00     0.261 C 
HETATM   12  N   UNL     1      20.943  44.988  47.397  1.00  0.00    -0.323 N 
HETATM   13  H   UNL     1      21.449  45.776  47.008  1.00  0.00     0.169 HD
HETATM   14  O   UNL     1      18.892  44.471  48.352  1.00  0.00    -0.267 OA
BRANCH  12  15
HETATM   15  C   UNL     1      21.595  43.737  47.400  1.00  0.00     0.035 A 
HETATM   16  C   UNL     1      22.492  43.329  48.387  1.00  0.00     0.030 A 
HETATM   17  C   UNL     1      23.169  42.107  48.287  1.00  0.00     0.012 A 
HETATM   18  C   UNL     1      22.971  41.262  47.190  1.00  0.00    -0.030 A 
HETATM   19  C   UNL     1      22.041  41.662  46.217  1.00  0.00     0.012 A 
HETATM   20  C   UNL     1      21.359  42.881  46.320  1.00  0.00     0.030 A 
BRANCH  18  21
HETATM   21  C   UNL     1      23.702  39.947  47.009  1.00  0.00     0.147 C 
HETATM   22  C   UNL     1      24.361  39.718  45.651  1.00  0.00     0.044 C 
BRANCH  21  23
HETATM   23  O   UNL     1      24.717  39.828  48.006  1.00  0.00    -0.391 OA
HETATM   24  H   UNL     1      25.518  39.495  47.566  1.00  0.00     0.210 HD
ENDBRANCH  21  23
ENDBRANCH  18  21
ENDBRANCH  12  15
ENDBRANCH   7  11
BRANCH   1  25
HETATM   25  C   UNL     1      23.622  49.314  48.563  1.00  0.00    -0.040 A 
HETATM   26  C   UNL     1      24.171  48.340  49.416  1.00  0.00     0.009 A 
HETATM   27  C   UNL     1      25.552  48.235  49.600  1.00  0.00     0.007 A 
HETATM   28  C   UNL     1      26.421  49.113  48.947  1.00  0.00    -0.062 A 
HETATM   29  C   UNL     1      27.907  48.950  49.079  1.00  0.00     0.048 C 
HETATM   30  C   UNL     1      25.885  50.095  48.110  1.00  0.00     0.007 A 
HETATM   31  C   UNL     1      24.502  50.201  47.927  1.00  0.00     0.009 A 
ENDBRANCH   1  25
BRANCH   8  32
HETATM   32  C   UNL     1      18.946  50.803  49.827  1.00  0.00     0.409 C 
HETATM   33  F   UNL     1      18.799  49.938  50.858  1.00  0.00    -0.169 F 
HETATM   34  F   UNL     1      19.539  51.915  50.342  1.00  0.00    -0.169 F 
HETATM   35  F   UNL     1      17.723  51.186  49.414  1.00  0.00    -0.169 F 
ENDBRANCH   8  32
TORSDOF 6
ENDMDL
MODEL 8
REMARK VINA RESULT:      -8.6      6.706     12.830
REMARK  6 active torsions:
REMARK  status: ('A' for Active; 'I' for Inactive)
REMARK    1  A    between atoms: C_5  and  C_6 
REMARK    2  A    between atoms: C_12  and  C_13 
REMARK       I    between atoms: C_13  and  N_14 
REMARK    3  A    between atoms: N_14  and  C_15 
REMARK    4  A    between atoms: C_18  and  C_19 
REMARK    5  A    between atoms: C_19  and  O_20 
REMARK    6  A    between atoms: C_25  and  C_26 
ROOT
HETATM    1  C   UNL     1      17.940  50.598  46.218  1.00  0.00     0.097 C 
HETATM    2  N   UNL     1      19.250  50.102  46.688  1.00  0.00    -0.268 NA
HETATM    3  C   UNL     1      19.310  49.726  48.002  1.00  0.00     0.118 C 
HETATM    4  N   UNL     1      18.380  50.197  48.904  1.00  0.00    -0.245 N 
HETATM    5  N   UNL     1      18.467  49.630  50.114  1.00  0.00    -0.182 NA
HETATM    6  C   UNL     1      19.574  48.892  50.025  1.00  0.00     0.159 C 
HETATM    7  C   UNL     1      20.165  48.922  48.734  1.00  0.00     0.091 C 
HETATM    8  C   UNL     1      17.333  51.157  48.600  1.00  0.00     0.221 C 
HETATM    9  C   UNL     1      17.489  51.710  47.169  1.00  0.00     0.061 C 
HETATM   10  H   UNL     1      20.012  50.692  46.342  1.00  0.00     0.130 HD
ENDROOT
BRANCH   7  11
HETATM   11  C   UNL     1      21.381  48.215  48.360  1.00  0.00     0.261 C 
HETATM   12  N   UNL     1      22.279  48.036  49.393  1.00  0.00    -0.323 N 
HETATM   13  H   UNL     1      22.058  48.529  50.251  1.00  0.00     0.169 HD
HETATM   14  O   UNL     1      21.520  47.810  47.211  1.00  0.00    -0.267 OA
BRANCH  12  15
HETATM   15  C   UNL     1      23.406  47.189  49.403  1.00  0.00     0.035 A 
HETATM   16  C   UNL     1      23.352  45.818  49.152  1.00  0.00     0.030 A 
HETATM   17  C   UNL     1      24.497  45.018  49.260  1.00  0.00     0.012 A 
HETATM   18  C   UNL     1      25.727  45.569  49.629  1.00  0.00    -0.030 A 
HETATM   19  C   UNL     1      25.784  46.955  49.847  1.00  0.00     0.012 A 
HETATM   20  C   UNL     1      24.641  47.756  49.732  1.00  0.00     0.030 A 
BRANCH  18  21
HETATM   21  C   UNL     1      26.991  44.749  49.798  1.00  0.00     0.147 C 
HETATM   22  C   UNL     1      27.373  44.379  51.229  1.00  0.00     0.044 C 
BRANCH  21  23
HETATM   23  O   UNL     1      26.870  43.535  49.057  1.00  0.00    -0.391 OA
HETATM   24  H   UNL     1      27.335  43.663  48.213  1.00  0.00     0.210 HD
ENDBRANCH  21  23
ENDBRANCH  18  21
ENDBRANCH  12  15
ENDBRANCH   7  11
BRANCH   1  25
HETATM   25  C   UNL     1      18.015  50.958  44.747  1.00  0.00    -0.040 A 
HETATM   26  C   UNL     1      17.179  51.980  44.264  1.00  0.00     0.009 A 
HETATM   27  C   UNL     1      17.270  52.425  42.943  1.00  0.00     0.007 A 
HETATM   28  C   UNL     1      18.191  51.849  42.064  1.00  0.00    -0.062 A 
HETATM   29  C   UNL     1      18.346  52.381  40.670  1.00  0.00     0.048 C 
HETATM   30  C   UNL     1      19.015  50.821  42.529  1.00  0.00     0.007 A 
HETATM   31  C   UNL     1      18.922  50.374  43.852  1.00  0.00     0.009 A 
ENDBRANCH   1  25
BRANCH   8  32
HETATM   32  C   UNL     1      17.340  52.308  49.584  1.00  0.00     0.409 C 
HETATM   33  F   UNL     1      17.129  53.498  48.976  1.00  0.00    -0.169 F 
HETATM   34  F   UNL     1      16.324  52.148  50.475  1.00  0.00    -0.169 F 
HETATM   35  F   UNL     1      18.468  52.396  50.314  1.00  0.00    -0.169 F 
ENDBRANCH   8  32
TORSDOF 6
ENDMDL
MODEL 9
REMARK VINA RESULT:      -8.6      1.816      2.527
REMARK  6 active torsions:
REMARK  status: ('A' for Active; 'I' for Inactive)
REMARK    1  A    between atoms: C_5  and  C_6 
REMARK    2  A    between atoms: C_12  and  C_13 
REMARK       I    between atoms: C_13  and  N_14 
REMARK    3  A    between atoms: N_14  and  C_15 
REMARK    4  A    between atoms: C_18  and  C_19 
REMARK    5  A    between atoms: C_19  and  O_20 
REMARK    6  A    between atoms: C_25  and  C_26 
ROOT
HETATM    1  C   UNL     1      26.880  41.379  50.826  1.00  0.00     0.097 C 
HETATM    2  N   UNL     1      25.972  42.388  50.242  1.00  0.00    -0.268 NA
HETATM    3  C   UNL     1      25.100  41.929  49.293  1.00  0.00     0.118 C 
HETATM    4  N   UNL     1      25.357  40.752  48.623  1.00  0.00    -0.245 N 
HETATM    5  N   UNL     1      24.351  40.347  47.839  1.00  0.00    -0.182 NA
HETATM    6  C   UNL     1      23.493  41.367  47.894  1.00  0.00     0.159 C 
HETATM    7  C   UNL     1      23.910  42.402  48.772  1.00  0.00     0.091 C 
HETATM    8  C   UNL     1      26.557  39.947  48.777  1.00  0.00     0.221 C 
HETATM    9  C   UNL     1      27.589  40.659  49.675  1.00  0.00     0.061 C 
HETATM   10  H   UNL     1      26.476  43.253  50.025  1.00  0.00     0.130 HD
ENDROOT
BRANCH   7  11
HETATM   11  C   UNL     1      23.171  43.631  49.017  1.00  0.00     0.261 C 
HETATM   12  N   UNL     1      23.960  44.755  49.157  1.00  0.00    -0.323 N 
HETATM   13  H   UNL     1      24.957  44.582  49.210  1.00  0.00     0.169 HD
HETATM   14  O   UNL     1      21.945  43.607  49.053  1.00  0.00    -0.267 OA
BRANCH  12  15
HETATM   15  C   UNL     1      23.535  46.100  49.151  1.00  0.00     0.035 A 
HETATM   16  C   UNL     1      22.484  46.581  48.369  1.00  0.00     0.030 A 
HETATM   17  C   UNL     1      22.166  47.945  48.347  1.00  0.00     0.012 A 
HETATM   18  C   UNL     1      22.897  48.866  49.104  1.00  0.00    -0.030 A 
HETATM   19  C   UNL     1      23.931  48.373  49.915  1.00  0.00     0.012 A 
HETATM   20  C   UNL     1      24.245  47.008  49.943  1.00  0.00     0.030 A 
BRANCH  18  21
HETATM   21  C   UNL     1      22.624  50.357  49.091  1.00  0.00     0.147 C 
HETATM   22  C   UNL     1      21.475  50.830  48.205  1.00  0.00     0.044 C 
BRANCH  21  23
HETATM   23  O   UNL     1      22.353  50.800  50.421  1.00  0.00    -0.391 OA
HETATM   24  H   UNL     1      22.834  51.634  50.553  1.00  0.00     0.210 HD
ENDBRANCH  21  23
ENDBRANCH  18  21
ENDBRANCH  12  15
ENDBRANCH   7  11
BRANCH   1  25
HETATM   25  C   UNL     1      27.772  42.022  51.871  1.00  0.00    -0.040 A 
HETATM   26  C   UNL     1      27.422  43.294  52.360  1.00  0.00     0.009 A 
HETATM   27  C   UNL     1      28.147  43.896  53.391  1.00  0.00     0.007 A 
HETATM   28  C   UNL     1      29.251  43.249  53.952  1.00  0.00    -0.062 A 
HETATM   29  C   UNL     1      29.979  43.857  55.114  1.00  0.00     0.048 C 
HETATM   30  C   UNL     1      29.617  41.993  53.462  1.00  0.00     0.007 A 
HETATM   31  C   UNL     1      28.893  41.390  52.427  1.00  0.00     0.009 A 
ENDBRANCH   1  25
BRANCH   8  32
HETATM   32  C   UNL     1      27.190  39.641  47.436  1.00  0.00     0.409 C 
HETATM   33  F   UNL     1      28.511  39.370  47.547  1.00  0.00    -0.169 F 
HETATM   34  F   UNL     1      26.613  38.526  46.908  1.00  0.00    -0.169 F 
HETATM   35  F   UNL     1      27.030  40.615  46.521  1.00  0.00    -0.169 F 
ENDBRANCH   8  32
TORSDOF 6
ENDMDL
MODEL 10
REMARK VINA RESULT:      -8.6      3.984      7.389
REMARK  6 active torsions:
REMARK  status: ('A' for Active; 'I' for Inactive)
REMARK    1  A    between atoms: C_5  and  C_6 
REMARK    2  A    between atoms: C_12  and  C_13 
REMARK       I    between atoms: C_13  and  N_14 
REMARK    3  A    between atoms: N_14  and  C_15 
REMARK    4  A    between atoms: C_18  and  C_19 
REMARK    5  A    between atoms: C_19  and  O_20 
REMARK    6  A    between atoms: C_25  and  C_26 
ROOT
HETATM    1  C   UNL     1      23.749  43.762  48.422  1.00  0.00     0.097 C 
HETATM    2  N   UNL     1      22.921  44.972  48.606  1.00  0.00    -0.268 NA
HETATM    3  C   UNL     1      23.559  46.056  49.142  1.00  0.00     0.118 C 
HETATM    4  N   UNL     1      24.723  45.893  49.863  1.00  0.00    -0.245 N 
HETATM    5  N   UNL     1      25.317  47.045  50.196  1.00  0.00    -0.182 NA
HETATM    6  C   UNL     1      24.433  47.966  49.810  1.00  0.00     0.159 C 
HETATM    7  C   UNL     1      23.298  47.414  49.160  1.00  0.00     0.091 C 
HETATM    8  C   UNL     1      25.332  44.614  50.188  1.00  0.00     0.221 C 
HETATM    9  C   UNL     1      24.424  43.444  49.759  1.00  0.00     0.061 C 
HETATM   10  H   UNL     1      22.006  44.733  48.999  1.00  0.00     0.130 HD
ENDROOT
BRANCH   7  11
HETATM   11  C   UNL     1      22.178  48.187  48.644  1.00  0.00     0.261 C 
HETATM   12  N   UNL     1      21.379  48.754  49.616  1.00  0.00    -0.323 N 
HETATM   13  H   UNL     1      21.576  48.462  50.566  1.00  0.00     0.169 HD
HETATM   14  O   UNL     1      22.031  48.311  47.433  1.00  0.00    -0.267 OA
BRANCH  12  15
HETATM   15  C   UNL     1      20.390  49.743  49.434  1.00  0.00     0.035 A 
HETATM   16  C   UNL     1      20.639  51.004  48.890  1.00  0.00     0.030 A 
HETATM   17  C   UNL     1      19.628  51.970  48.813  1.00  0.00     0.012 A 
HETATM   18  C   UNL     1      18.340  51.703  49.287  1.00  0.00    -0.030 A 
HETATM   19  C   UNL     1      18.085  50.422  49.802  1.00  0.00     0.012 A 
HETATM   20  C   UNL     1      19.094  49.453  49.872  1.00  0.00     0.030 A 
BRANCH  18  21
HETATM   21  C   UNL     1      17.217  52.720  49.265  1.00  0.00     0.147 C 
HETATM   22  C   UNL     1      16.050  52.424  48.326  1.00  0.00     0.044 C 
BRANCH  21  23
HETATM   23  O   UNL     1      16.684  52.866  50.582  1.00  0.00    -0.391 OA
HETATM   24  H   UNL     1      16.223  52.039  50.801  1.00  0.00     0.210 HD
ENDBRANCH  21  23
ENDBRANCH  18  21
ENDBRANCH  12  15
ENDBRANCH   7  11
BRANCH   1  25
HETATM   25  C   UNL     1      22.921  42.651  47.804  1.00  0.00    -0.040 A 
HETATM   26  C   UNL     1      21.973  42.989  46.822  1.00  0.00     0.009 A 
HETATM   27  C   UNL     1      21.249  42.004  46.146  1.00  0.00     0.007 A 
HETATM   28  C   UNL     1      21.444  40.653  46.444  1.00  0.00    -0.062 A 
HETATM   29  C   UNL     1      20.729  39.591  45.662  1.00  0.00     0.048 C 
HETATM   30  C   UNL     1      22.372  40.307  47.430  1.00  0.00     0.007 A 
HETATM   31  C   UNL     1      23.095  41.294  48.109  1.00  0.00     0.009 A 
ENDBRANCH   1  25
BRANCH   8  32
HETATM   32  C   UNL     1      25.621  44.505  51.671  1.00  0.00     0.409 C 
HETATM   33  F   UNL     1      25.689  43.217  52.082  1.00  0.00    -0.169 F 
HETATM   34  F   UNL     1      26.837  45.056  51.937  1.00  0.00    -0.169 F 
HETATM   35  F   UNL     1      24.736  45.155  52.450  1.00  0.00    -0.169 F 
ENDBRANCH   8  32
TORSDOF 6
ENDMDL
