MODEL 1
REMARK VINA RESULT:      -8.0      0.000      0.000
REMARK  6 active torsions:
REMARK  status: ('A' for Active; 'I' for Inactive)
REMARK    1  A    between atoms: C_2  and  N_3 
REMARK    2  A    between atoms: C_2  and  C_11 
REMARK       I    between atoms: N_3  and  C_4 
REMARK    3  A    between atoms: C_4  and  C_5 
REMARK    4  A    between atoms: C_14  and  O_15 
REMARK    5  A    between atoms: O_15  and  C_16 
REMARK    6  A    between atoms: C_16  and  C_17 
ROOT
HETATM    1  C   UNL     1      24.627  46.070  50.704  1.00  0.00    -0.036 A 
HETATM    2  C   UNL     1      25.346  47.150  51.239  1.00  0.00     0.012 A 
HETATM    3  C   UNL     1      25.986  47.046  52.480  1.00  0.00     0.037 A 
HETATM    4  C   UNL     1      25.905  45.864  53.212  1.00  0.00     0.069 A 
HETATM    5  C   UNL     1      25.202  44.780  52.684  1.00  0.00     0.037 A 
HETATM    6  C   UNL     1      24.563  44.882  51.447  1.00  0.00     0.012 A 
ENDROOT
BRANCH   1   7
HETATM    7  C   UNL     1      23.910  46.215  49.374  1.00  0.00     0.113 C 
HETATM    8  C   UNL     1      23.557  44.853  48.766  1.00  0.00     0.037 C 
BRANCH   7   9
HETATM    9  N   UNL     1      22.734  47.053  49.553  1.00  0.00    -0.352 N 
HETATM   10  C   UNL     1      22.378  48.016  48.645  1.00  0.00     0.225 C 
HETATM   11  O   UNL     1      22.955  48.229  47.588  1.00  0.00    -0.273 OA
HETATM   12  H   UNL     1      22.247  46.998  50.438  1.00  0.00     0.163 HD
BRANCH  10  13
HETATM   13  C   UNL     1      21.195  48.809  49.043  1.00  0.00     0.119 A 
HETATM   14  C   UNL     1      21.267  50.312  49.087  1.00  0.00     0.126 A 
HETATM   15 CL   UNL     1      20.408  51.123  50.398  1.00  0.00    -0.101 Cl
HETATM   16 CL   UNL     1      22.720  51.163  48.589  1.00  0.00    -0.101 Cl
HETATM   17  C   UNL     1      20.444  49.641  48.027  1.00  0.00     0.060 A 
ENDBRANCH  10  13
ENDBRANCH   7   9
ENDBRANCH   1   7
BRANCH   4  18
HETATM   18  O   UNL     1      26.470  45.635  54.435  1.00  0.00    -0.347 OA
BRANCH  18  19
HETATM   19  C   UNL     1      27.715  46.280  54.701  1.00  0.00     0.215 C 
BRANCH  19  20
HETATM   20  C   UNL     1      28.768  45.256  55.033  1.00  0.00    -0.017 A 
HETATM   21  C   UNL     1      29.759  45.501  55.981  1.00  0.00     0.125 A 
HETATM   22  N   UNL     1      30.760  44.641  56.279  1.00  0.00    -0.272 NA
HETATM   23  C   UNL     1      30.784  43.478  55.595  1.00  0.00     0.116 A 
HETATM   24  C   UNL     1      29.858  43.139  54.623  1.00  0.00     0.020 A 
HETATM   25  C   UNL     1      28.840  44.045  54.336  1.00  0.00     0.012 A 
ENDBRANCH  19  20
ENDBRANCH  18  19
ENDBRANCH   4  18
TORSDOF 6
ENDMDL
MODEL 2
REMARK VINA RESULT:      -7.6      5.048      6.284
REMARK  6 active torsions:
REMARK  status: ('A' for Active; 'I' for Inactive)
REMARK    1  A    between atoms: C_2  and  N_3 
REMARK    2  A    between atoms: C_2  and  C_11 
REMARK       I    between atoms: N_3  and  C_4 
REMARK    3  A    between atoms: C_4  and  C_5 
REMARK    4  A    between atoms: C_14  and  O_15 
REMARK    5  A    between atoms: O_15  and  C_16 
REMARK    6  A    between atoms: C_16  and  C_17 
ROOT
HETATM    1  C   UNL     1      26.873  43.918  51.546  1.00  0.00    -0.036 A 
HETATM    2  C   UNL     1      28.203  43.562  51.280  1.00  0.00     0.012 A 
HETATM    3  C   UNL     1      29.054  43.134  52.307  1.00  0.00     0.037 A 
HETATM    4  C   UNL     1      28.589  43.067  53.618  1.00  0.00     0.069 A 
HETATM    5  C   UNL     1      27.264  43.408  53.892  1.00  0.00     0.037 A 
HETATM    6  C   UNL     1      26.415  43.837  52.870  1.00  0.00     0.012 A 
ENDROOT
BRANCH   1   7
HETATM    7  C   UNL     1      25.977  44.416  50.425  1.00  0.00     0.113 C 
HETATM    8  C   UNL     1      26.242  45.889  50.095  1.00  0.00     0.037 C 
BRANCH   7   9
HETATM    9  N   UNL     1      26.145  43.558  49.262  1.00  0.00    -0.352 N 
HETATM   10  C   UNL     1      25.487  42.362  49.136  1.00  0.00     0.225 C 
HETATM   11  O   UNL     1      24.666  41.927  49.931  1.00  0.00    -0.273 OA
HETATM   12  H   UNL     1      26.865  43.803  48.596  1.00  0.00     0.163 HD
BRANCH  10  13
HETATM   13  C   UNL     1      25.847  41.605  47.917  1.00  0.00     0.119 A 
HETATM   14  C   UNL     1      27.114  40.793  47.873  1.00  0.00     0.126 A 
HETATM   15 CL   UNL     1      28.012  40.783  46.353  1.00  0.00    -0.101 Cl
HETATM   16 CL   UNL     1      28.150  40.656  49.284  1.00  0.00    -0.101 Cl
HETATM   17  C   UNL     1      25.787  40.094  47.900  1.00  0.00     0.060 A 
ENDBRANCH  10  13
ENDBRANCH   7   9
ENDBRANCH   1   7
BRANCH   4  18
HETATM   18  O   UNL     1      29.315  42.678  54.710  1.00  0.00    -0.347 OA
BRANCH  18  19
HETATM   19  C   UNL     1      30.627  43.225  54.840  1.00  0.00     0.215 C 
BRANCH  19  20
HETATM   20  C   UNL     1      30.709  44.084  56.075  1.00  0.00    -0.017 A 
HETATM   21  C   UNL     1      31.515  43.739  57.157  1.00  0.00     0.125 A 
HETATM   22  N   UNL     1      31.585  44.442  58.311  1.00  0.00    -0.272 NA
HETATM   23  C   UNL     1      30.809  45.542  58.399  1.00  0.00     0.116 A 
HETATM   24  C   UNL     1      29.962  45.967  57.390  1.00  0.00     0.020 A 
HETATM   25  C   UNL     1      29.909  45.222  56.215  1.00  0.00     0.012 A 
ENDBRANCH  19  20
ENDBRANCH  18  19
ENDBRANCH   4  18
TORSDOF 6
ENDMDL
MODEL 3
REMARK VINA RESULT:      -7.6      4.041      9.679
REMARK  6 active torsions:
REMARK  status: ('A' for Active; 'I' for Inactive)
REMARK    1  A    between atoms: C_2  and  N_3 
REMARK    2  A    between atoms: C_2  and  C_11 
REMARK       I    between atoms: N_3  and  C_4 
REMARK    3  A    between atoms: C_4  and  C_5 
REMARK    4  A    between atoms: C_14  and  O_15 
REMARK    5  A    between atoms: O_15  and  C_16 
REMARK    6  A    between atoms: C_16  and  C_17 
ROOT
HETATM    1  C   UNL     1      25.030  48.685  49.166  1.00  0.00    -0.036 A 
HETATM    2  C   UNL     1      25.182  49.818  48.352  1.00  0.00     0.012 A 
HETATM    3  C   UNL     1      24.069  50.549  47.918  1.00  0.00     0.037 A 
HETATM    4  C   UNL     1      22.785  50.149  48.281  1.00  0.00     0.069 A 
HETATM    5  C   UNL     1      22.623  49.031  49.099  1.00  0.00     0.037 A 
HETATM    6  C   UNL     1      23.732  48.300  49.532  1.00  0.00     0.012 A 
ENDROOT
BRANCH   1   7
HETATM    7  C   UNL     1      26.247  47.885  49.595  1.00  0.00     0.113 C 
HETATM    8  C   UNL     1      27.546  48.674  49.401  1.00  0.00     0.037 C 
BRANCH   7   9
HETATM    9  N   UNL     1      26.073  47.452  50.973  1.00  0.00    -0.352 N 
HETATM   10  C   UNL     1      26.059  46.128  51.327  1.00  0.00     0.225 C 
HETATM   11  O   UNL     1      26.247  45.196  50.559  1.00  0.00    -0.273 OA
HETATM   12  H   UNL     1      25.830  48.154  51.660  1.00  0.00     0.163 HD
BRANCH  10  13
HETATM   13  C   UNL     1      25.797  45.893  52.764  1.00  0.00     0.119 A 
HETATM   14  C   UNL     1      26.669  44.950  53.551  1.00  0.00     0.126 A 
HETATM   15 CL   UNL     1      25.875  43.938  54.760  1.00  0.00    -0.101 Cl
HETATM   16 CL   UNL     1      28.059  44.174  52.811  1.00  0.00    -0.101 Cl
HETATM   17  C   UNL     1      26.742  46.425  53.818  1.00  0.00     0.060 A 
ENDBRANCH  10  13
ENDBRANCH   7   9
ENDBRANCH   1   7
BRANCH   4  18
HETATM   18  O   UNL     1      21.619  50.763  47.919  1.00  0.00    -0.347 OA
BRANCH  18  19
HETATM   19  C   UNL     1      20.475  49.926  47.747  1.00  0.00     0.215 C 
BRANCH  19  20
HETATM   20  C   UNL     1      19.283  50.532  48.440  1.00  0.00    -0.017 A 
HETATM   21  C   UNL     1      18.012  49.972  48.339  1.00  0.00     0.125 A 
HETATM   22  N   UNL     1      16.897  50.503  48.893  1.00  0.00    -0.272 NA
HETATM   23  C   UNL     1      17.050  51.655  49.577  1.00  0.00     0.116 A 
HETATM   24  C   UNL     1      18.264  52.304  49.727  1.00  0.00     0.020 A 
HETATM   25  C   UNL     1      19.393  51.735  49.145  1.00  0.00     0.012 A 
ENDBRANCH  19  20
ENDBRANCH  18  19
ENDBRANCH   4  18
TORSDOF 6
ENDMDL
MODEL 4
REMARK VINA RESULT:      -7.6      4.058      9.267
REMARK  6 active torsions:
REMARK  status: ('A' for Active; 'I' for Inactive)
REMARK    1  A    between atoms: C_2  and  N_3 
REMARK    2  A    between atoms: C_2  and  C_11 
REMARK       I    between atoms: N_3  and  C_4 
REMARK    3  A    between atoms: C_4  and  C_5 
REMARK    4  A    between atoms: C_14  and  O_15 
REMARK    5  A    between atoms: O_15  and  C_16 
REMARK    6  A    between atoms: C_16  and  C_17 
ROOT
HETATM    1  C   UNL     1      25.706  45.331  51.190  1.00  0.00    -0.036 A 
HETATM    2  C   UNL     1      24.655  44.773  50.447  1.00  0.00     0.012 A 
HETATM    3  C   UNL     1      23.846  45.572  49.630  1.00  0.00     0.037 A 
HETATM    4  C   UNL     1      24.068  46.945  49.553  1.00  0.00     0.069 A 
HETATM    5  C   UNL     1      25.119  47.509  50.278  1.00  0.00     0.037 A 
HETATM    6  C   UNL     1      25.925  46.714  51.095  1.00  0.00     0.012 A 
ENDROOT
BRANCH   1   7
HETATM    7  C   UNL     1      26.548  44.454  52.099  1.00  0.00     0.113 C 
HETATM    8  C   UNL     1      27.668  43.745  51.330  1.00  0.00     0.037 C 
BRANCH   7   9
HETATM    9  N   UNL     1      27.066  45.259  53.195  1.00  0.00    -0.352 N 
HETATM   10  C   UNL     1      27.212  44.759  54.463  1.00  0.00     0.225 C 
HETATM   11  O   UNL     1      26.991  43.602  54.789  1.00  0.00    -0.273 OA
HETATM   12  H   UNL     1      27.197  46.248  53.031  1.00  0.00     0.163 HD
BRANCH  10  13
HETATM   13  C   UNL     1      27.684  45.755  55.450  1.00  0.00     0.119 A 
HETATM   14  C   UNL     1      29.050  45.621  56.070  1.00  0.00     0.126 A 
HETATM   15 CL   UNL     1      29.207  46.048  57.775  1.00  0.00    -0.101 Cl
HETATM   16 CL   UNL     1      30.144  44.339  55.579  1.00  0.00    -0.101 Cl
HETATM   17  C   UNL     1      28.783  46.732  55.097  1.00  0.00     0.060 A 
ENDBRANCH  10  13
ENDBRANCH   7   9
ENDBRANCH   1   7
BRANCH   4  18
HETATM   18  O   UNL     1      23.349  47.836  48.806  1.00  0.00    -0.347 OA
BRANCH  18  19
HETATM   19  C   UNL     1      23.276  49.176  49.294  1.00  0.00     0.215 C 
BRANCH  19  20
HETATM   20  C   UNL     1      21.884  49.719  49.105  1.00  0.00    -0.017 A 
HETATM   21  C   UNL     1      20.759  48.902  49.185  1.00  0.00     0.125 A 
HETATM   22  N   UNL     1      19.492  49.324  48.970  1.00  0.00    -0.272 NA
HETATM   23  C   UNL     1      19.332  50.625  48.651  1.00  0.00     0.116 A 
HETATM   24  C   UNL     1      20.381  51.521  48.532  1.00  0.00     0.020 A 
HETATM   25  C   UNL     1      21.674  51.057  48.757  1.00  0.00     0.012 A 
ENDBRANCH  19  20
ENDBRANCH  18  19
ENDBRANCH   4  18
TORSDOF 6
ENDMDL
MODEL 5
REMARK VINA RESULT:      -7.3     13.262     13.877
REMARK  6 active torsions:
REMARK  status: ('A' for Active; 'I' for Inactive)
REMARK    1  A    between atoms: C_2  and  N_3 
REMARK    2  A    between atoms: C_2  and  C_11 
REMARK       I    between atoms: N_3  and  C_4 
REMARK    3  A    between atoms: C_4  and  C_5 
REMARK    4  A    between atoms: C_14  and  O_15 
REMARK    5  A    between atoms: O_15  and  C_16 
REMARK    6  A    between atoms: C_16  and  C_17 
ROOT
HETATM    1  C   UNL     1      33.357  50.179  41.804  1.00  0.00    -0.036 A 
HETATM    2  C   UNL     1      34.716  50.392  41.531  1.00  0.00     0.012 A 
HETATM    3  C   UNL     1      35.484  51.256  42.322  1.00  0.00     0.037 A 
HETATM    4  C   UNL     1      34.900  51.930  43.391  1.00  0.00     0.069 A 
HETATM    5  C   UNL     1      33.551  51.717  43.678  1.00  0.00     0.037 A 
HETATM    6  C   UNL     1      32.783  50.858  42.890  1.00  0.00     0.012 A 
ENDROOT
BRANCH   1   7
HETATM    7  C   UNL     1      32.532  49.268  40.912  1.00  0.00     0.113 C 
HETATM    8  C   UNL     1      32.497  47.830  41.443  1.00  0.00     0.037 C 
BRANCH   7   9
HETATM    9  N   UNL     1      31.197  49.826  40.762  1.00  0.00    -0.352 N 
HETATM   10  C   UNL     1      30.769  50.390  39.588  1.00  0.00     0.225 C 
HETATM   11  O   UNL     1      31.418  50.429  38.553  1.00  0.00    -0.273 OA
HETATM   12  H   UNL     1      30.625  49.907  41.591  1.00  0.00     0.163 HD
BRANCH  10  13
HETATM   13  C   UNL     1      29.408  50.965  39.659  1.00  0.00     0.119 A 
HETATM   14  C   UNL     1      29.174  52.279  40.356  1.00  0.00     0.126 A 
HETATM   15 CL   UNL     1      27.688  52.440  41.294  1.00  0.00    -0.101 Cl
HETATM   16 CL   UNL     1      30.511  53.200  41.024  1.00  0.00    -0.101 Cl
HETATM   17  C   UNL     1      29.048  52.199  38.863  1.00  0.00     0.060 A 
ENDBRANCH  10  13
ENDBRANCH   7   9
ENDBRANCH   1   7
BRANCH   4  18
HETATM   18  O   UNL     1      35.530  52.805  44.232  1.00  0.00    -0.347 OA
BRANCH  18  19
HETATM   19  C   UNL     1      36.834  53.242  43.848  1.00  0.00     0.215 C 
BRANCH  19  20
HETATM   20  C   UNL     1      37.705  53.398  45.067  1.00  0.00    -0.017 A 
HETATM   21  C   UNL     1      38.546  52.377  45.504  1.00  0.00     0.125 A 
HETATM   22  N   UNL     1      39.308  52.441  46.621  1.00  0.00    -0.272 NA
HETATM   23  C   UNL     1      39.227  53.576  47.346  1.00  0.00     0.116 A 
HETATM   24  C   UNL     1      38.414  54.646  47.010  1.00  0.00     0.020 A 
HETATM   25  C   UNL     1      37.640  54.550  45.857  1.00  0.00     0.012 A 
ENDBRANCH  19  20
ENDBRANCH  18  19
ENDBRANCH   4  18
TORSDOF 6
ENDMDL
MODEL 6
REMARK VINA RESULT:      -7.3      4.809      9.588
REMARK  6 active torsions:
REMARK  status: ('A' for Active; 'I' for Inactive)
REMARK    1  A    between atoms: C_2  and  N_3 
REMARK    2  A    between atoms: C_2  and  C_11 
REMARK       I    between atoms: N_3  and  C_4 
REMARK    3  A    between atoms: C_4  and  C_5 
REMARK    4  A    between atoms: C_14  and  O_15 
REMARK    5  A    between atoms: O_15  and  C_16 
REMARK    6  A    between atoms: C_16  and  C_17 
ROOT
HETATM    1  C   UNL     1      24.681  47.754  49.392  1.00  0.00    -0.036 A 
HETATM    2  C   UNL     1      23.369  47.261  49.341  1.00  0.00     0.012 A 
HETATM    3  C   UNL     1      22.329  48.031  48.805  1.00  0.00     0.037 A 
HETATM    4  C   UNL     1      22.585  49.314  48.325  1.00  0.00     0.069 A 
HETATM    5  C   UNL     1      23.889  49.809  48.361  1.00  0.00     0.037 A 
HETATM    6  C   UNL     1      24.926  49.043  48.896  1.00  0.00     0.012 A 
ENDROOT
BRANCH   1   7
HETATM    7  C   UNL     1      25.788  46.918  50.011  1.00  0.00     0.113 C 
HETATM    8  C   UNL     1      26.080  47.338  51.456  1.00  0.00     0.037 C 
BRANCH   7   9
HETATM    9  N   UNL     1      25.434  45.510  49.914  1.00  0.00    -0.352 N 
HETATM   10  C   UNL     1      26.380  44.527  49.780  1.00  0.00     0.225 C 
HETATM   11  O   UNL     1      27.588  44.712  49.790  1.00  0.00    -0.273 OA
HETATM   12  H   UNL     1      24.455  45.276  49.816  1.00  0.00     0.163 HD
BRANCH  10  13
HETATM   13  C   UNL     1      25.816  43.168  49.624  1.00  0.00     0.119 A 
HETATM   14  C   UNL     1      26.078  42.113  50.667  1.00  0.00     0.126 A 
HETATM   15 CL   UNL     1      26.340  40.464  50.096  1.00  0.00    -0.101 Cl
HETATM   16 CL   UNL     1      26.982  42.487  52.125  1.00  0.00    -0.101 Cl
HETATM   17  C   UNL     1      24.699  42.688  50.524  1.00  0.00     0.060 A 
ENDBRANCH  10  13
ENDBRANCH   7   9
ENDBRANCH   1   7
BRANCH   4  18
HETATM   18  O   UNL     1      21.664  50.170  47.790  1.00  0.00    -0.347 OA
BRANCH  18  19
HETATM   19  C   UNL     1      21.449  51.400  48.482  1.00  0.00     0.215 C 
BRANCH  19  20
HETATM   20  C   UNL     1      20.031  51.466  48.988  1.00  0.00    -0.017 A 
HETATM   21  C   UNL     1      19.528  50.528  49.887  1.00  0.00     0.125 A 
HETATM   22  N   UNL     1      18.250  50.506  50.332  1.00  0.00    -0.272 NA
HETATM   23  C   UNL     1      17.426  51.462  49.855  1.00  0.00     0.116 A 
HETATM   24  C   UNL     1      17.818  52.433  48.949  1.00  0.00     0.020 A 
HETATM   25  C   UNL     1      19.139  52.429  48.507  1.00  0.00     0.012 A 
ENDBRANCH  19  20
ENDBRANCH  18  19
ENDBRANCH   4  18
TORSDOF 6
ENDMDL
MODEL 7
REMARK VINA RESULT:      -7.2      5.944      7.428
REMARK  6 active torsions:
REMARK  status: ('A' for Active; 'I' for Inactive)
REMARK    1  A    between atoms: C_2  and  N_3 
REMARK    2  A    between atoms: C_2  and  C_11 
REMARK       I    between atoms: N_3  and  C_4 
REMARK    3  A    between atoms: C_4  and  C_5 
REMARK    4  A    between atoms: C_14  and  O_15 
REMARK    5  A    between atoms: O_15  and  C_16 
REMARK    6  A    between atoms: C_16  and  C_17 
ROOT
HETATM    1  C   UNL     1      26.429  43.203  51.830  1.00  0.00    -0.036 A 
HETATM    2  C   UNL     1      27.501  42.740  52.607  1.00  0.00     0.012 A 
HETATM    3  C   UNL     1      27.912  43.432  53.754  1.00  0.00     0.037 A 
HETATM    4  C   UNL     1      27.264  44.606  54.132  1.00  0.00     0.069 A 
HETATM    5  C   UNL     1      26.189  45.068  53.372  1.00  0.00     0.037 A 
HETATM    6  C   UNL     1      25.779  44.381  52.228  1.00  0.00     0.012 A 
ENDROOT
BRANCH   1   7
HETATM    7  C   UNL     1      26.023  42.460  50.570  1.00  0.00     0.113 C 
HETATM    8  C   UNL     1      25.403  43.398  49.529  1.00  0.00     0.037 C 
BRANCH   7   9
HETATM    9  N   UNL     1      27.177  41.747  50.042  1.00  0.00    -0.352 N 
HETATM   10  C   UNL     1      27.078  40.485  49.515  1.00  0.00     0.225 C 
HETATM   11  O   UNL     1      26.033  39.864  49.378  1.00  0.00    -0.273 OA
HETATM   12  H   UNL     1      28.090  42.154  50.190  1.00  0.00     0.163 HD
BRANCH  10  13
HETATM   13  C   UNL     1      28.373  39.904  49.099  1.00  0.00     0.119 A 
HETATM   14  C   UNL     1      28.594  38.416  49.163  1.00  0.00     0.126 A 
HETATM   15 CL   UNL     1      30.191  37.860  49.668  1.00  0.00    -0.101 Cl
HETATM   16 CL   UNL     1      27.303  37.330  49.649  1.00  0.00    -0.101 Cl
HETATM   17  C   UNL     1      28.483  39.092  47.829  1.00  0.00     0.060 A 
ENDBRANCH  10  13
ENDBRANCH   7   9
ENDBRANCH   1   7
BRANCH   4  18
HETATM   18  O   UNL     1      27.570  45.380  55.217  1.00  0.00    -0.347 OA
BRANCH  18  19
HETATM   19  C   UNL     1      28.838  46.035  55.204  1.00  0.00     0.215 C 
BRANCH  19  20
HETATM   20  C   UNL     1      29.757  45.401  56.216  1.00  0.00    -0.017 A 
HETATM   21  C   UNL     1      29.814  45.845  57.535  1.00  0.00     0.125 A 
HETATM   22  N   UNL     1      30.658  45.352  58.471  1.00  0.00    -0.272 NA
HETATM   23  C   UNL     1      31.495  44.370  58.075  1.00  0.00     0.116 A 
HETATM   24  C   UNL     1      31.531  43.865  56.786  1.00  0.00     0.020 A 
HETATM   25  C   UNL     1      30.652  44.394  55.845  1.00  0.00     0.012 A 
ENDBRANCH  19  20
ENDBRANCH  18  19
ENDBRANCH   4  18
TORSDOF 6
ENDMDL
MODEL 8
REMARK VINA RESULT:      -7.2      5.072      6.519
REMARK  6 active torsions:
REMARK  status: ('A' for Active; 'I' for Inactive)
REMARK    1  A    between atoms: C_2  and  N_3 
REMARK    2  A    between atoms: C_2  and  C_11 
REMARK       I    between atoms: N_3  and  C_4 
REMARK    3  A    between atoms: C_4  and  C_5 
REMARK    4  A    between atoms: C_14  and  O_15 
REMARK    5  A    between atoms: O_15  and  C_16 
REMARK    6  A    between atoms: C_16  and  C_17 
ROOT
HETATM    1  C   UNL     1      26.266  43.085  50.754  1.00  0.00    -0.036 A 
HETATM    2  C   UNL     1      26.476  41.760  51.163  1.00  0.00     0.012 A 
HETATM    3  C   UNL     1      27.348  41.461  52.217  1.00  0.00     0.037 A 
HETATM    4  C   UNL     1      28.035  42.483  52.869  1.00  0.00     0.069 A 
HETATM    5  C   UNL     1      27.824  43.805  52.477  1.00  0.00     0.037 A 
HETATM    6  C   UNL     1      26.956  44.106  51.426  1.00  0.00     0.012 A 
ENDROOT
BRANCH   1   7
HETATM    7  C   UNL     1      25.344  43.386  49.585  1.00  0.00     0.113 C 
HETATM    8  C   UNL     1      25.201  44.894  49.346  1.00  0.00     0.037 C 
BRANCH   7   9
HETATM    9  N   UNL     1      25.828  42.690  48.403  1.00  0.00    -0.352 N 
HETATM   10  C   UNL     1      25.243  41.539  47.942  1.00  0.00     0.225 C 
HETATM   11  O   UNL     1      24.244  41.022  48.420  1.00  0.00    -0.273 OA
HETATM   12  H   UNL     1      26.698  43.005  47.994  1.00  0.00     0.163 HD
BRANCH  10  13
HETATM   13  C   UNL     1      25.926  40.946  46.771  1.00  0.00     0.119 A 
HETATM   14  C   UNL     1      27.378  40.559  46.854  1.00  0.00     0.126 A 
HETATM   15 CL   UNL     1      28.372  40.845  45.424  1.00  0.00    -0.101 Cl
HETATM   16 CL   UNL     1      28.273  40.722  48.356  1.00  0.00    -0.101 Cl
HETATM   17  C   UNL     1      26.330  39.489  46.770  1.00  0.00     0.060 A 
ENDBRANCH  10  13
ENDBRANCH   7   9
ENDBRANCH   1   7
BRANCH   4  18
HETATM   18  O   UNL     1      28.919  42.328  53.899  1.00  0.00    -0.347 OA
BRANCH  18  19
HETATM   19  C   UNL     1      30.075  43.165  53.889  1.00  0.00     0.215 C 
BRANCH  19  20
HETATM   20  C   UNL     1      30.280  43.780  55.248  1.00  0.00    -0.017 A 
HETATM   21  C   UNL     1      29.651  44.966  55.620  1.00  0.00     0.125 A 
HETATM   22  N   UNL     1      29.840  45.592  56.805  1.00  0.00    -0.272 NA
HETATM   23  C   UNL     1      30.706  45.015  57.664  1.00  0.00     0.116 A 
HETATM   24  C   UNL     1      31.394  43.845  57.390  1.00  0.00     0.020 A 
HETATM   25  C   UNL     1      31.181  43.225  56.162  1.00  0.00     0.012 A 
ENDBRANCH  19  20
ENDBRANCH  18  19
ENDBRANCH   4  18
TORSDOF 6
ENDMDL
MODEL 9
REMARK VINA RESULT:      -7.1      2.436      3.162
REMARK  6 active torsions:
REMARK  status: ('A' for Active; 'I' for Inactive)
REMARK    1  A    between atoms: C_2  and  N_3 
REMARK    2  A    between atoms: C_2  and  C_11 
REMARK       I    between atoms: N_3  and  C_4 
REMARK    3  A    between atoms: C_4  and  C_5 
REMARK    4  A    between atoms: C_14  and  O_15 
REMARK    5  A    between atoms: O_15  and  C_16 
REMARK    6  A    between atoms: C_16  and  C_17 
ROOT
HETATM    1  C   UNL     1      24.547  48.246  49.446  1.00  0.00    -0.036 A 
HETATM    2  C   UNL     1      25.918  48.512  49.313  1.00  0.00     0.012 A 
HETATM    3  C   UNL     1      26.872  47.514  49.548  1.00  0.00     0.037 A 
HETATM    4  C   UNL     1      26.469  46.237  49.932  1.00  0.00     0.069 A 
HETATM    5  C   UNL     1      25.108  45.959  50.055  1.00  0.00     0.037 A 
HETATM    6  C   UNL     1      24.155  46.952  49.823  1.00  0.00     0.012 A 
ENDROOT
BRANCH   1   7
HETATM    7  C   UNL     1      23.530  49.351  49.224  1.00  0.00     0.113 C 
HETATM    8  C   UNL     1      23.864  50.194  47.988  1.00  0.00     0.037 C 
BRANCH   7   9
HETATM    9  N   UNL     1      22.199  48.767  49.141  1.00  0.00    -0.352 N 
HETATM   10  C   UNL     1      21.071  49.468  49.480  1.00  0.00     0.225 C 
HETATM   11  O   UNL     1      21.053  50.643  49.819  1.00  0.00    -0.273 OA
HETATM   12  H   UNL     1      22.131  47.776  48.948  1.00  0.00     0.163 HD
BRANCH  10  13
HETATM   13  C   UNL     1      19.824  48.676  49.398  1.00  0.00     0.119 A 
HETATM   14  C   UNL     1      18.849  48.910  48.275  1.00  0.00     0.126 A 
HETATM   15 CL   UNL     1      17.131  48.819  48.667  1.00  0.00    -0.101 Cl
HETATM   16 CL   UNL     1      19.201  50.060  46.996  1.00  0.00    -0.101 Cl
HETATM   17  C   UNL     1      19.640  47.636  48.316  1.00  0.00     0.060 A 
ENDBRANCH  10  13
ENDBRANCH   7   9
ENDBRANCH   1   7
BRANCH   4  18
HETATM   18  O   UNL     1      27.294  45.180  50.200  1.00  0.00    -0.347 OA
BRANCH  18  19
HETATM   19  C   UNL     1      26.785  44.171  51.072  1.00  0.00     0.215 C 
BRANCH  19  20
HETATM   20  C   UNL     1      27.664  44.047  52.289  1.00  0.00    -0.017 A 
HETATM   21  C   UNL     1      27.427  44.786  53.445  1.00  0.00     0.125 A 
HETATM   22  N   UNL     1      28.213  44.757  54.545  1.00  0.00    -0.272 NA
HETATM   23  C   UNL     1      29.298  43.956  54.494  1.00  0.00     0.116 A 
HETATM   24  C   UNL     1      29.635  43.190  53.391  1.00  0.00     0.020 A 
HETATM   25  C   UNL     1      28.808  43.242  52.272  1.00  0.00     0.012 A 
ENDBRANCH  19  20
ENDBRANCH  18  19
ENDBRANCH   4  18
TORSDOF 6
ENDMDL
MODEL 10
REMARK VINA RESULT:      -7.0      1.496      2.113
REMARK  6 active torsions:
REMARK  status: ('A' for Active; 'I' for Inactive)
REMARK    1  A    between atoms: C_2  and  N_3 
REMARK    2  A    between atoms: C_2  and  C_11 
REMARK       I    between atoms: N_3  and  C_4 
REMARK    3  A    between atoms: C_4  and  C_5 
REMARK    4  A    between atoms: C_14  and  O_15 
REMARK    5  A    between atoms: O_15  and  C_16 
REMARK    6  A    between atoms: C_16  and  C_17 
ROOT
HETATM    1  C   UNL     1      23.757  45.345  49.214  1.00  0.00    -0.036 A 
HETATM    2  C   UNL     1      24.336  44.071  49.127  1.00  0.00     0.012 A 
HETATM    3  C   UNL     1      25.501  43.758  49.839  1.00  0.00     0.037 A 
HETATM    4  C   UNL     1      26.111  44.722  50.640  1.00  0.00     0.069 A 
HETATM    5  C   UNL     1      25.537  45.989  50.741  1.00  0.00     0.037 A 
HETATM    6  C   UNL     1      24.376  46.303  50.031  1.00  0.00     0.012 A 
ENDROOT
BRANCH   1   7
HETATM    7  C   UNL     1      22.515  45.676  48.404  1.00  0.00     0.113 C 
HETATM    8  C   UNL     1      21.455  44.574  48.511  1.00  0.00     0.037 C 
BRANCH   7   9
HETATM    9  N   UNL     1      22.000  46.970  48.826  1.00  0.00    -0.352 N 
HETATM   10  C   UNL     1      21.524  47.893  47.931  1.00  0.00     0.225 C 
HETATM   11  O   UNL     1      21.424  47.713  46.726  1.00  0.00    -0.273 OA
HETATM   12  H   UNL     1      22.121  47.232  49.795  1.00  0.00     0.163 HD
BRANCH  10  13
HETATM   13  C   UNL     1      21.113  49.173  48.550  1.00  0.00     0.119 A 
HETATM   14  C   UNL     1      22.152  50.156  49.022  1.00  0.00     0.126 A 
HETATM   15 CL   UNL     1      21.813  51.030  50.518  1.00  0.00    -0.101 Cl
HETATM   16 CL   UNL     1      23.863  49.851  48.778  1.00  0.00    -0.101 Cl
HETATM   17  C   UNL     1      21.314  50.483  47.821  1.00  0.00     0.060 A 
ENDBRANCH  10  13
ENDBRANCH   7   9
ENDBRANCH   1   7
BRANCH   4  18
HETATM   18  O   UNL     1      27.251  44.552  51.375  1.00  0.00    -0.347 OA
BRANCH  18  19
HETATM   19  C   UNL     1      27.140  44.728  52.787  1.00  0.00     0.215 C 
BRANCH  19  20
HETATM   20  C   UNL     1      28.354  44.161  53.476  1.00  0.00    -0.017 A 
HETATM   21  C   UNL     1      28.760  44.605  54.732  1.00  0.00     0.125 A 
HETATM   22  N   UNL     1      29.870  44.172  55.372  1.00  0.00    -0.272 NA
HETATM   23  C   UNL     1      30.622  43.255  54.730  1.00  0.00     0.116 A 
HETATM   24  C   UNL     1      30.319  42.756  53.474  1.00  0.00     0.020 A 
HETATM   25  C   UNL     1      29.171  43.222  52.838  1.00  0.00     0.012 A 
ENDBRANCH  19  20
ENDBRANCH  18  19
ENDBRANCH   4  18
TORSDOF 6
ENDMDL
