MODEL 1
REMARK VINA RESULT:      -8.6      0.000      0.000
REMARK  4 active torsions:
REMARK  status: ('A' for Active; 'I' for Inactive)
REMARK    1  A    between atoms: C_6  and  N_7 
REMARK       I    between atoms: N_7  and  C_8 
REMARK    2  A    between atoms: C_8  and  C_9 
REMARK    3  A    between atoms: C_9  and  O_10 
REMARK    4  A    between atoms: O_10  and  C_11 
ROOT
HETATM    1  N   UNL     1      26.114  46.684  50.577  1.00  0.00    -0.323 N 
HETATM    2  C   UNL     1      25.915  46.587  51.945  1.00  0.00     0.256 C 
HETATM    3  O   UNL     1      25.745  47.538  52.704  1.00  0.00    -0.270 OA
HETATM    4  H   UNL     1      26.175  45.811  50.060  1.00  0.00     0.169 HD
ENDROOT
BRANCH   2   5
HETATM    5  C   UNL     1      25.884  45.118  52.458  1.00  0.00     0.141 C 
HETATM    6  C   UNL     1      25.390  45.021  53.912  1.00  0.00     0.057 C 
HETATM    7  C   UNL     1      24.858  44.354  51.592  1.00  0.00     0.057 C 
BRANCH   5   8
HETATM    8  O   UNL     1      27.116  44.412  52.263  1.00  0.00    -0.331 OA
BRANCH   8   9
HETATM    9  C   UNL     1      28.042  44.282  53.256  1.00  0.00     0.072 A 
HETATM   10  C   UNL     1      28.286  45.175  54.298  1.00  0.00     0.060 A 
HETATM   11  C   UNL     1      29.275  44.889  55.244  1.00  0.00     0.036 A 
HETATM   12 CL   UNL     1      29.558  45.989  56.538  1.00  0.00    -0.084 Cl
HETATM   13  C   UNL     1      30.034  43.724  55.157  1.00  0.00     0.024 A 
HETATM   14  C   UNL     1      29.808  42.838  54.107  1.00  0.00     0.004 A 
HETATM   15  C   UNL     1      28.819  43.122  53.162  1.00  0.00     0.037 A 
ENDBRANCH   8   9
ENDBRANCH   5   8
ENDBRANCH   2   5
BRANCH   1  16
HETATM   16  C   UNL     1      26.160  47.859  49.787  1.00  0.00     0.060 A 
HETATM   17  C   UNL     1      27.346  48.535  49.514  1.00  0.00     0.050 A 
HETATM   18  C   UNL     1      27.293  49.678  48.735  1.00  0.00     0.119 A 
HETATM   19  N   UNL     1      26.151  50.193  48.230  1.00  0.00    -0.264 NA
HETATM   20  C   UNL     1      24.994  49.536  48.496  1.00  0.00     0.054 A 
HETATM   21  C   UNL     1      23.748  50.170  47.948  1.00  0.00     0.072 C 
HETATM   22  C   UNL     1      24.959  48.362  49.254  1.00  0.00     0.085 A 
HETATM   23 CL   UNL     1      23.460  47.550  49.578  1.00  0.00    -0.080 Cl
ENDBRANCH   1  16
TORSDOF 4
ENDMDL
MODEL 2
REMARK VINA RESULT:      -8.2      4.779      9.093
REMARK  4 active torsions:
REMARK  status: ('A' for Active; 'I' for Inactive)
REMARK    1  A    between atoms: C_6  and  N_7 
REMARK       I    between atoms: N_7  and  C_8 
REMARK    2  A    between atoms: C_8  and  C_9 
REMARK    3  A    between atoms: C_9  and  O_10 
REMARK    4  A    between atoms: O_10  and  C_11 
ROOT
HETATM    1  N   UNL     1      22.470  48.111  49.345  1.00  0.00    -0.323 N 
HETATM    2  C   UNL     1      21.739  47.649  48.262  1.00  0.00     0.256 C 
HETATM    3  O   UNL     1      22.215  47.108  47.267  1.00  0.00    -0.270 OA
HETATM    4  H   UNL     1      21.941  48.479  50.132  1.00  0.00     0.169 HD
ENDROOT
BRANCH   2   5
HETATM    5  C   UNL     1      20.204  47.841  48.431  1.00  0.00     0.141 C 
HETATM    6  C   UNL     1      19.524  48.263  47.117  1.00  0.00     0.057 C 
HETATM    7  C   UNL     1      19.611  46.466  48.812  1.00  0.00     0.057 C 
BRANCH   5   8
HETATM    8  O   UNL     1      19.846  48.701  49.520  1.00  0.00    -0.331 OA
BRANCH   8   9
HETATM    9  C   UNL     1      19.251  49.913  49.320  1.00  0.00     0.072 A 
HETATM   10  C   UNL     1      17.910  50.232  49.523  1.00  0.00     0.060 A 
HETATM   11  C   UNL     1      17.457  51.532  49.275  1.00  0.00     0.036 A 
HETATM   12 CL   UNL     1      15.802  51.923  49.544  1.00  0.00    -0.084 Cl
HETATM   13  C   UNL     1      18.328  52.518  48.816  1.00  0.00     0.024 A 
HETATM   14  C   UNL     1      19.665  52.200  48.594  1.00  0.00     0.004 A 
HETATM   15  C   UNL     1      20.119  50.902  48.842  1.00  0.00     0.037 A 
ENDBRANCH   8   9
ENDBRANCH   5   8
ENDBRANCH   2   5
BRANCH   1  16
HETATM   16  C   UNL     1      23.873  48.060  49.532  1.00  0.00     0.060 A 
HETATM   17  C   UNL     1      24.492  47.094  50.322  1.00  0.00     0.050 A 
HETATM   18  C   UNL     1      25.870  47.126  50.449  1.00  0.00     0.119 A 
HETATM   19  N   UNL     1      26.659  48.052  49.863  1.00  0.00    -0.264 NA
HETATM   20  C   UNL     1      26.058  48.995  49.095  1.00  0.00     0.054 A 
HETATM   21  C   UNL     1      26.973  50.026  48.500  1.00  0.00     0.072 C 
HETATM   22  C   UNL     1      24.675  49.023  48.893  1.00  0.00     0.085 A 
HETATM   23 CL   UNL     1      23.939  50.247  47.907  1.00  0.00    -0.080 Cl
ENDBRANCH   1  16
TORSDOF 4
ENDMDL
MODEL 3
REMARK VINA RESULT:      -8.2      4.111      7.162
REMARK  4 active torsions:
REMARK  status: ('A' for Active; 'I' for Inactive)
REMARK    1  A    between atoms: C_6  and  N_7 
REMARK       I    between atoms: N_7  and  C_8 
REMARK    2  A    between atoms: C_8  and  C_9 
REMARK    3  A    between atoms: C_9  and  O_10 
REMARK    4  A    between atoms: O_10  and  C_11 
ROOT
HETATM    1  N   UNL     1      28.311  45.464  54.658  1.00  0.00    -0.323 N 
HETATM    2  C   UNL     1      27.141  44.780  54.370  1.00  0.00     0.256 C 
HETATM    3  O   UNL     1      26.608  43.950  55.102  1.00  0.00    -0.270 OA
HETATM    4  H   UNL     1      28.605  46.172  53.990  1.00  0.00     0.169 HD
ENDROOT
BRANCH   2   5
HETATM    5  C   UNL     1      26.510  45.191  53.008  1.00  0.00     0.141 C 
HETATM    6  C   UNL     1      25.106  44.593  52.815  1.00  0.00     0.057 C 
HETATM    7  C   UNL     1      26.337  46.726  53.030  1.00  0.00     0.057 C 
BRANCH   5   8
HETATM    8  O   UNL     1      27.358  44.941  51.880  1.00  0.00    -0.331 OA
BRANCH   8   9
HETATM    9  C   UNL     1      27.486  43.698  51.330  1.00  0.00     0.072 A 
HETATM   10  C   UNL     1      28.145  42.601  51.880  1.00  0.00     0.060 A 
HETATM   11  C   UNL     1      28.180  41.388  51.185  1.00  0.00     0.036 A 
HETATM   12 CL   UNL     1      28.982  40.032  51.880  1.00  0.00    -0.084 Cl
HETATM   13  C   UNL     1      27.570  41.259  49.939  1.00  0.00     0.024 A 
HETATM   14  C   UNL     1      26.926  42.357  49.376  1.00  0.00     0.004 A 
HETATM   15  C   UNL     1      26.890  43.570  50.069  1.00  0.00     0.037 A 
ENDBRANCH   8   9
ENDBRANCH   5   8
ENDBRANCH   2   5
BRANCH   1  16
HETATM   16  C   UNL     1      29.115  45.359  55.820  1.00  0.00     0.060 A 
HETATM   17  C   UNL     1      28.943  46.181  56.931  1.00  0.00     0.050 A 
HETATM   18  C   UNL     1      29.780  46.008  58.019  1.00  0.00     0.119 A 
HETATM   19  N   UNL     1      30.772  45.093  58.068  1.00  0.00    -0.264 NA
HETATM   20  C   UNL     1      30.943  44.291  56.987  1.00  0.00     0.054 A 
HETATM   21  C   UNL     1      32.084  43.320  57.072  1.00  0.00     0.072 C 
HETATM   22  C   UNL     1      30.128  44.383  55.854  1.00  0.00     0.085 A 
HETATM   23 CL   UNL     1      30.377  43.344  54.486  1.00  0.00    -0.080 Cl
ENDBRANCH   1  16
TORSDOF 4
ENDMDL
MODEL 4
REMARK VINA RESULT:      -8.2      0.926      1.450
REMARK  4 active torsions:
REMARK  status: ('A' for Active; 'I' for Inactive)
REMARK    1  A    between atoms: C_6  and  N_7 
REMARK       I    between atoms: N_7  and  C_8 
REMARK    2  A    between atoms: C_8  and  C_9 
REMARK    3  A    between atoms: C_9  and  O_10 
REMARK    4  A    between atoms: O_10  and  C_11 
ROOT
HETATM    1  N   UNL     1      26.206  46.759  50.727  1.00  0.00    -0.323 N 
HETATM    2  C   UNL     1      25.834  46.696  52.061  1.00  0.00     0.256 C 
HETATM    3  O   UNL     1      25.421  47.643  52.725  1.00  0.00    -0.270 OA
HETATM    4  H   UNL     1      26.468  45.883  50.282  1.00  0.00     0.169 HD
ENDROOT
BRANCH   2   5
HETATM    5  C   UNL     1      25.949  45.266  52.663  1.00  0.00     0.141 C 
HETATM    6  C   UNL     1      25.268  45.157  54.037  1.00  0.00     0.057 C 
HETATM    7  C   UNL     1      25.188  44.310  51.717  1.00  0.00     0.057 C 
BRANCH   5   8
HETATM    8  O   UNL     1      27.288  44.756  52.687  1.00  0.00    -0.331 OA
BRANCH   8   9
HETATM    9  C   UNL     1      28.099  44.899  53.776  1.00  0.00     0.072 A 
HETATM   10  C   UNL     1      29.017  43.973  54.265  1.00  0.00     0.060 A 
HETATM   11  C   UNL     1      29.780  44.279  55.397  1.00  0.00     0.036 A 
HETATM   12 CL   UNL     1      30.925  43.136  55.985  1.00  0.00    -0.084 Cl
HETATM   13  C   UNL     1      29.630  45.498  56.053  1.00  0.00     0.024 A 
HETATM   14  C   UNL     1      28.700  46.419  55.580  1.00  0.00     0.004 A 
HETATM   15  C   UNL     1      27.938  46.116  54.449  1.00  0.00     0.037 A 
ENDBRANCH   8   9
ENDBRANCH   5   8
ENDBRANCH   2   5
BRANCH   1  16
HETATM   16  C   UNL     1      26.188  47.889  49.873  1.00  0.00     0.060 A 
HETATM   17  C   UNL     1      27.335  48.615  49.561  1.00  0.00     0.050 A 
HETATM   18  C   UNL     1      27.219  49.708  48.721  1.00  0.00     0.119 A 
HETATM   19  N   UNL     1      26.052  50.129  48.189  1.00  0.00    -0.264 NA
HETATM   20  C   UNL     1      24.932  49.425  48.492  1.00  0.00     0.054 A 
HETATM   21  C   UNL     1      23.654  49.957  47.912  1.00  0.00     0.072 C 
HETATM   22  C   UNL     1      24.962  48.294  49.315  1.00  0.00     0.085 A 
HETATM   23 CL   UNL     1      23.509  47.419  49.685  1.00  0.00    -0.080 Cl
ENDBRANCH   1  16
TORSDOF 4
ENDMDL
MODEL 5
REMARK VINA RESULT:      -8.1      4.516      6.151
REMARK  4 active torsions:
REMARK  status: ('A' for Active; 'I' for Inactive)
REMARK    1  A    between atoms: C_6  and  N_7 
REMARK       I    between atoms: N_7  and  C_8 
REMARK    2  A    between atoms: C_8  and  C_9 
REMARK    3  A    between atoms: C_9  and  O_10 
REMARK    4  A    between atoms: O_10  and  C_11 
ROOT
HETATM    1  N   UNL     1      26.685  42.374  52.206  1.00  0.00    -0.323 N 
HETATM    2  C   UNL     1      27.100  43.696  52.182  1.00  0.00     0.256 C 
HETATM    3  O   UNL     1      27.632  44.252  51.225  1.00  0.00    -0.270 OA
HETATM    4  H   UNL     1      26.199  42.060  53.042  1.00  0.00     0.169 HD
ENDROOT
BRANCH   2   5
HETATM    5  C   UNL     1      26.793  44.459  53.503  1.00  0.00     0.141 C 
HETATM    6  C   UNL     1      25.417  45.146  53.469  1.00  0.00     0.057 C 
HETATM    7  C   UNL     1      26.733  43.408  54.633  1.00  0.00     0.057 C 
BRANCH   5   8
HETATM    8  O   UNL     1      27.832  45.360  53.904  1.00  0.00    -0.331 OA
BRANCH   8   9
HETATM    9  C   UNL     1      28.828  44.983  54.758  1.00  0.00     0.072 A 
HETATM   10  C   UNL     1      29.172  45.589  55.965  1.00  0.00     0.060 A 
HETATM   11  C   UNL     1      30.222  45.072  56.730  1.00  0.00     0.036 A 
HETATM   12 CL   UNL     1      30.630  45.816  58.228  1.00  0.00    -0.084 Cl
HETATM   13  C   UNL     1      30.943  43.961  56.299  1.00  0.00     0.024 A 
HETATM   14  C   UNL     1      30.616  43.363  55.085  1.00  0.00     0.004 A 
HETATM   15  C   UNL     1      29.566  43.877  54.320  1.00  0.00     0.037 A 
ENDBRANCH   8   9
ENDBRANCH   5   8
ENDBRANCH   2   5
BRANCH   1  16
HETATM   16  C   UNL     1      26.778  41.415  51.167  1.00  0.00     0.060 A 
HETATM   17  C   UNL     1      25.817  41.293  50.167  1.00  0.00     0.050 A 
HETATM   18  C   UNL     1      25.991  40.323  49.195  1.00  0.00     0.119 A 
HETATM   19  N   UNL     1      27.036  39.469  49.162  1.00  0.00    -0.264 NA
HETATM   20  C   UNL     1      27.974  39.585  50.136  1.00  0.00     0.054 A 
HETATM   21  C   UNL     1      29.094  38.586  50.081  1.00  0.00     0.072 C 
HETATM   22  C   UNL     1      27.889  40.552  51.143  1.00  0.00     0.085 A 
HETATM   23 CL   UNL     1      29.105  40.669  52.376  1.00  0.00    -0.080 Cl
ENDBRANCH   1  16
TORSDOF 4
ENDMDL
MODEL 6
REMARK VINA RESULT:      -8.0      2.467      3.541
REMARK  4 active torsions:
REMARK  status: ('A' for Active; 'I' for Inactive)
REMARK    1  A    between atoms: C_6  and  N_7 
REMARK       I    between atoms: N_7  and  C_8 
REMARK    2  A    between atoms: C_8  and  C_9 
REMARK    3  A    between atoms: C_9  and  O_10 
REMARK    4  A    between atoms: O_10  and  C_11 
ROOT
HETATM    1  N   UNL     1      25.884  44.349  52.363  1.00  0.00    -0.323 N 
HETATM    2  C   UNL     1      27.161  43.830  52.225  1.00  0.00     0.256 C 
HETATM    3  O   UNL     1      27.743  43.660  51.157  1.00  0.00    -0.270 OA
HETATM    4  H   UNL     1      25.549  44.497  53.312  1.00  0.00     0.169 HD
ENDROOT
BRANCH   2   5
HETATM    5  C   UNL     1      27.840  43.501  53.586  1.00  0.00     0.141 C 
HETATM    6  C   UNL     1      26.927  43.820  54.782  1.00  0.00     0.057 C 
HETATM    7  C   UNL     1      28.089  41.977  53.615  1.00  0.00     0.057 C 
BRANCH   5   8
HETATM    8  O   UNL     1      29.142  44.081  53.736  1.00  0.00    -0.331 OA
BRANCH   8   9
HETATM    9  C   UNL     1      29.755  44.181  54.952  1.00  0.00     0.072 A 
HETATM   10  C   UNL     1      29.618  45.213  55.877  1.00  0.00     0.060 A 
HETATM   11  C   UNL     1      30.316  45.161  57.088  1.00  0.00     0.036 A 
HETATM   12 CL   UNL     1      30.128  46.432  58.234  1.00  0.00    -0.084 Cl
HETATM   13  C   UNL     1      31.161  44.093  57.382  1.00  0.00     0.024 A 
HETATM   14  C   UNL     1      31.316  43.069  56.453  1.00  0.00     0.004 A 
HETATM   15  C   UNL     1      30.618  43.118  55.244  1.00  0.00     0.037 A 
ENDBRANCH   8   9
ENDBRANCH   5   8
ENDBRANCH   2   5
BRANCH   1  16
HETATM   16  C   UNL     1      25.007  44.784  51.338  1.00  0.00     0.060 A 
HETATM   17  C   UNL     1      24.142  43.919  50.672  1.00  0.00     0.050 A 
HETATM   18  C   UNL     1      23.325  44.434  49.681  1.00  0.00     0.119 A 
HETATM   19  N   UNL     1      23.322  45.731  49.305  1.00  0.00    -0.264 NA
HETATM   20  C   UNL     1      24.164  46.575  49.952  1.00  0.00     0.054 A 
HETATM   21  C   UNL     1      24.155  47.997  49.470  1.00  0.00     0.072 C 
HETATM   22  C   UNL     1      25.008  46.144  50.981  1.00  0.00     0.085 A 
HETATM   23 CL   UNL     1      26.076  47.251  51.784  1.00  0.00    -0.080 Cl
ENDBRANCH   1  16
TORSDOF 4
ENDMDL
MODEL 7
REMARK VINA RESULT:      -7.9      4.192      5.000
REMARK  4 active torsions:
REMARK  status: ('A' for Active; 'I' for Inactive)
REMARK    1  A    between atoms: C_6  and  N_7 
REMARK       I    between atoms: N_7  and  C_8 
REMARK    2  A    between atoms: C_8  and  C_9 
REMARK    3  A    between atoms: C_9  and  O_10 
REMARK    4  A    between atoms: O_10  and  C_11 
ROOT
HETATM    1  N   UNL     1      25.551  42.866  51.797  1.00  0.00    -0.323 N 
HETATM    2  C   UNL     1      26.455  43.854  52.153  1.00  0.00     0.256 C 
HETATM    3  O   UNL     1      26.517  44.972  51.646  1.00  0.00    -0.270 OA
HETATM    4  H   UNL     1      25.569  42.009  52.344  1.00  0.00     0.169 HD
ENDROOT
BRANCH   2   5
HETATM    5  C   UNL     1      27.399  43.432  53.316  1.00  0.00     0.141 C 
HETATM    6  C   UNL     1      26.678  43.425  54.674  1.00  0.00     0.057 C 
HETATM    7  C   UNL     1      27.837  41.976  53.042  1.00  0.00     0.057 C 
BRANCH   5   8
HETATM    8  O   UNL     1      28.624  44.173  53.364  1.00  0.00    -0.331 OA
BRANCH   8   9
HETATM    9  C   UNL     1      29.274  44.425  54.537  1.00  0.00     0.072 A 
HETATM   10  C   UNL     1      30.229  43.622  55.156  1.00  0.00     0.060 A 
HETATM   11  C   UNL     1      30.807  44.031  56.362  1.00  0.00     0.036 A 
HETATM   12 CL   UNL     1      32.000  43.041  57.112  1.00  0.00    -0.084 Cl
HETATM   13  C   UNL     1      30.434  45.230  56.965  1.00  0.00     0.024 A 
HETATM   14  C   UNL     1      29.466  46.027  56.361  1.00  0.00     0.004 A 
HETATM   15  C   UNL     1      28.889  45.621  55.156  1.00  0.00     0.037 A 
ENDBRANCH   8   9
ENDBRANCH   5   8
ENDBRANCH   2   5
BRANCH   1  16
HETATM   16  C   UNL     1      24.537  42.931  50.809  1.00  0.00     0.060 A 
HETATM   17  C   UNL     1      23.579  43.942  50.780  1.00  0.00     0.050 A 
HETATM   18  C   UNL     1      22.624  43.920  49.779  1.00  0.00     0.119 A 
HETATM   19  N   UNL     1      22.552  42.965  48.827  1.00  0.00    -0.264 NA
HETATM   20  C   UNL     1      23.483  41.978  48.854  1.00  0.00     0.054 A 
HETATM   21  C   UNL     1      23.335  40.918  47.802  1.00  0.00     0.072 C 
HETATM   22  C   UNL     1      24.498  41.936  49.816  1.00  0.00     0.085 A 
HETATM   23 CL   UNL     1      25.670  40.657  49.823  1.00  0.00    -0.080 Cl
ENDBRANCH   1  16
TORSDOF 4
ENDMDL
MODEL 8
REMARK VINA RESULT:      -7.9      2.437      7.032
REMARK  4 active torsions:
REMARK  status: ('A' for Active; 'I' for Inactive)
REMARK    1  A    between atoms: C_6  and  N_7 
REMARK       I    between atoms: N_7  and  C_8 
REMARK    2  A    between atoms: C_8  and  C_9 
REMARK    3  A    between atoms: C_9  and  O_10 
REMARK    4  A    between atoms: O_10  and  C_11 
ROOT
HETATM    1  N   UNL     1      26.744  44.327  52.711  1.00  0.00    -0.323 N 
HETATM    2  C   UNL     1      26.737  44.547  51.343  1.00  0.00     0.256 C 
HETATM    3  O   UNL     1      27.731  44.543  50.621  1.00  0.00    -0.270 OA
HETATM    4  H   UNL     1      25.840  44.293  53.175  1.00  0.00     0.169 HD
ENDROOT
BRANCH   2   5
HETATM    5  C   UNL     1      25.310  44.770  50.765  1.00  0.00     0.141 C 
HETATM    6  C   UNL     1      25.234  44.448  49.263  1.00  0.00     0.057 C 
HETATM    7  C   UNL     1      24.369  43.772  51.477  1.00  0.00     0.057 C 
BRANCH   5   8
HETATM    8  O   UNL     1      24.760  46.059  51.065  1.00  0.00    -0.331 OA
BRANCH   8   9
HETATM    9  C   UNL     1      25.024  47.156  50.297  1.00  0.00     0.072 A 
HETATM   10  C   UNL     1      26.264  47.753  50.085  1.00  0.00     0.060 A 
HETATM   11  C   UNL     1      26.365  48.877  49.259  1.00  0.00     0.036 A 
HETATM   12 CL   UNL     1      27.905  49.598  48.987  1.00  0.00    -0.084 Cl
HETATM   13  C   UNL     1      25.237  49.420  48.648  1.00  0.00     0.024 A 
HETATM   14  C   UNL     1      23.992  48.839  48.872  1.00  0.00     0.004 A 
HETATM   15  C   UNL     1      23.890  47.716  49.696  1.00  0.00     0.037 A 
ENDBRANCH   8   9
ENDBRANCH   5   8
ENDBRANCH   2   5
BRANCH   1  16
HETATM   16  C   UNL     1      27.860  44.057  53.542  1.00  0.00     0.060 A 
HETATM   17  C   UNL     1      28.540  42.841  53.517  1.00  0.00     0.050 A 
HETATM   18  C   UNL     1      29.616  42.668  54.369  1.00  0.00     0.119 A 
HETATM   19  N   UNL     1      30.045  43.605  55.241  1.00  0.00    -0.264 NA
HETATM   20  C   UNL     1      29.384  44.789  55.268  1.00  0.00     0.054 A 
HETATM   21  C   UNL     1      29.872  45.782  56.284  1.00  0.00     0.072 C 
HETATM   22  C   UNL     1      28.300  45.058  54.426  1.00  0.00     0.085 A 
HETATM   23 CL   UNL     1      27.475  46.583  54.490  1.00  0.00    -0.080 Cl
ENDBRANCH   1  16
TORSDOF 4
ENDMDL
MODEL 9
REMARK VINA RESULT:      -7.9      2.226      2.881
REMARK  4 active torsions:
REMARK  status: ('A' for Active; 'I' for Inactive)
REMARK    1  A    between atoms: C_6  and  N_7 
REMARK       I    between atoms: N_7  and  C_8 
REMARK    2  A    between atoms: C_8  and  C_9 
REMARK    3  A    between atoms: C_9  and  O_10 
REMARK    4  A    between atoms: O_10  and  C_11 
ROOT
HETATM    1  N   UNL     1      26.125  45.073  51.609  1.00  0.00    -0.323 N 
HETATM    2  C   UNL     1      25.866  44.524  52.855  1.00  0.00     0.256 C 
HETATM    3  O   UNL     1      24.793  44.596  53.449  1.00  0.00    -0.270 OA
HETATM    4  H   UNL     1      27.038  44.881  51.204  1.00  0.00     0.169 HD
ENDROOT
BRANCH   2   5
HETATM    5  C   UNL     1      27.077  43.748  53.447  1.00  0.00     0.141 C 
HETATM    6  C   UNL     1      26.751  43.114  54.810  1.00  0.00     0.057 C 
HETATM    7  C   UNL     1      27.388  42.583  52.481  1.00  0.00     0.057 C 
BRANCH   5   8
HETATM    8  O   UNL     1      28.289  44.513  53.489  1.00  0.00    -0.331 OA
BRANCH   8   9
HETATM    9  C   UNL     1      29.139  44.466  54.555  1.00  0.00     0.072 A 
HETATM   10  C   UNL     1      29.183  45.349  55.632  1.00  0.00     0.060 A 
HETATM   11  C   UNL     1      30.119  45.156  56.654  1.00  0.00     0.036 A 
HETATM   12 CL   UNL     1      30.155  46.241  57.990  1.00  0.00    -0.084 Cl
HETATM   13  C   UNL     1      31.020  44.095  56.608  1.00  0.00     0.024 A 
HETATM   14  C   UNL     1      30.994  43.221  55.525  1.00  0.00     0.004 A 
HETATM   15  C   UNL     1      30.059  43.412  54.504  1.00  0.00     0.037 A 
ENDBRANCH   8   9
ENDBRANCH   5   8
ENDBRANCH   2   5
BRANCH   1  16
HETATM   16  C   UNL     1      25.239  45.805  50.781  1.00  0.00     0.060 A 
HETATM   17  C   UNL     1      25.208  47.198  50.758  1.00  0.00     0.050 A 
HETATM   18  C   UNL     1      24.305  47.826  49.920  1.00  0.00     0.119 A 
HETATM   19  N   UNL     1      23.432  47.171  49.125  1.00  0.00    -0.264 NA
HETATM   20  C   UNL     1      23.459  45.814  49.146  1.00  0.00     0.054 A 
HETATM   21  C   UNL     1      22.442  45.132  48.277  1.00  0.00     0.072 C 
HETATM   22  C   UNL     1      24.355  45.098  49.946  1.00  0.00     0.085 A 
HETATM   23 CL   UNL     1      24.358  43.363  49.951  1.00  0.00    -0.080 Cl
ENDBRANCH   1  16
TORSDOF 4
ENDMDL
MODEL 10
REMARK VINA RESULT:      -7.7      4.204      6.884
REMARK  4 active torsions:
REMARK  status: ('A' for Active; 'I' for Inactive)
REMARK    1  A    between atoms: C_6  and  N_7 
REMARK       I    between atoms: N_7  and  C_8 
REMARK    2  A    between atoms: C_8  and  C_9 
REMARK    3  A    between atoms: C_9  and  O_10 
REMARK    4  A    between atoms: O_10  and  C_11 
ROOT
HETATM    1  N   UNL     1      27.512  42.015  50.390  1.00  0.00    -0.323 N 
HETATM    2  C   UNL     1      26.213  42.311  50.771  1.00  0.00     0.256 C 
HETATM    3  O   UNL     1      25.258  41.542  50.683  1.00  0.00    -0.270 OA
HETATM    4  H   UNL     1      28.218  42.722  50.580  1.00  0.00     0.169 HD
ENDROOT
BRANCH   2   5
HETATM    5  C   UNL     1      26.061  43.735  51.378  1.00  0.00     0.141 C 
HETATM    6  C   UNL     1      27.122  44.711  50.841  1.00  0.00     0.057 C 
HETATM    7  C   UNL     1      24.689  44.281  50.921  1.00  0.00     0.057 C 
BRANCH   5   8
HETATM    8  O   UNL     1      25.995  43.749  52.809  1.00  0.00    -0.331 OA
BRANCH   8   9
HETATM    9  C   UNL     1      27.034  44.186  53.578  1.00  0.00     0.072 A 
HETATM   10  C   UNL     1      28.198  43.486  53.890  1.00  0.00     0.060 A 
HETATM   11  C   UNL     1      29.176  44.083  54.693  1.00  0.00     0.036 A 
HETATM   12 CL   UNL     1      30.619  43.219  55.060  1.00  0.00    -0.084 Cl
HETATM   13  C   UNL     1      29.001  45.370  55.198  1.00  0.00     0.024 A 
HETATM   14  C   UNL     1      27.831  46.066  54.905  1.00  0.00     0.004 A 
HETATM   15  C   UNL     1      26.854  45.471  54.103  1.00  0.00     0.037 A 
ENDBRANCH   8   9
ENDBRANCH   5   8
ENDBRANCH   2   5
BRANCH   1  16
HETATM   16  C   UNL     1      28.002  40.804  49.840  1.00  0.00     0.060 A 
HETATM   17  C   UNL     1      27.816  40.456  48.504  1.00  0.00     0.050 A 
HETATM   18  C   UNL     1      28.327  39.250  48.057  1.00  0.00     0.119 A 
HETATM   19  N   UNL     1      28.988  38.375  48.843  1.00  0.00    -0.264 NA
HETATM   20  C   UNL     1      29.170  38.711  50.145  1.00  0.00     0.054 A 
HETATM   21  C   UNL     1      29.873  37.687  50.988  1.00  0.00     0.072 C 
HETATM   22  C   UNL     1      28.707  39.920  50.676  1.00  0.00     0.085 A 
HETATM   23 CL   UNL     1      28.953  40.316  52.347  1.00  0.00    -0.080 Cl
ENDBRANCH   1  16
TORSDOF 4
ENDMDL
