MODEL 1
REMARK VINA RESULT:      -8.6      0.000      0.000
REMARK  7 active torsions:
REMARK  status: ('A' for Active; 'I' for Inactive)
REMARK    1  A    between atoms: C_8  and  C_9 
REMARK    2  A    between atoms: C_9  and  C_10 
REMARK    3  A    between atoms: C_10  and  C_11 
REMARK       I    between atoms: C_11  and  N_12 
REMARK    4  A    between atoms: N_12  and  C_13 
REMARK    5  A    between atoms: C_13  and  C_14 
REMARK    6  A    between atoms: C_14  and  C_15 
REMARK    7  A    between atoms: C_16  and  O_17 
ROOT
HETATM    1  C   UNL     1      26.556  47.501  54.428  1.00  0.00     0.217 C 
HETATM    2  N   UNL     1      26.363  46.739  53.296  1.00  0.00    -0.360 N 
HETATM    3  O   UNL     1      25.778  48.370  54.808  1.00  0.00    -0.274 OA
HETATM    4  H   UNL     1      27.131  46.162  52.974  1.00  0.00     0.162 HD
ENDROOT
BRANCH   2   5
HETATM    5  C   UNL     1      25.289  47.002  52.357  1.00  0.00     0.137 C 
BRANCH   5   6
HETATM    6  C   UNL     1      25.567  46.517  50.909  1.00  0.00     0.005 C 
HETATM    7  C   UNL     1      26.705  45.459  50.846  1.00  0.00     0.016 C 
HETATM    8  C   UNL     1      26.464  44.692  49.547  1.00  0.00     0.001 C 
HETATM    9  C   UNL     1      24.957  44.749  49.317  1.00  0.00     0.001 C 
HETATM   10  C   UNL     1      24.406  45.559  50.488  1.00  0.00     0.016 C 
BRANCH   6  11
HETATM   11  C   UNL     1      25.758  47.731  49.959  1.00  0.00    -0.015 A 
HETATM   12  C   UNL     1      24.682  48.409  49.330  1.00  0.00     0.075 A 
HETATM   13  C   UNL     1      24.930  49.499  48.478  1.00  0.00     0.037 A 
HETATM   14  C   UNL     1      26.230  49.925  48.217  1.00  0.00     0.003 A 
HETATM   15  C   UNL     1      27.296  49.254  48.789  1.00  0.00     0.001 A 
HETATM   16  C   UNL     1      27.063  48.168  49.635  1.00  0.00     0.011 A 
BRANCH  12  17
HETATM   17  O   UNL     1      23.417  47.924  49.548  1.00  0.00    -0.355 OA
HETATM   18  C   UNL     1      22.317  48.700  49.094  1.00  0.00     0.210 C 
ENDBRANCH  12  17
ENDBRANCH   6  11
ENDBRANCH   5   6
ENDBRANCH   2   5
BRANCH   1  19
HETATM   19  C   UNL     1      27.790  47.098  55.206  1.00  0.00     0.107 C 
BRANCH  19  20
HETATM   20  C   UNL     1      27.706  45.651  55.681  1.00  0.00     0.052 C 
BRANCH  20  21
HETATM   21  C   UNL     1      29.015  44.943  55.544  1.00  0.00    -0.008 A 
HETATM   22  C   UNL     1      29.409  44.035  54.578  1.00  0.00     0.032 A 
HETATM   23  C   UNL     1      28.714  43.474  53.398  1.00  0.00     0.070 C 
HETATM   24  N   UNL     1      30.688  43.677  54.902  1.00  0.00    -0.282 N 
HETATM   25  H   UNL     1      31.301  43.031  54.416  1.00  0.00     0.189 HD
HETATM   26  N   UNL     1      31.154  44.273  56.006  1.00  0.00    -0.179 NA
HETATM   27  C   UNL     1      30.145  45.056  56.404  1.00  0.00     0.059 A 
HETATM   28  C   UNL     1      30.288  45.899  57.618  1.00  0.00     0.073 C 
ENDBRANCH  20  21
ENDBRANCH  19  20
ENDBRANCH   1  19
TORSDOF 7
ENDMDL
MODEL 2
REMARK VINA RESULT:      -8.2      1.180      2.555
REMARK  7 active torsions:
REMARK  status: ('A' for Active; 'I' for Inactive)
REMARK    1  A    between atoms: C_8  and  C_9 
REMARK    2  A    between atoms: C_9  and  C_10 
REMARK    3  A    between atoms: C_10  and  C_11 
REMARK       I    between atoms: C_11  and  N_12 
REMARK    4  A    between atoms: N_12  and  C_13 
REMARK    5  A    between atoms: C_13  and  C_14 
REMARK    6  A    between atoms: C_14  and  C_15 
REMARK    7  A    between atoms: C_16  and  O_17 
ROOT
HETATM    1  C   UNL     1      26.800  47.148  54.371  1.00  0.00     0.217 C 
HETATM    2  N   UNL     1      26.485  46.625  53.135  1.00  0.00    -0.360 N 
HETATM    3  O   UNL     1      26.110  47.973  54.961  1.00  0.00    -0.274 OA
HETATM    4  H   UNL     1      27.189  46.077  52.657  1.00  0.00     0.162 HD
ENDROOT
BRANCH   2   5
HETATM    5  C   UNL     1      25.376  47.121  52.343  1.00  0.00     0.137 C 
BRANCH   5   6
HETATM    6  C   UNL     1      25.300  46.539  50.905  1.00  0.00     0.005 C 
HETATM    7  C   UNL     1      26.606  45.800  50.496  1.00  0.00     0.016 C 
HETATM    8  C   UNL     1      26.186  44.836  49.387  1.00  0.00     0.001 C 
HETATM    9  C   UNL     1      24.732  44.484  49.686  1.00  0.00     0.001 C 
HETATM   10  C   UNL     1      24.382  45.276  50.944  1.00  0.00     0.016 C 
BRANCH   6  11
HETATM   11  C   UNL     1      24.831  47.629  49.903  1.00  0.00    -0.015 A 
HETATM   12  C   UNL     1      25.695  48.612  49.356  1.00  0.00     0.075 A 
HETATM   13  C   UNL     1      25.199  49.572  48.457  1.00  0.00     0.037 A 
HETATM   14  C   UNL     1      23.854  49.592  48.098  1.00  0.00     0.003 A 
HETATM   15  C   UNL     1      22.986  48.666  48.649  1.00  0.00     0.001 A 
HETATM   16  C   UNL     1      23.466  47.709  49.545  1.00  0.00     0.011 A 
BRANCH  12  17
HETATM   17  O   UNL     1      26.999  48.614  49.783  1.00  0.00    -0.355 OA
HETATM   18  C   UNL     1      27.939  49.392  49.053  1.00  0.00     0.210 C 
ENDBRANCH  12  17
ENDBRANCH   6  11
ENDBRANCH   5   6
ENDBRANCH   2   5
BRANCH   1  19
HETATM   19  C   UNL     1      28.049  46.535  54.968  1.00  0.00     0.107 C 
BRANCH  19  20
HETATM   20  C   UNL     1      27.823  45.081  55.370  1.00  0.00     0.052 C 
BRANCH  20  21
HETATM   21  C   UNL     1      28.806  44.163  54.718  1.00  0.00    -0.008 A 
HETATM   22  C   UNL     1      30.116  43.906  55.078  1.00  0.00     0.032 A 
HETATM   23  C   UNL     1      30.965  44.418  56.178  1.00  0.00     0.070 C 
HETATM   24  N   UNL     1      30.584  43.003  54.164  1.00  0.00    -0.282 N 
HETATM   25  H   UNL     1      31.506  42.582  54.114  1.00  0.00     0.189 HD
HETATM   26  N   UNL     1      29.686  42.660  53.234  1.00  0.00    -0.179 NA
HETATM   27  C   UNL     1      28.592  43.354  53.566  1.00  0.00     0.059 A 
HETATM   28  C   UNL     1      27.353  43.230  52.755  1.00  0.00     0.073 C 
ENDBRANCH  20  21
ENDBRANCH  19  20
ENDBRANCH   1  19
TORSDOF 7
ENDMDL
MODEL 3
REMARK VINA RESULT:      -8.0      2.668      4.106
REMARK  7 active torsions:
REMARK  status: ('A' for Active; 'I' for Inactive)
REMARK    1  A    between atoms: C_8  and  C_9 
REMARK    2  A    between atoms: C_9  and  C_10 
REMARK    3  A    between atoms: C_10  and  C_11 
REMARK       I    between atoms: C_11  and  N_12 
REMARK    4  A    between atoms: N_12  and  C_13 
REMARK    5  A    between atoms: C_13  and  C_14 
REMARK    6  A    between atoms: C_14  and  C_15 
REMARK    7  A    between atoms: C_16  and  O_17 
ROOT
HETATM    1  C   UNL     1      28.514  42.085  52.992  1.00  0.00     0.217 C 
HETATM    2  N   UNL     1      27.604  42.789  52.233  1.00  0.00    -0.360 N 
HETATM    3  O   UNL     1      29.137  41.111  52.582  1.00  0.00    -0.274 OA
HETATM    4  H   UNL     1      27.022  43.473  52.701  1.00  0.00     0.162 HD
ENDROOT
BRANCH   2   5
HETATM    5  C   UNL     1      27.182  42.346  50.918  1.00  0.00     0.137 C 
BRANCH   5   6
HETATM    6  C   UNL     1      25.931  43.078  50.363  1.00  0.00     0.005 C 
HETATM    7  C   UNL     1      25.691  42.780  48.856  1.00  0.00     0.016 C 
HETATM    8  C   UNL     1      24.205  43.054  48.628  1.00  0.00     0.001 C 
HETATM    9  C   UNL     1      23.529  42.757  49.962  1.00  0.00     0.001 C 
HETATM   10  C   UNL     1      24.661  42.340  50.898  1.00  0.00     0.016 C 
BRANCH   6  11
HETATM   11  C   UNL     1      25.981  44.588  50.724  1.00  0.00    -0.015 A 
HETATM   12  C   UNL     1      25.566  45.106  51.978  1.00  0.00     0.075 A 
HETATM   13  C   UNL     1      25.636  46.487  52.234  1.00  0.00     0.037 A 
HETATM   14  C   UNL     1      26.093  47.375  51.264  1.00  0.00     0.003 A 
HETATM   15  C   UNL     1      26.466  46.895  50.021  1.00  0.00     0.001 A 
HETATM   16  C   UNL     1      26.399  45.527  49.753  1.00  0.00     0.011 A 
BRANCH  12  17
HETATM   17  O   UNL     1      25.052  44.218  52.889  1.00  0.00    -0.355 OA
HETATM   18  C   UNL     1      25.176  44.532  54.270  1.00  0.00     0.210 C 
ENDBRANCH  12  17
ENDBRANCH   6  11
ENDBRANCH   5   6
ENDBRANCH   2   5
BRANCH   1  19
HETATM   19  C   UNL     1      28.730  42.689  54.363  1.00  0.00     0.107 C 
BRANCH  19  20
HETATM   20  C   UNL     1      30.052  43.445  54.441  1.00  0.00     0.052 C 
BRANCH  20  21
HETATM   21  C   UNL     1      30.091  44.381  55.605  1.00  0.00    -0.008 A 
HETATM   22  C   UNL     1      29.384  45.554  55.793  1.00  0.00     0.032 A 
HETATM   23  C   UNL     1      28.389  46.261  54.956  1.00  0.00     0.070 C 
HETATM   24  N   UNL     1      29.779  46.038  57.009  1.00  0.00    -0.282 N 
HETATM   25  H   UNL     1      29.468  46.881  57.480  1.00  0.00     0.189 HD
HETATM   26  N   UNL     1      30.693  45.277  57.623  1.00  0.00    -0.179 NA
HETATM   27  C   UNL     1      30.886  44.257  56.780  1.00  0.00     0.059 A 
HETATM   28  C   UNL     1      31.847  43.177  57.122  1.00  0.00     0.073 C 
ENDBRANCH  20  21
ENDBRANCH  19  20
ENDBRANCH   1  19
TORSDOF 7
ENDMDL
MODEL 4
REMARK VINA RESULT:      -7.9      2.330      7.635
REMARK  7 active torsions:
REMARK  status: ('A' for Active; 'I' for Inactive)
REMARK    1  A    between atoms: C_8  and  C_9 
REMARK    2  A    between atoms: C_9  and  C_10 
REMARK    3  A    between atoms: C_10  and  C_11 
REMARK       I    between atoms: C_11  and  N_12 
REMARK    4  A    between atoms: N_12  and  C_13 
REMARK    5  A    between atoms: C_13  and  C_14 
REMARK    6  A    between atoms: C_14  and  C_15 
REMARK    7  A    between atoms: C_16  and  O_17 
ROOT
HETATM    1  C   UNL     1      25.676  46.406  51.816  1.00  0.00     0.217 C 
HETATM    2  N   UNL     1      26.311  45.209  52.067  1.00  0.00    -0.360 N 
HETATM    3  O   UNL     1      25.388  47.223  52.685  1.00  0.00    -0.274 OA
HETATM    4  H   UNL     1      26.363  44.531  51.316  1.00  0.00     0.162 HD
ENDROOT
BRANCH   2   5
HETATM    5  C   UNL     1      26.561  44.731  53.413  1.00  0.00     0.137 C 
BRANCH   5   6
HETATM    6  C   UNL     1      27.751  43.741  53.534  1.00  0.00     0.005 C 
HETATM    7  C   UNL     1      27.282  42.277  53.767  1.00  0.00     0.016 C 
HETATM    8  C   UNL     1      28.444  41.406  53.291  1.00  0.00     0.001 C 
HETATM    9  C   UNL     1      29.131  42.214  52.194  1.00  0.00     0.001 C 
HETATM   10  C   UNL     1      28.341  43.516  52.104  1.00  0.00     0.016 C 
BRANCH   6  11
HETATM   11  C   UNL     1      28.787  44.262  54.567  1.00  0.00    -0.015 A 
HETATM   12  C   UNL     1      28.771  45.579  55.094  1.00  0.00     0.075 A 
HETATM   13  C   UNL     1      29.744  45.983  56.025  1.00  0.00     0.037 A 
HETATM   14  C   UNL     1      30.751  45.113  56.435  1.00  0.00     0.003 A 
HETATM   15  C   UNL     1      30.808  43.836  55.904  1.00  0.00     0.001 A 
HETATM   16  C   UNL     1      29.848  43.423  54.978  1.00  0.00     0.011 A 
BRANCH  12  17
HETATM   17  O   UNL     1      27.812  46.438  54.619  1.00  0.00    -0.355 OA
HETATM   18  C   UNL     1      27.956  47.823  54.904  1.00  0.00     0.210 C 
ENDBRANCH  12  17
ENDBRANCH   6  11
ENDBRANCH   5   6
ENDBRANCH   2   5
BRANCH   1  19
HETATM   19  C   UNL     1      25.444  46.652  50.340  1.00  0.00     0.107 C 
BRANCH  19  20
HETATM   20  C   UNL     1      24.529  47.850  50.108  1.00  0.00     0.052 C 
BRANCH  20  21
HETATM   21  C   UNL     1      25.082  48.782  49.079  1.00  0.00    -0.008 A 
HETATM   22  C   UNL     1      26.404  49.089  48.814  1.00  0.00     0.032 A 
HETATM   23  C   UNL     1      27.673  48.628  49.421  1.00  0.00     0.070 C 
HETATM   24  N   UNL     1      26.380  49.994  47.790  1.00  0.00    -0.282 N 
HETATM   25  H   UNL     1      27.165  50.441  47.328  1.00  0.00     0.189 HD
HETATM   26  N   UNL     1      25.147  50.306  47.373  1.00  0.00    -0.179 NA
HETATM   27  C   UNL     1      24.345  49.566  48.146  1.00  0.00     0.059 A 
HETATM   28  C   UNL     1      22.871  49.634  47.975  1.00  0.00     0.073 C 
ENDBRANCH  20  21
ENDBRANCH  19  20
ENDBRANCH   1  19
TORSDOF 7
ENDMDL
MODEL 5
REMARK VINA RESULT:      -7.8     11.792     13.298
REMARK  7 active torsions:
REMARK  status: ('A' for Active; 'I' for Inactive)
REMARK    1  A    between atoms: C_8  and  C_9 
REMARK    2  A    between atoms: C_9  and  C_10 
REMARK    3  A    between atoms: C_10  and  C_11 
REMARK       I    between atoms: C_11  and  N_12 
REMARK    4  A    between atoms: N_12  and  C_13 
REMARK    5  A    between atoms: C_13  and  C_14 
REMARK    6  A    between atoms: C_14  and  C_15 
REMARK    7  A    between atoms: C_16  and  O_17 
ROOT
HETATM    1  C   UNL     1      32.706  48.047  41.198  1.00  0.00     0.217 C 
HETATM    2  N   UNL     1      31.577  48.836  41.238  1.00  0.00    -0.360 N 
HETATM    3  O   UNL     1      32.694  46.850  40.931  1.00  0.00    -0.274 OA
HETATM    4  H   UNL     1      31.662  49.769  41.622  1.00  0.00     0.162 HD
ENDROOT
BRANCH   2   5
HETATM    5  C   UNL     1      30.241  48.286  41.118  1.00  0.00     0.137 C 
BRANCH   5   6
HETATM    6  C   UNL     1      29.219  49.222  40.417  1.00  0.00     0.005 C 
HETATM    7  C   UNL     1      28.908  48.773  38.961  1.00  0.00     0.016 C 
HETATM    8  C   UNL     1      27.543  49.380  38.641  1.00  0.00     0.001 C 
HETATM    9  C   UNL     1      26.815  49.467  39.979  1.00  0.00     0.001 C 
HETATM   10  C   UNL     1      27.804  48.919  41.006  1.00  0.00     0.016 C 
BRANCH   6  11
HETATM   11  C   UNL     1      29.657  50.705  40.559  1.00  0.00    -0.015 A 
HETATM   12  C   UNL     1      30.574  51.338  39.681  1.00  0.00     0.075 A 
HETATM   13  C   UNL     1      30.928  52.685  39.873  1.00  0.00     0.037 A 
HETATM   14  C   UNL     1      30.405  53.420  40.934  1.00  0.00     0.003 A 
HETATM   15  C   UNL     1      29.538  52.812  41.825  1.00  0.00     0.001 A 
HETATM   16  C   UNL     1      29.181  51.474  41.646  1.00  0.00     0.011 A 
BRANCH  12  17
HETATM   17  O   UNL     1      31.129  50.570  38.688  1.00  0.00    -0.355 OA
HETATM   18  C   UNL     1      32.196  51.126  37.932  1.00  0.00     0.210 C 
ENDBRANCH  12  17
ENDBRANCH   6  11
ENDBRANCH   5   6
ENDBRANCH   2   5
BRANCH   1  19
HETATM   19  C   UNL     1      33.980  48.829  41.435  1.00  0.00     0.107 C 
BRANCH  19  20
HETATM   20  C   UNL     1      33.773  50.322  41.200  1.00  0.00     0.052 C 
BRANCH  20  21
HETATM   21  C   UNL     1      34.301  51.143  42.332  1.00  0.00    -0.008 A 
HETATM   22  C   UNL     1      33.642  51.564  43.473  1.00  0.00     0.032 A 
HETATM   23  C   UNL     1      32.257  51.361  43.954  1.00  0.00     0.070 C 
HETATM   24  N   UNL     1      34.557  52.287  44.186  1.00  0.00    -0.282 N 
HETATM   25  H   UNL     1      34.432  52.749  45.081  1.00  0.00     0.189 HD
HETATM   26  N   UNL     1      35.754  52.378  43.596  1.00  0.00    -0.179 NA
HETATM   27  C   UNL     1      35.615  51.676  42.466  1.00  0.00     0.059 A 
HETATM   28  C   UNL     1      36.757  51.536  41.527  1.00  0.00     0.073 C 
ENDBRANCH  20  21
ENDBRANCH  19  20
ENDBRANCH   1  19
TORSDOF 7
ENDMDL
MODEL 6
REMARK VINA RESULT:      -7.7     11.770     13.475
REMARK  7 active torsions:
REMARK  status: ('A' for Active; 'I' for Inactive)
REMARK    1  A    between atoms: C_8  and  C_9 
REMARK    2  A    between atoms: C_9  and  C_10 
REMARK    3  A    between atoms: C_10  and  C_11 
REMARK       I    between atoms: C_11  and  N_12 
REMARK    4  A    between atoms: N_12  and  C_13 
REMARK    5  A    between atoms: C_13  and  C_14 
REMARK    6  A    between atoms: C_14  and  C_15 
REMARK    7  A    between atoms: C_16  and  O_17 
ROOT
HETATM    1  C   UNL     1      29.067  52.634  41.077  1.00  0.00     0.217 C 
HETATM    2  N   UNL     1      28.391  51.449  41.271  1.00  0.00    -0.360 N 
HETATM    3  O   UNL     1      28.643  53.560  40.394  1.00  0.00    -0.274 OA
HETATM    4  H   UNL     1      28.886  50.685  41.714  1.00  0.00     0.162 HD
ENDROOT
BRANCH   2   5
HETATM    5  C   UNL     1      27.173  51.125  40.554  1.00  0.00     0.137 C 
BRANCH   5   6
HETATM    6  C   UNL     1      27.272  49.864  39.653  1.00  0.00     0.005 C 
HETATM    7  C   UNL     1      26.146  48.834  39.951  1.00  0.00     0.016 C 
HETATM    8  C   UNL     1      26.023  48.000  38.677  1.00  0.00     0.001 C 
HETATM    9  C   UNL     1      26.432  48.933  37.542  1.00  0.00     0.001 C 
HETATM   10  C   UNL     1      26.786  50.254  38.220  1.00  0.00     0.016 C 
BRANCH   6  11
HETATM   11  C   UNL     1      28.711  49.281  39.694  1.00  0.00    -0.015 A 
HETATM   12  C   UNL     1      29.750  49.702  38.824  1.00  0.00     0.075 A 
HETATM   13  C   UNL     1      31.029  49.126  38.915  1.00  0.00     0.037 A 
HETATM   14  C   UNL     1      31.301  48.122  39.842  1.00  0.00     0.003 A 
HETATM   15  C   UNL     1      30.291  47.670  40.674  1.00  0.00     0.001 A 
HETATM   16  C   UNL     1      29.016  48.233  40.592  1.00  0.00     0.011 A 
BRANCH  12  17
HETATM   17  O   UNL     1      29.436  50.639  37.873  1.00  0.00    -0.355 OA
HETATM   18  C   UNL     1      30.315  51.745  37.709  1.00  0.00     0.210 C 
ENDBRANCH  12  17
ENDBRANCH   6  11
ENDBRANCH   5   6
ENDBRANCH   2   5
BRANCH   1  19
HETATM   19  C   UNL     1      30.357  52.711  41.866  1.00  0.00     0.107 C 
BRANCH  19  20
HETATM   20  C   UNL     1      31.110  51.384  41.840  1.00  0.00     0.052 C 
BRANCH  20  21
HETATM   21  C   UNL     1      32.554  51.556  42.184  1.00  0.00    -0.008 A 
HETATM   22  C   UNL     1      33.126  51.769  43.425  1.00  0.00     0.032 A 
HETATM   23  C   UNL     1      32.545  51.895  44.781  1.00  0.00     0.070 C 
HETATM   24  N   UNL     1      34.472  51.865  43.204  1.00  0.00    -0.282 N 
HETATM   25  H   UNL     1      35.210  52.017  43.883  1.00  0.00     0.189 HD
HETATM   26  N   UNL     1      34.819  51.739  41.918  1.00  0.00    -0.179 NA
HETATM   27  C   UNL     1      33.658  51.541  41.285  1.00  0.00     0.059 A 
HETATM   28  C   UNL     1      33.633  51.346  39.812  1.00  0.00     0.073 C 
ENDBRANCH  20  21
ENDBRANCH  19  20
ENDBRANCH   1  19
TORSDOF 7
ENDMDL
MODEL 7
REMARK VINA RESULT:      -7.6     11.921     14.311
REMARK  7 active torsions:
REMARK  status: ('A' for Active; 'I' for Inactive)
REMARK    1  A    between atoms: C_8  and  C_9 
REMARK    2  A    between atoms: C_9  and  C_10 
REMARK    3  A    between atoms: C_10  and  C_11 
REMARK       I    between atoms: C_11  and  N_12 
REMARK    4  A    between atoms: N_12  and  C_13 
REMARK    5  A    between atoms: C_13  and  C_14 
REMARK    6  A    between atoms: C_14  and  C_15 
REMARK    7  A    between atoms: C_16  and  O_17 
ROOT
HETATM    1  C   UNL     1      29.579  48.095  39.516  1.00  0.00     0.217 C 
HETATM    2  N   UNL     1      30.319  48.251  40.668  1.00  0.00    -0.360 N 
HETATM    3  O   UNL     1      30.014  48.308  38.389  1.00  0.00    -0.274 OA
HETATM    4  H   UNL     1      29.833  48.209  41.556  1.00  0.00     0.162 HD
ENDROOT
BRANCH   2   5
HETATM    5  C   UNL     1      31.646  48.836  40.664  1.00  0.00     0.137 C 
BRANCH   5   6
HETATM    6  C   UNL     1      31.794  50.104  41.547  1.00  0.00     0.005 C 
HETATM    7  C   UNL     1      31.742  49.778  43.066  1.00  0.00     0.016 C 
HETATM    8  C   UNL     1      32.456  50.944  43.748  1.00  0.00     0.001 C 
HETATM    9  C   UNL     1      33.478  51.443  42.732  1.00  0.00     0.001 C 
HETATM   10  C   UNL     1      33.291  50.549  41.508  1.00  0.00     0.016 C 
BRANCH   6  11
HETATM   11  C   UNL     1      30.799  51.204  41.086  1.00  0.00    -0.015 A 
HETATM   12  C   UNL     1      30.998  52.005  39.932  1.00  0.00     0.075 A 
HETATM   13  C   UNL     1      30.055  52.986  39.577  1.00  0.00     0.037 A 
HETATM   14  C   UNL     1      28.921  53.206  40.354  1.00  0.00     0.003 A 
HETATM   15  C   UNL     1      28.726  52.463  41.505  1.00  0.00     0.001 A 
HETATM   16  C   UNL     1      29.656  51.487  41.869  1.00  0.00     0.011 A 
BRANCH  12  17
HETATM   17  O   UNL     1      32.159  51.817  39.225  1.00  0.00    -0.355 OA
HETATM   18  C   UNL     1      32.071  51.196  37.950  1.00  0.00     0.210 C 
ENDBRANCH  12  17
ENDBRANCH   6  11
ENDBRANCH   5   6
ENDBRANCH   2   5
BRANCH   1  19
HETATM   19  C   UNL     1      28.191  47.549  39.778  1.00  0.00     0.107 C 
BRANCH  19  20
HETATM   20  C   UNL     1      27.317  48.565  40.506  1.00  0.00     0.052 C 
BRANCH  20  21
HETATM   21  C   UNL     1      26.217  49.080  39.634  1.00  0.00    -0.008 A 
HETATM   22  C   UNL     1      26.270  50.077  38.677  1.00  0.00     0.032 A 
HETATM   23  C   UNL     1      27.373  50.941  38.200  1.00  0.00     0.070 C 
HETATM   24  N   UNL     1      25.004  50.173  38.169  1.00  0.00    -0.282 N 
HETATM   25  H   UNL     1      24.665  50.796  37.444  1.00  0.00     0.189 HD
HETATM   26  N   UNL     1      24.132  49.324  38.724  1.00  0.00    -0.179 NA
HETATM   27  C   UNL     1      24.862  48.643  39.615  1.00  0.00     0.059 A 
HETATM   28  C   UNL     1      24.232  47.582  40.442  1.00  0.00     0.073 C 
ENDBRANCH  20  21
ENDBRANCH  19  20
ENDBRANCH   1  19
TORSDOF 7
ENDMDL
MODEL 8
REMARK VINA RESULT:      -7.6      3.690      6.468
REMARK  7 active torsions:
REMARK  status: ('A' for Active; 'I' for Inactive)
REMARK    1  A    between atoms: C_8  and  C_9 
REMARK    2  A    between atoms: C_9  and  C_10 
REMARK    3  A    between atoms: C_10  and  C_11 
REMARK       I    between atoms: C_11  and  N_12 
REMARK    4  A    between atoms: N_12  and  C_13 
REMARK    5  A    between atoms: C_13  and  C_14 
REMARK    6  A    between atoms: C_14  and  C_15 
REMARK    7  A    between atoms: C_16  and  O_17 
ROOT
HETATM    1  C   UNL     1      25.105  42.034  50.451  1.00  0.00     0.217 C 
HETATM    2  N   UNL     1      25.792  42.685  51.453  1.00  0.00    -0.360 N 
HETATM    3  O   UNL     1      24.042  42.428  49.982  1.00  0.00    -0.274 OA
HETATM    4  H   UNL     1      26.571  42.204  51.886  1.00  0.00     0.162 HD
ENDROOT
BRANCH   2   5
HETATM    5  C   UNL     1      25.237  43.823  52.160  1.00  0.00     0.137 C 
BRANCH   5   6
HETATM    6  C   UNL     1      25.827  45.195  51.734  1.00  0.00     0.005 C 
HETATM    7  C   UNL     1      26.829  45.067  50.552  1.00  0.00     0.016 C 
HETATM    8  C   UNL     1      26.852  46.449  49.900  1.00  0.00     0.001 C 
HETATM    9  C   UNL     1      25.469  47.039  50.153  1.00  0.00     0.001 C 
HETATM   10  C   UNL     1      24.721  45.974  50.952  1.00  0.00     0.016 C 
BRANCH   6  11
HETATM   11  C   UNL     1      26.378  45.955  52.971  1.00  0.00    -0.015 A 
HETATM   12  C   UNL     1      27.467  45.492  53.753  1.00  0.00     0.075 A 
HETATM   13  C   UNL     1      27.910  46.231  54.864  1.00  0.00     0.037 A 
HETATM   14  C   UNL     1      27.283  47.419  55.232  1.00  0.00     0.003 A 
HETATM   15  C   UNL     1      26.194  47.870  54.506  1.00  0.00     0.001 A 
HETATM   16  C   UNL     1      25.744  47.143  53.402  1.00  0.00     0.011 A 
BRANCH  12  17
HETATM   17  O   UNL     1      28.020  44.283  53.412  1.00  0.00    -0.355 OA
HETATM   18  C   UNL     1      29.201  43.874  54.088  1.00  0.00     0.210 C 
ENDBRANCH  12  17
ENDBRANCH   6  11
ENDBRANCH   5   6
ENDBRANCH   2   5
BRANCH   1  19
HETATM   19  C   UNL     1      25.843  40.821  49.924  1.00  0.00     0.107 C 
BRANCH  19  20
HETATM   20  C   UNL     1      27.293  41.151  49.584  1.00  0.00     0.052 C 
BRANCH  20  21
HETATM   21  C   UNL     1      28.232  40.089  50.058  1.00  0.00    -0.008 A 
HETATM   22  C   UNL     1      28.820  39.949  51.302  1.00  0.00     0.032 A 
HETATM   23  C   UNL     1      28.734  40.756  52.540  1.00  0.00     0.070 C 
HETATM   24  N   UNL     1      29.594  38.824  51.224  1.00  0.00    -0.282 N 
HETATM   25  H   UNL     1      30.171  38.409  51.948  1.00  0.00     0.189 HD
HETATM   26  N   UNL     1      29.562  38.228  50.027  1.00  0.00    -0.179 NA
HETATM   27  C   UNL     1      28.727  38.984  49.307  1.00  0.00     0.059 A 
HETATM   28  C   UNL     1      28.425  38.630  47.897  1.00  0.00     0.073 C 
ENDBRANCH  20  21
ENDBRANCH  19  20
ENDBRANCH   1  19
TORSDOF 7
ENDMDL
MODEL 9
REMARK VINA RESULT:      -7.6      3.649      5.468
REMARK  7 active torsions:
REMARK  status: ('A' for Active; 'I' for Inactive)
REMARK    1  A    between atoms: C_8  and  C_9 
REMARK    2  A    between atoms: C_9  and  C_10 
REMARK    3  A    between atoms: C_10  and  C_11 
REMARK       I    between atoms: C_11  and  N_12 
REMARK    4  A    between atoms: N_12  and  C_13 
REMARK    5  A    between atoms: C_13  and  C_14 
REMARK    6  A    between atoms: C_14  and  C_15 
REMARK    7  A    between atoms: C_16  and  O_17 
ROOT
HETATM    1  C   UNL     1      27.877  41.258  52.516  1.00  0.00     0.217 C 
HETATM    2  N   UNL     1      26.715  41.193  51.778  1.00  0.00    -0.360 N 
HETATM    3  O   UNL     1      28.851  40.538  52.323  1.00  0.00    -0.274 OA
HETATM    4  H   UNL     1      25.910  41.711  52.110  1.00  0.00     0.162 HD
ENDROOT
BRANCH   2   5
HETATM    5  C   UNL     1      26.477  40.153  50.796  1.00  0.00     0.137 C 
BRANCH   5   6
HETATM    6  C   UNL     1      26.502  40.640  49.322  1.00  0.00     0.005 C 
HETATM    7  C   UNL     1      27.940  40.975  48.834  1.00  0.00     0.016 C 
HETATM    8  C   UNL     1      27.879  40.860  47.311  1.00  0.00     0.001 C 
HETATM    9  C   UNL     1      26.800  39.821  47.026  1.00  0.00     0.001 C 
HETATM   10  C   UNL     1      26.282  39.399  48.399  1.00  0.00     0.016 C 
BRANCH   6  11
HETATM   11  C   UNL     1      25.465  41.776  49.109  1.00  0.00    -0.015 A 
HETATM   12  C   UNL     1      25.782  43.155  49.214  1.00  0.00     0.075 A 
HETATM   13  C   UNL     1      24.789  44.129  49.012  1.00  0.00     0.037 A 
HETATM   14  C   UNL     1      23.475  43.767  48.725  1.00  0.00     0.003 A 
HETATM   15  C   UNL     1      23.136  42.427  48.657  1.00  0.00     0.001 A 
HETATM   16  C   UNL     1      24.112  41.450  48.857  1.00  0.00     0.011 A 
BRANCH  12  17
HETATM   17  O   UNL     1      27.066  43.482  49.569  1.00  0.00    -0.355 OA
HETATM   18  C   UNL     1      27.264  44.642  50.367  1.00  0.00     0.210 C 
ENDBRANCH  12  17
ENDBRANCH   6  11
ENDBRANCH   5   6
ENDBRANCH   2   5
BRANCH   1  19
HETATM   19  C   UNL     1      27.861  42.373  53.541  1.00  0.00     0.107 C 
BRANCH  19  20
HETATM   20  C   UNL     1      29.147  43.192  53.498  1.00  0.00     0.052 C 
BRANCH  20  21
HETATM   21  C   UNL     1      29.188  44.222  54.580  1.00  0.00    -0.008 A 
HETATM   22  C   UNL     1      28.377  45.329  54.749  1.00  0.00     0.032 A 
HETATM   23  C   UNL     1      27.240  45.859  53.962  1.00  0.00     0.070 C 
HETATM   24  N   UNL     1      28.824  45.951  55.881  1.00  0.00    -0.282 N 
HETATM   25  H   UNL     1      28.467  46.795  56.316  1.00  0.00     0.189 HD
HETATM   26  N   UNL     1      29.867  45.341  56.457  1.00  0.00    -0.179 NA
HETATM   27  C   UNL     1      30.094  44.278  55.678  1.00  0.00     0.059 A 
HETATM   28  C   UNL     1      31.193  43.334  56.003  1.00  0.00     0.073 C 
ENDBRANCH  20  21
ENDBRANCH  19  20
ENDBRANCH   1  19
TORSDOF 7
ENDMDL
MODEL 10
REMARK VINA RESULT:      -7.6      3.348      5.463
REMARK  7 active torsions:
REMARK  status: ('A' for Active; 'I' for Inactive)
REMARK    1  A    between atoms: C_8  and  C_9 
REMARK    2  A    between atoms: C_9  and  C_10 
REMARK    3  A    between atoms: C_10  and  C_11 
REMARK       I    between atoms: C_11  and  N_12 
REMARK    4  A    between atoms: N_12  and  C_13 
REMARK    5  A    between atoms: C_13  and  C_14 
REMARK    6  A    between atoms: C_14  and  C_15 
REMARK    7  A    between atoms: C_16  and  O_17 
ROOT
HETATM    1  C   UNL     1      28.535  42.676  53.041  1.00  0.00     0.217 C 
HETATM    2  N   UNL     1      27.214  42.439  52.729  1.00  0.00    -0.360 N 
HETATM    3  O   UNL     1      29.457  42.573  52.238  1.00  0.00    -0.274 OA
HETATM    4  H   UNL     1      26.547  42.391  53.489  1.00  0.00     0.162 HD
ENDROOT
BRANCH   2   5
HETATM    5  C   UNL     1      26.805  41.891  51.451  1.00  0.00     0.137 C 
BRANCH   5   6
HETATM    6  C   UNL     1      26.011  42.877  50.552  1.00  0.00     0.005 C 
HETATM    7  C   UNL     1      25.056  43.789  51.373  1.00  0.00     0.016 C 
HETATM    8  C   UNL     1      24.822  45.015  50.492  1.00  0.00     0.001 C 
HETATM    9  C   UNL     1      26.091  45.164  49.659  1.00  0.00     0.001 C 
HETATM   10  C   UNL     1      26.988  44.006  50.091  1.00  0.00     0.016 C 
BRANCH   6  11
HETATM   11  C   UNL     1      25.331  42.116  49.381  1.00  0.00    -0.015 A 
HETATM   12  C   UNL     1      26.046  41.567  48.285  1.00  0.00     0.075 A 
HETATM   13  C   UNL     1      25.363  40.893  47.258  1.00  0.00     0.037 A 
HETATM   14  C   UNL     1      23.977  40.765  47.280  1.00  0.00     0.003 A 
HETATM   15  C   UNL     1      23.256  41.326  48.320  1.00  0.00     0.001 A 
HETATM   16  C   UNL     1      23.923  41.999  49.346  1.00  0.00     0.011 A 
BRANCH  12  17
HETATM   17  O   UNL     1      27.403  41.771  48.251  1.00  0.00    -0.355 OA
HETATM   18  C   UNL     1      28.247  40.632  48.153  1.00  0.00     0.210 C 
ENDBRANCH  12  17
ENDBRANCH   6  11
ENDBRANCH   5   6
ENDBRANCH   2   5
BRANCH   1  19
HETATM   19  C   UNL     1      28.727  43.162  54.462  1.00  0.00     0.107 C 
BRANCH  19  20
HETATM   20  C   UNL     1      30.129  43.721  54.680  1.00  0.00     0.052 C 
BRANCH  20  21
HETATM   21  C   UNL     1      30.221  44.522  55.938  1.00  0.00    -0.008 A 
HETATM   22  C   UNL     1      29.555  45.688  56.269  1.00  0.00     0.032 A 
HETATM   23  C   UNL     1      28.568  46.513  55.536  1.00  0.00     0.070 C 
HETATM   24  N   UNL     1      29.989  46.023  57.522  1.00  0.00    -0.282 N 
HETATM   25  H   UNL     1      29.715  46.818  58.089  1.00  0.00     0.189 HD
HETATM   26  N   UNL     1      30.890  45.172  58.028  1.00  0.00    -0.179 NA
HETATM   27  C   UNL     1      31.034  44.245  57.075  1.00  0.00     0.059 A 
HETATM   28  C   UNL     1      31.965  43.105  57.275  1.00  0.00     0.073 C 
ENDBRANCH  20  21
ENDBRANCH  19  20
ENDBRANCH   1  19
TORSDOF 7
ENDMDL
