MODEL 1
REMARK VINA RESULT:      -9.5      0.000      0.000
REMARK  5 active torsions:
REMARK  status: ('A' for Active; 'I' for Inactive)
REMARK    1  A    between atoms: O_2  and  C_3 
REMARK    2  A    between atoms: C_6  and  C_7 
REMARK    3  A    between atoms: C_11  and  N_12 
REMARK       I    between atoms: N_15  and  C_16 
REMARK    4  A    between atoms: C_16  and  C_17 
REMARK    5  A    between atoms: C_17  and  C_18 
ROOT
HETATM    1  N   UNL     1      25.793  47.637  50.238  1.00  0.00    -0.363 N 
HETATM    2  C   UNL     1      25.446  47.212  51.615  1.00  0.00     0.144 C 
HETATM    3  C   UNL     1      24.988  45.735  51.654  1.00  0.00     0.145 C 
HETATM    4  N   UNL     1      25.970  44.866  50.985  1.00  0.00    -0.349 N 
HETATM    5  C   UNL     1      26.962  44.152  51.646  1.00  0.00     0.224 C 
HETATM    6  O   UNL     1      27.996  43.799  51.071  1.00  0.00    -0.273 OA
HETATM    7  C   UNL     1      26.235  45.277  49.600  1.00  0.00     0.145 C 
HETATM    8  C   UNL     1      26.759  46.727  49.565  1.00  0.00     0.144 C 
ENDROOT
BRANCH   1   9
HETATM    9  C   UNL     1      24.884  48.327  49.489  1.00  0.00     0.122 A 
HETATM   10  N   UNL     1      25.268  49.142  48.456  1.00  0.00    -0.262 N 
HETATM   11  N   UNL     1      24.260  49.793  47.855  1.00  0.00    -0.173 NA
HETATM   12  H   UNL     1      26.213  49.328  48.143  1.00  0.00     0.191 HD
HETATM   13  C   UNL     1      23.168  49.399  48.529  1.00  0.00     0.090 A 
HETATM   14  C   UNL     1      23.520  48.489  49.566  1.00  0.00     0.084 A 
BRANCH  13  15
HETATM   15  C   UNL     1      21.840  49.911  48.201  1.00  0.00    -0.005 A 
HETATM   16  C   UNL     1      20.928  49.134  47.478  1.00  0.00     0.016 A 
HETATM   17  C   UNL     1      19.650  49.629  47.197  1.00  0.00     0.037 A 
HETATM   18  C   UNL     1      19.258  50.893  47.644  1.00  0.00     0.068 A 
HETATM   19  C   UNL     1      20.170  51.680  48.347  1.00  0.00     0.037 A 
HETATM   20  C   UNL     1      21.455  51.191  48.620  1.00  0.00     0.016 A 
BRANCH  18  21
HETATM   21  O   UNL     1      17.977  51.246  47.321  1.00  0.00    -0.356 OA
HETATM   22  C   UNL     1      17.108  51.543  48.408  1.00  0.00     0.210 C 
ENDBRANCH  18  21
ENDBRANCH  13  15
ENDBRANCH   1   9
BRANCH   5  23
HETATM   23  C   UNL     1      26.752  43.790  53.108  1.00  0.00     0.141 C 
BRANCH  23  24
HETATM   24  C   UNL     1      28.001  43.792  53.963  1.00  0.00    -0.049 A 
HETATM   25  C   UNL     1      28.836  42.668  54.075  1.00  0.00     0.009 A 
HETATM   26  C   UNL     1      29.962  42.696  54.903  1.00  0.00     0.019 A 
HETATM   27  C   UNL     1      30.247  43.837  55.646  1.00  0.00     0.011 A 
HETATM   28 BR   UNL     1      31.762  43.868  56.775  1.00  0.00    -0.051 Br
HETATM   29  C   UNL     1      29.415  44.951  55.572  1.00  0.00     0.019 A 
HETATM   30  C   UNL     1      28.296  44.925  54.736  1.00  0.00     0.009 A 
ENDBRANCH  23  24
ENDBRANCH   5  23
TORSDOF 5
ENDMDL
MODEL 2
REMARK VINA RESULT:      -9.4      1.949      2.565
REMARK  5 active torsions:
REMARK  status: ('A' for Active; 'I' for Inactive)
REMARK    1  A    between atoms: O_2  and  C_3 
REMARK    2  A    between atoms: C_6  and  C_7 
REMARK    3  A    between atoms: C_11  and  N_12 
REMARK       I    between atoms: N_15  and  C_16 
REMARK    4  A    between atoms: C_16  and  C_17 
REMARK    5  A    between atoms: C_17  and  C_18 
ROOT
HETATM    1  N   UNL     1      25.355  44.495  49.529  1.00  0.00    -0.363 N 
HETATM    2  C   UNL     1      26.711  45.022  49.815  1.00  0.00     0.144 C 
HETATM    3  C   UNL     1      26.955  45.160  51.336  1.00  0.00     0.145 C 
HETATM    4  N   UNL     1      26.638  43.902  52.031  1.00  0.00    -0.349 N 
HETATM    5  C   UNL     1      27.580  42.941  52.379  1.00  0.00     0.224 C 
HETATM    6  O   UNL     1      27.263  41.759  52.553  1.00  0.00    -0.273 OA
HETATM    7  C   UNL     1      25.264  43.449  51.779  1.00  0.00     0.145 C 
HETATM    8  C   UNL     1      25.040  43.244  50.267  1.00  0.00     0.144 C 
ENDROOT
BRANCH   1   9
HETATM    9  C   UNL     1      24.346  45.354  49.197  1.00  0.00     0.122 A 
HETATM   10  N   UNL     1      23.347  44.996  48.329  1.00  0.00    -0.262 N 
HETATM   11  N   UNL     1      22.464  45.971  48.064  1.00  0.00    -0.173 NA
HETATM   12  H   UNL     1      23.242  44.111  47.851  1.00  0.00     0.191 HD
HETATM   13  C   UNL     1      22.907  47.018  48.778  1.00  0.00     0.090 A 
HETATM   14  C   UNL     1      24.090  46.674  49.493  1.00  0.00     0.084 A 
BRANCH  13  15
HETATM   15  C   UNL     1      22.229  48.311  48.742  1.00  0.00    -0.005 A 
HETATM   16  C   UNL     1      20.931  48.429  48.233  1.00  0.00     0.016 A 
HETATM   17  C   UNL     1      20.285  49.671  48.233  1.00  0.00     0.037 A 
HETATM   18  C   UNL     1      20.915  50.804  48.752  1.00  0.00     0.068 A 
HETATM   19  C   UNL     1      22.216  50.696  49.243  1.00  0.00     0.037 A 
HETATM   20  C   UNL     1      22.869  49.456  49.233  1.00  0.00     0.016 A 
BRANCH  18  21
HETATM   21  O   UNL     1      20.166  51.947  48.712  1.00  0.00    -0.356 OA
HETATM   22  C   UNL     1      18.973  51.952  49.486  1.00  0.00     0.210 C 
ENDBRANCH  18  21
ENDBRANCH  13  15
ENDBRANCH   1   9
BRANCH   5  23
HETATM   23  C   UNL     1      29.028  43.367  52.559  1.00  0.00     0.141 C 
BRANCH  23  24
HETATM   24  C   UNL     1      29.399  43.834  53.951  1.00  0.00    -0.049 A 
HETATM   25  C   UNL     1      28.755  44.913  54.577  1.00  0.00     0.009 A 
HETATM   26  C   UNL     1      29.149  45.338  55.849  1.00  0.00     0.019 A 
HETATM   27  C   UNL     1      30.207  44.705  56.493  1.00  0.00     0.011 A 
HETATM   28 BR   UNL     1      30.748  45.290  58.208  1.00  0.00    -0.051 Br
HETATM   29  C   UNL     1      30.878  43.653  55.877  1.00  0.00     0.019 A 
HETATM   30  C   UNL     1      30.477  43.223  54.610  1.00  0.00     0.009 A 
ENDBRANCH  23  24
ENDBRANCH   5  23
TORSDOF 5
ENDMDL
MODEL 3
REMARK VINA RESULT:      -8.8      4.311     10.523
REMARK  5 active torsions:
REMARK  status: ('A' for Active; 'I' for Inactive)
REMARK    1  A    between atoms: O_2  and  C_3 
REMARK    2  A    between atoms: C_6  and  C_7 
REMARK    3  A    between atoms: C_11  and  N_12 
REMARK       I    between atoms: N_15  and  C_16 
REMARK    4  A    between atoms: C_16  and  C_17 
REMARK    5  A    between atoms: C_17  and  C_18 
ROOT
HETATM    1  N   UNL     1      24.438  44.044  51.182  1.00  0.00    -0.363 N 
HETATM    2  C   UNL     1      24.291  45.336  50.470  1.00  0.00     0.144 C 
HETATM    3  C   UNL     1      24.564  45.183  48.956  1.00  0.00     0.145 C 
HETATM    4  N   UNL     1      23.761  44.088  48.389  1.00  0.00    -0.349 N 
HETATM    5  C   UNL     1      22.546  44.265  47.738  1.00  0.00     0.224 C 
HETATM    6  O   UNL     1      21.715  43.354  47.663  1.00  0.00    -0.273 OA
HETATM    7  C   UNL     1      23.986  42.809  49.074  1.00  0.00     0.145 C 
HETATM    8  C   UNL     1      23.647  42.941  50.573  1.00  0.00     0.144 C 
ENDROOT
BRANCH   1   9
HETATM    9  C   UNL     1      25.600  43.756  51.838  1.00  0.00     0.122 A 
HETATM   10  N   UNL     1      26.209  42.533  51.728  1.00  0.00    -0.262 N 
HETATM   11  N   UNL     1      27.312  42.391  52.479  1.00  0.00    -0.173 NA
HETATM   12  H   UNL     1      25.892  41.739  51.188  1.00  0.00     0.191 HD
HETATM   13  C   UNL     1      27.427  43.565  53.120  1.00  0.00     0.090 A 
HETATM   14  C   UNL     1      26.367  44.443  52.752  1.00  0.00     0.084 A 
BRANCH  13  15
HETATM   15  C   UNL     1      28.503  43.814  54.075  1.00  0.00    -0.005 A 
HETATM   16  C   UNL     1      28.481  44.938  54.907  1.00  0.00     0.016 A 
HETATM   17  C   UNL     1      29.505  45.146  55.837  1.00  0.00     0.037 A 
HETATM   18  C   UNL     1      30.555  44.234  55.960  1.00  0.00     0.068 A 
HETATM   19  C   UNL     1      30.594  43.122  55.120  1.00  0.00     0.037 A 
HETATM   20  C   UNL     1      29.575  42.917  54.180  1.00  0.00     0.016 A 
BRANCH  18  21
HETATM   21  O   UNL     1      31.477  44.544  56.921  1.00  0.00    -0.356 OA
HETATM   22  C   UNL     1      30.968  45.043  58.152  1.00  0.00     0.210 C 
ENDBRANCH  18  21
ENDBRANCH  13  15
ENDBRANCH   1   9
BRANCH   5  23
HETATM   23  C   UNL     1      22.249  45.610  47.095  1.00  0.00     0.141 C 
BRANCH  23  24
HETATM   24  C   UNL     1      21.440  46.570  47.941  1.00  0.00    -0.049 A 
HETATM   25  C   UNL     1      20.103  46.321  48.288  1.00  0.00     0.009 A 
HETATM   26  C   UNL     1      19.377  47.248  49.042  1.00  0.00     0.019 A 
HETATM   27  C   UNL     1      19.974  48.443  49.430  1.00  0.00     0.011 A 
HETATM   28 BR   UNL     1      18.986  49.702  50.437  1.00  0.00    -0.051 Br
HETATM   29  C   UNL     1      21.289  48.722  49.071  1.00  0.00     0.019 A 
HETATM   30  C   UNL     1      22.016  47.790  48.327  1.00  0.00     0.009 A 
ENDBRANCH  23  24
ENDBRANCH   5  23
TORSDOF 5
ENDMDL
MODEL 4
REMARK VINA RESULT:      -8.8      4.166     10.814
REMARK  5 active torsions:
REMARK  status: ('A' for Active; 'I' for Inactive)
REMARK    1  A    between atoms: O_2  and  C_3 
REMARK    2  A    between atoms: C_6  and  C_7 
REMARK    3  A    between atoms: C_11  and  N_12 
REMARK       I    between atoms: N_15  and  C_16 
REMARK    4  A    between atoms: C_16  and  C_17 
REMARK    5  A    between atoms: C_17  and  C_18 
ROOT
HETATM    1  N   UNL     1      24.258  47.314  49.250  1.00  0.00    -0.363 N 
HETATM    2  C   UNL     1      22.848  47.050  48.878  1.00  0.00     0.144 C 
HETATM    3  C   UNL     1      21.921  48.209  49.314  1.00  0.00     0.145 C 
HETATM    4  N   UNL     1      22.439  49.501  48.834  1.00  0.00    -0.349 N 
HETATM    5  C   UNL     1      22.010  50.134  47.674  1.00  0.00     0.224 C 
HETATM    6  O   UNL     1      22.723  50.949  47.081  1.00  0.00    -0.273 OA
HETATM    7  C   UNL     1      23.814  49.758  49.281  1.00  0.00     0.145 C 
HETATM    8  C   UNL     1      24.753  48.638  48.788  1.00  0.00     0.144 C 
ENDROOT
BRANCH   1   9
HETATM    9  C   UNL     1      24.779  46.759  50.384  1.00  0.00     0.122 A 
HETATM   10  N   UNL     1      24.253  45.622  50.940  1.00  0.00    -0.262 N 
HETATM   11  N   UNL     1      24.843  45.237  52.082  1.00  0.00    -0.173 NA
HETATM   12  H   UNL     1      23.459  45.090  50.607  1.00  0.00     0.191 HD
HETATM   13  C   UNL     1      25.789  46.164  52.292  1.00  0.00     0.090 A 
HETATM   14  C   UNL     1      25.774  47.141  51.255  1.00  0.00     0.084 A 
BRANCH  13  15
HETATM   15  C   UNL     1      26.652  46.125  53.469  1.00  0.00    -0.005 A 
HETATM   16  C   UNL     1      27.345  44.959  53.816  1.00  0.00     0.016 A 
HETATM   17  C   UNL     1      28.190  44.948  54.930  1.00  0.00     0.037 A 
HETATM   18  C   UNL     1      28.369  46.096  55.704  1.00  0.00     0.068 A 
HETATM   19  C   UNL     1      27.666  47.255  55.376  1.00  0.00     0.037 A 
HETATM   20  C   UNL     1      26.810  47.266  54.267  1.00  0.00     0.016 A 
BRANCH  18  21
HETATM   21  O   UNL     1      29.238  45.955  56.750  1.00  0.00    -0.356 OA
HETATM   22  C   UNL     1      30.439  45.240  56.486  1.00  0.00     0.210 C 
ENDBRANCH  18  21
ENDBRANCH  13  15
ENDBRANCH   1   9
BRANCH   5  23
HETATM   23  C   UNL     1      20.622  49.818  47.138  1.00  0.00     0.141 C 
BRANCH  23  24
HETATM   24  C   UNL     1      19.487  50.588  47.781  1.00  0.00    -0.049 A 
HETATM   25  C   UNL     1      19.689  51.809  48.444  1.00  0.00     0.009 A 
HETATM   26  C   UNL     1      18.623  52.473  49.056  1.00  0.00     0.019 A 
HETATM   27  C   UNL     1      17.351  51.909  49.033  1.00  0.00     0.011 A 
HETATM   28 BR   UNL     1      15.912  52.802  49.873  1.00  0.00    -0.051 Br
HETATM   29  C   UNL     1      17.135  50.685  48.406  1.00  0.00     0.019 A 
HETATM   30  C   UNL     1      18.201  50.027  47.786  1.00  0.00     0.009 A 
ENDBRANCH  23  24
ENDBRANCH   5  23
TORSDOF 5
ENDMDL
MODEL 5
REMARK VINA RESULT:      -8.3      4.543     11.362
REMARK  5 active torsions:
REMARK  status: ('A' for Active; 'I' for Inactive)
REMARK    1  A    between atoms: O_2  and  C_3 
REMARK    2  A    between atoms: C_6  and  C_7 
REMARK    3  A    between atoms: C_11  and  N_12 
REMARK       I    between atoms: N_15  and  C_16 
REMARK    4  A    between atoms: C_16  and  C_17 
REMARK    5  A    between atoms: C_17  and  C_18 
ROOT
HETATM    1  N   UNL     1      23.215  49.578  48.386  1.00  0.00    -0.363 N 
HETATM    2  C   UNL     1      22.042  48.865  47.825  1.00  0.00     0.144 C 
HETATM    3  C   UNL     1      20.845  48.889  48.803  1.00  0.00     0.145 C 
HETATM    4  N   UNL     1      20.560  50.264  49.246  1.00  0.00    -0.349 N 
HETATM    5  C   UNL     1      19.591  51.084  48.680  1.00  0.00     0.224 C 
HETATM    6  O   UNL     1      19.659  52.315  48.760  1.00  0.00    -0.273 OA
HETATM    7  C   UNL     1      21.726  50.912  49.860  1.00  0.00     0.145 C 
HETATM    8  C   UNL     1      22.900  50.952  48.860  1.00  0.00     0.144 C 
ENDROOT
BRANCH   1   9
HETATM    9  C   UNL     1      24.219  48.872  48.985  1.00  0.00     0.122 A 
HETATM   10  N   UNL     1      25.535  49.231  48.851  1.00  0.00    -0.262 N 
HETATM   11  N   UNL     1      26.402  48.403  49.455  1.00  0.00    -0.173 NA
HETATM   12  H   UNL     1      25.906  50.009  48.321  1.00  0.00     0.191 HD
HETATM   13  C   UNL     1      25.625  47.453  49.997  1.00  0.00     0.090 A 
HETATM   14  C   UNL     1      24.251  47.707  49.716  1.00  0.00     0.084 A 
BRANCH  13  15
HETATM   15  C   UNL     1      26.193  46.326  50.732  1.00  0.00    -0.005 A 
HETATM   16  C   UNL     1      26.072  46.239  52.123  1.00  0.00     0.016 A 
HETATM   17  C   UNL     1      26.598  45.137  52.808  1.00  0.00     0.037 A 
HETATM   18  C   UNL     1      27.235  44.105  52.118  1.00  0.00     0.068 A 
HETATM   19  C   UNL     1      27.377  44.195  50.733  1.00  0.00     0.037 A 
HETATM   20  C   UNL     1      26.862  45.303  50.046  1.00  0.00     0.016 A 
BRANCH  18  21
HETATM   21  O   UNL     1      27.682  43.078  52.903  1.00  0.00    -0.356 OA
HETATM   22  C   UNL     1      27.315  43.123  54.276  1.00  0.00     0.210 C 
ENDBRANCH  18  21
ENDBRANCH  13  15
ENDBRANCH   1   9
BRANCH   5  23
HETATM   23  C   UNL     1      18.416  50.439  47.961  1.00  0.00     0.141 C 
BRANCH  23  24
HETATM   24  C   UNL     1      18.145  50.959  46.565  1.00  0.00    -0.049 A 
HETATM   25  C   UNL     1      17.298  52.052  46.323  1.00  0.00     0.009 A 
HETATM   26  C   UNL     1      17.043  52.482  45.018  1.00  0.00     0.019 A 
HETATM   27  C   UNL     1      17.611  51.805  43.943  1.00  0.00     0.011 A 
HETATM   28 BR   UNL     1      17.255  52.379  42.178  1.00  0.00    -0.051 Br
HETATM   29  C   UNL     1      18.431  50.701  44.161  1.00  0.00     0.019 A 
HETATM   30  C   UNL     1      18.692  50.279  45.466  1.00  0.00     0.009 A 
ENDBRANCH  23  24
ENDBRANCH   5  23
TORSDOF 5
ENDMDL
MODEL 6
REMARK VINA RESULT:      -8.3      4.456     11.446
REMARK  5 active torsions:
REMARK  status: ('A' for Active; 'I' for Inactive)
REMARK    1  A    between atoms: O_2  and  C_3 
REMARK    2  A    between atoms: C_6  and  C_7 
REMARK    3  A    between atoms: C_11  and  N_12 
REMARK       I    between atoms: N_15  and  C_16 
REMARK    4  A    between atoms: C_16  and  C_17 
REMARK    5  A    between atoms: C_17  and  C_18 
ROOT
HETATM    1  N   UNL     1      23.063  49.078  48.410  1.00  0.00    -0.363 N 
HETATM    2  C   UNL     1      21.720  48.453  48.359  1.00  0.00     0.144 C 
HETATM    3  C   UNL     1      20.785  49.030  49.448  1.00  0.00     0.145 C 
HETATM    4  N   UNL     1      20.768  50.501  49.394  1.00  0.00    -0.349 N 
HETATM    5  C   UNL     1      19.797  51.249  48.740  1.00  0.00     0.224 C 
HETATM    6  O   UNL     1      20.023  52.398  48.347  1.00  0.00    -0.273 OA
HETATM    7  C   UNL     1      22.109  51.086  49.519  1.00  0.00     0.145 C 
HETATM    8  C   UNL     1      23.024  50.564  48.391  1.00  0.00     0.144 C 
ENDROOT
BRANCH   1   9
HETATM    9  C   UNL     1      24.088  48.439  49.048  1.00  0.00     0.122 A 
HETATM   10  N   UNL     1      25.366  48.935  49.039  1.00  0.00    -0.262 N 
HETATM   11  N   UNL     1      26.267  48.161  49.663  1.00  0.00    -0.173 NA
HETATM   12  H   UNL     1      25.691  49.778  48.583  1.00  0.00     0.191 HD
HETATM   13  C   UNL     1      25.556  47.107  50.090  1.00  0.00     0.090 A 
HETATM   14  C   UNL     1      24.188  47.240  49.715  1.00  0.00     0.084 A 
BRANCH  13  15
HETATM   15  C   UNL     1      26.182  45.998  50.805  1.00  0.00    -0.005 A 
HETATM   16  C   UNL     1      26.120  45.914  52.200  1.00  0.00     0.016 A 
HETATM   17  C   UNL     1      26.701  44.830  52.867  1.00  0.00     0.037 A 
HETATM   18  C   UNL     1      27.337  43.811  52.155  1.00  0.00     0.068 A 
HETATM   19  C   UNL     1      27.421  43.899  50.766  1.00  0.00     0.037 A 
HETATM   20  C   UNL     1      26.849  44.990  50.097  1.00  0.00     0.016 A 
BRANCH  18  21
HETATM   21  O   UNL     1      27.842  42.800  52.925  1.00  0.00    -0.356 OA
HETATM   22  C   UNL     1      28.219  43.142  54.254  1.00  0.00     0.210 C 
ENDBRANCH  18  21
ENDBRANCH  13  15
ENDBRANCH   1   9
BRANCH   5  23
HETATM   23  C   UNL     1      18.424  50.633  48.519  1.00  0.00     0.141 C 
BRANCH  23  24
HETATM   24  C   UNL     1      17.253  51.575  48.700  1.00  0.00    -0.049 A 
HETATM   25  C   UNL     1      16.964  52.186  49.931  1.00  0.00     0.009 A 
HETATM   26  C   UNL     1      15.853  53.023  50.068  1.00  0.00     0.019 A 
HETATM   27  C   UNL     1      15.007  53.233  48.984  1.00  0.00     0.011 A 
HETATM   28 BR   UNL     1      13.497  54.354  49.176  1.00  0.00    -0.051 Br
HETATM   29  C   UNL     1      15.259  52.614  47.764  1.00  0.00     0.019 A 
HETATM   30  C   UNL     1      16.376  51.786  47.625  1.00  0.00     0.009 A 
ENDBRANCH  23  24
ENDBRANCH   5  23
TORSDOF 5
ENDMDL
MODEL 7
REMARK VINA RESULT:      -8.2      8.283     11.209
REMARK  5 active torsions:
REMARK  status: ('A' for Active; 'I' for Inactive)
REMARK    1  A    between atoms: O_2  and  C_3 
REMARK    2  A    between atoms: C_6  and  C_7 
REMARK    3  A    between atoms: C_11  and  N_12 
REMARK       I    between atoms: N_15  and  C_16 
REMARK    4  A    between atoms: C_16  and  C_17 
REMARK    5  A    between atoms: C_17  and  C_18 
ROOT
HETATM    1  N   UNL     1      26.912  40.647  50.333  1.00  0.00    -0.363 N 
HETATM    2  C   UNL     1      26.332  41.117  49.052  1.00  0.00     0.144 C 
HETATM    3  C   UNL     1      27.426  41.334  47.981  1.00  0.00     0.145 C 
HETATM    4  N   UNL     1      28.278  40.140  47.855  1.00  0.00    -0.349 N 
HETATM    5  C   UNL     1      28.105  39.153  46.893  1.00  0.00     0.224 C 
HETATM    6  O   UNL     1      28.524  38.004  47.064  1.00  0.00    -0.273 OA
HETATM    7  C   UNL     1      28.891  39.748  49.131  1.00  0.00     0.145 C 
HETATM    8  C   UNL     1      27.798  39.462  50.181  1.00  0.00     0.144 C 
ENDROOT
BRANCH   1   9
HETATM    9  C   UNL     1      27.144  41.537  51.342  1.00  0.00     0.122 A 
HETATM   10  N   UNL     1      26.238  42.511  51.670  1.00  0.00    -0.262 N 
HETATM   11  N   UNL     1      26.640  43.339  52.647  1.00  0.00    -0.173 NA
HETATM   12  H   UNL     1      25.343  42.687  51.230  1.00  0.00     0.191 HD
HETATM   13  C   UNL     1      27.866  42.899  52.966  1.00  0.00     0.090 A 
HETATM   14  C   UNL     1      28.222  41.777  52.164  1.00  0.00     0.084 A 
BRANCH  13  15
HETATM   15  C   UNL     1      28.675  43.560  53.987  1.00  0.00    -0.005 A 
HETATM   16  C   UNL     1      28.260  44.764  54.567  1.00  0.00     0.016 A 
HETATM   17  C   UNL     1      29.034  45.368  55.564  1.00  0.00     0.037 A 
HETATM   18  C   UNL     1      30.219  44.777  56.006  1.00  0.00     0.068 A 
HETATM   19  C   UNL     1      30.649  43.588  55.417  1.00  0.00     0.037 A 
HETATM   20  C   UNL     1      29.882  42.987  54.410  1.00  0.00     0.016 A 
BRANCH  18  21
HETATM   21  O   UNL     1      30.866  45.459  56.999  1.00  0.00    -0.356 OA
HETATM   22  C   UNL     1      30.052  46.003  58.031  1.00  0.00     0.210 C 
ENDBRANCH  18  21
ENDBRANCH  13  15
ENDBRANCH   1   9
BRANCH   5  23
HETATM   23  C   UNL     1      27.394  39.512  45.597  1.00  0.00     0.141 C 
BRANCH  23  24
HETATM   24  C   UNL     1      28.218  39.345  44.337  1.00  0.00    -0.049 A 
HETATM   25  C   UNL     1      28.264  38.136  43.625  1.00  0.00     0.009 A 
HETATM   26  C   UNL     1      29.063  38.009  42.486  1.00  0.00     0.019 A 
HETATM   27  C   UNL     1      29.844  39.082  42.066  1.00  0.00     0.011 A 
HETATM   28 BR   UNL     1      30.936  38.904  40.533  1.00  0.00    -0.051 Br
HETATM   29  C   UNL     1      29.835  40.279  42.775  1.00  0.00     0.019 A 
HETATM   30  C   UNL     1      29.028  40.408  43.907  1.00  0.00     0.009 A 
ENDBRANCH  23  24
ENDBRANCH   5  23
TORSDOF 5
ENDMDL
MODEL 8
REMARK VINA RESULT:      -8.2      4.672     11.455
REMARK  5 active torsions:
REMARK  status: ('A' for Active; 'I' for Inactive)
REMARK    1  A    between atoms: O_2  and  C_3 
REMARK    2  A    between atoms: C_6  and  C_7 
REMARK    3  A    between atoms: C_11  and  N_12 
REMARK       I    between atoms: N_15  and  C_16 
REMARK    4  A    between atoms: C_16  and  C_17 
REMARK    5  A    between atoms: C_17  and  C_18 
ROOT
HETATM    1  N   UNL     1      22.724  48.297  48.658  1.00  0.00    -0.363 N 
HETATM    2  C   UNL     1      21.352  47.904  48.258  1.00  0.00     0.144 C 
HETATM    3  C   UNL     1      20.288  48.535  49.186  1.00  0.00     0.145 C 
HETATM    4  N   UNL     1      20.490  49.989  49.298  1.00  0.00    -0.349 N 
HETATM    5  C   UNL     1      19.805  50.935  48.545  1.00  0.00     0.224 C 
HETATM    6  O   UNL     1      20.272  52.061  48.342  1.00  0.00    -0.273 OA
HETATM    7  C   UNL     1      21.838  50.337  49.765  1.00  0.00     0.145 C 
HETATM    8  C   UNL     1      22.899  49.767  48.802  1.00  0.00     0.144 C 
ENDROOT
BRANCH   1   9
HETATM    9  C   UNL     1      23.480  47.452  49.419  1.00  0.00     0.122 A 
HETATM   10  N   UNL     1      23.331  46.091  49.352  1.00  0.00    -0.262 N 
HETATM   11  N   UNL     1      24.109  45.403  50.202  1.00  0.00    -0.173 NA
HETATM   12  H   UNL     1      22.679  45.575  48.775  1.00  0.00     0.191 HD
HETATM   13  C   UNL     1      24.790  46.351  50.864  1.00  0.00     0.090 A 
HETATM   14  C   UNL     1      24.416  47.648  50.408  1.00  0.00     0.084 A 
BRANCH  13  15
HETATM   15  C   UNL     1      25.741  46.015  51.919  1.00  0.00    -0.005 A 
HETATM   16  C   UNL     1      26.487  44.832  51.867  1.00  0.00     0.016 A 
HETATM   17  C   UNL     1      27.415  44.540  52.873  1.00  0.00     0.037 A 
HETATM   18  C   UNL     1      27.624  45.425  53.932  1.00  0.00     0.068 A 
HETATM   19  C   UNL     1      26.870  46.596  54.000  1.00  0.00     0.037 A 
HETATM   20  C   UNL     1      25.931  46.886  53.001  1.00  0.00     0.016 A 
BRANCH  18  21
HETATM   21  O   UNL     1      28.574  45.030  54.833  1.00  0.00    -0.356 OA
HETATM   22  C   UNL     1      28.834  45.919  55.912  1.00  0.00     0.210 C 
ENDBRANCH  18  21
ENDBRANCH  13  15
ENDBRANCH   1   9
BRANCH   5  23
HETATM   23  C   UNL     1      18.444  50.570  47.974  1.00  0.00     0.141 C 
BRANCH  23  24
HETATM   24  C   UNL     1      18.183  51.047  46.561  1.00  0.00    -0.049 A 
HETATM   25  C   UNL     1      17.366  52.154  46.281  1.00  0.00     0.009 A 
HETATM   26  C   UNL     1      17.120  52.543  44.962  1.00  0.00     0.019 A 
HETATM   27  C   UNL     1      17.667  51.813  43.911  1.00  0.00     0.011 A 
HETATM   28 BR   UNL     1      17.322  52.333  42.127  1.00  0.00    -0.051 Br
HETATM   29  C   UNL     1      18.455  50.695  44.167  1.00  0.00     0.019 A 
HETATM   30  C   UNL     1      18.709  50.313  45.486  1.00  0.00     0.009 A 
ENDBRANCH  23  24
ENDBRANCH   5  23
TORSDOF 5
ENDMDL
MODEL 9
REMARK VINA RESULT:      -8.1     19.765     22.888
REMARK  5 active torsions:
REMARK  status: ('A' for Active; 'I' for Inactive)
REMARK    1  A    between atoms: O_2  and  C_3 
REMARK    2  A    between atoms: C_6  and  C_7 
REMARK    3  A    between atoms: C_11  and  N_12 
REMARK       I    between atoms: N_15  and  C_16 
REMARK    4  A    between atoms: C_16  and  C_17 
REMARK    5  A    between atoms: C_17  and  C_18 
ROOT
HETATM    1  N   UNL     1      39.700  43.811  63.201  1.00  0.00    -0.363 N 
HETATM    2  C   UNL     1      38.363  44.448  63.244  1.00  0.00     0.144 C 
HETATM    3  C   UNL     1      38.057  45.028  64.645  1.00  0.00     0.145 C 
HETATM    4  N   UNL     1      39.154  45.898  65.100  1.00  0.00    -0.349 N 
HETATM    5  C   UNL     1      39.160  47.281  64.975  1.00  0.00     0.224 C 
HETATM    6  O   UNL     1      40.214  47.924  64.957  1.00  0.00    -0.273 OA
HETATM    7  C   UNL     1      40.452  45.210  65.110  1.00  0.00     0.145 C 
HETATM    8  C   UNL     1      40.791  44.691  63.698  1.00  0.00     0.144 C 
ENDROOT
BRANCH   1   9
HETATM    9  C   UNL     1      39.814  42.456  63.335  1.00  0.00     0.122 A 
HETATM   10  N   UNL     1      39.182  41.589  62.481  1.00  0.00    -0.262 N 
HETATM   11  N   UNL     1      39.349  40.292  62.781  1.00  0.00    -0.173 NA
HETATM   12  H   UNL     1      38.585  41.828  61.699  1.00  0.00     0.191 HD
HETATM   13  C   UNL     1      40.113  40.306  63.885  1.00  0.00     0.090 A 
HETATM   14  C   UNL     1      40.416  41.644  64.268  1.00  0.00     0.084 A 
BRANCH  13  15
HETATM   15  C   UNL     1      40.505  39.072  64.560  1.00  0.00    -0.005 A 
HETATM   16  C   UNL     1      39.691  38.499  65.543  1.00  0.00     0.016 A 
HETATM   17  C   UNL     1      40.069  37.301  66.159  1.00  0.00     0.037 A 
HETATM   18  C   UNL     1      41.251  36.652  65.796  1.00  0.00     0.068 A 
HETATM   19  C   UNL     1      42.077  37.229  64.831  1.00  0.00     0.037 A 
HETATM   20  C   UNL     1      41.706  38.435  64.221  1.00  0.00     0.016 A 
BRANCH  18  21
HETATM   21  O   UNL     1      41.490  35.480  66.458  1.00  0.00    -0.356 OA
HETATM   22  C   UNL     1      40.632  34.388  66.148  1.00  0.00     0.210 C 
ENDBRANCH  18  21
ENDBRANCH  13  15
ENDBRANCH   1   9
BRANCH   5  23
HETATM   23  C   UNL     1      37.830  48.012  64.873  1.00  0.00     0.141 C 
BRANCH  23  24
HETATM   24  C   UNL     1      37.609  49.105  65.897  1.00  0.00    -0.049 A 
HETATM   25  C   UNL     1      37.969  50.441  65.659  1.00  0.00     0.009 A 
HETATM   26  C   UNL     1      37.783  51.417  66.642  1.00  0.00     0.019 A 
HETATM   27  C   UNL     1      37.261  51.060  67.881  1.00  0.00     0.011 A 
HETATM   28 BR   UNL     1      37.023  52.378  69.215  1.00  0.00    -0.051 Br
HETATM   29  C   UNL     1      36.926  49.736  68.148  1.00  0.00     0.019 A 
HETATM   30  C   UNL     1      37.103  48.763  67.161  1.00  0.00     0.009 A 
ENDBRANCH  23  24
ENDBRANCH   5  23
TORSDOF 5
ENDMDL
MODEL 10
REMARK VINA RESULT:      -8.1      4.574     11.022
REMARK  5 active torsions:
REMARK  status: ('A' for Active; 'I' for Inactive)
REMARK    1  A    between atoms: O_2  and  C_3 
REMARK    2  A    between atoms: C_6  and  C_7 
REMARK    3  A    between atoms: C_11  and  N_12 
REMARK       I    between atoms: N_15  and  C_16 
REMARK    4  A    between atoms: C_16  and  C_17 
REMARK    5  A    between atoms: C_17  and  C_18 
ROOT
HETATM    1  N   UNL     1      25.692  44.174  49.736  1.00  0.00    -0.363 N 
HETATM    2  C   UNL     1      24.462  43.410  49.420  1.00  0.00     0.144 C 
HETATM    3  C   UNL     1      23.199  44.117  49.965  1.00  0.00     0.145 C 
HETATM    4  N   UNL     1      23.163  45.525  49.534  1.00  0.00    -0.349 N 
HETATM    5  C   UNL     1      22.452  45.988  48.434  1.00  0.00     0.224 C 
HETATM    6  O   UNL     1      22.767  47.032  47.854  1.00  0.00    -0.273 OA
HETATM    7  C   UNL     1      24.368  46.266  49.928  1.00  0.00     0.145 C 
HETATM    8  C   UNL     1      25.623  45.601  49.326  1.00  0.00     0.144 C 
ENDROOT
BRANCH   1   9
HETATM    9  C   UNL     1      26.457  43.818  50.810  1.00  0.00     0.122 A 
HETATM   10  N   UNL     1      26.433  42.548  51.326  1.00  0.00    -0.262 N 
HETATM   11  N   UNL     1      27.199  42.375  52.414  1.00  0.00    -0.173 NA
HETATM   12  H   UNL     1      25.876  41.767  51.003  1.00  0.00     0.191 HD
HETATM   13  C   UNL     1      27.741  43.583  52.630  1.00  0.00     0.090 A 
HETATM   14  C   UNL     1      27.292  44.516  51.652  1.00  0.00     0.084 A 
BRANCH  13  15
HETATM   15  C   UNL     1      28.633  43.832  53.759  1.00  0.00    -0.005 A 
HETATM   16  C   UNL     1      29.682  42.955  54.055  1.00  0.00     0.016 A 
HETATM   17  C   UNL     1      30.544  43.225  55.124  1.00  0.00     0.037 A 
HETATM   18  C   UNL     1      30.383  44.374  55.900  1.00  0.00     0.068 A 
HETATM   19  C   UNL     1      29.327  45.241  55.623  1.00  0.00     0.037 A 
HETATM   20  C   UNL     1      28.455  44.968  54.561  1.00  0.00     0.016 A 
BRANCH  18  21
HETATM   21  O   UNL     1      31.306  44.528  56.897  1.00  0.00    -0.356 OA
HETATM   22  C   UNL     1      32.003  43.357  57.305  1.00  0.00     0.210 C 
ENDBRANCH  18  21
ENDBRANCH  13  15
ENDBRANCH   1   9
BRANCH   5  23
HETATM   23  C   UNL     1      21.251  45.190  47.950  1.00  0.00     0.141 C 
BRANCH  23  24
HETATM   24  C   UNL     1      19.920  45.910  48.024  1.00  0.00    -0.049 A 
HETATM   25  C   UNL     1      18.719  45.311  47.613  1.00  0.00     0.009 A 
HETATM   26  C   UNL     1      17.515  46.020  47.663  1.00  0.00     0.019 A 
HETATM   27  C   UNL     1      17.508  47.341  48.098  1.00  0.00     0.011 A 
HETATM   28 BR   UNL     1      15.881  48.303  48.152  1.00  0.00    -0.051 Br
HETATM   29  C   UNL     1      18.693  47.963  48.482  1.00  0.00     0.019 A 
HETATM   30  C   UNL     1      19.893  47.250  48.441  1.00  0.00     0.009 A 
ENDBRANCH  23  24
ENDBRANCH   5  23
TORSDOF 5
ENDMDL
