MODEL 1
REMARK VINA RESULT:      -8.0      0.000      0.000
REMARK  8 active torsions:
REMARK  status: ('A' for Active; 'I' for Inactive)
REMARK    1  A    between atoms: C_2  and  N_3 
REMARK    2  A    between atoms: N_3  and  C_5 
REMARK    3  A    between atoms: N_3  and  C_29 
REMARK    4  A    between atoms: C_5  and  C_6 
REMARK    5  A    between atoms: C_6  and  N_7 
REMARK       I    between atoms: N_7  and  C_8 
REMARK    6  A    between atoms: C_8  and  C_9 
REMARK    7  A    between atoms: C_9  and  O_10 
REMARK    8  A    between atoms: N_11  and  C_12 
ROOT
HETATM    1  C   UNL     1      26.077  43.495  52.046  1.00  0.00     0.256 C 
HETATM    2  N   UNL     1      25.771  42.383  51.120  1.00  0.00    -0.254 N 
HETATM    3  C   UNL     1      26.382  41.144  51.288  1.00  0.00     0.330 C 
HETATM    4  O   UNL     1      26.065  40.106  50.712  1.00  0.00    -0.246 OA
HETATM    5  N   UNL     1      27.438  41.061  52.139  1.00  0.00    -0.308 N 
HETATM    6  C   UNL     1      27.936  42.077  52.932  1.00  0.00     0.048 A 
HETATM    7  C   UNL     1      27.291  43.301  52.930  1.00  0.00     0.034 A 
HETATM    8  C   UNL     1      29.049  41.842  53.742  1.00  0.00     0.030 A 
HETATM    9  C   UNL     1      29.524  42.855  54.573  1.00  0.00     0.002 A 
HETATM   10  C   UNL     1      28.872  44.085  54.609  1.00  0.00     0.001 A 
HETATM   11  C   UNL     1      27.754  44.304  53.802  1.00  0.00     0.015 A 
HETATM   12  H   UNL     1      27.840  40.131  52.202  1.00  0.00     0.170 HD
ENDROOT
BRANCH   1  13
HETATM   13  C   UNL     1      26.368  44.806  51.161  1.00  0.00     0.279 C 
HETATM   14  N   UNL     1      25.460  45.856  51.302  1.00  0.00    -0.355 N 
HETATM   15  H   UNL     1      24.900  45.801  52.151  1.00  0.00     0.162 HD
HETATM   16  O   UNL     1      27.268  44.874  50.323  1.00  0.00    -0.268 OA
BRANCH  14  17
HETATM   17  C   UNL     1      25.820  47.195  50.856  1.00  0.00     0.150 C 
BRANCH  17  18
HETATM   18  C   UNL     1      25.559  47.557  49.375  1.00  0.00     0.254 C 
BRANCH  18  19
HETATM   19  N   UNL     1      25.185  49.018  49.112  1.00  0.00    -0.070 N 
HETATM   20  H   UNL     1      25.243  49.456  50.039  1.00  0.00     0.279 HD
BRANCH  19  21
HETATM   21  C   UNL     1      23.774  49.246  48.617  1.00  0.00     0.230 C 
HETATM   22  C   UNL     1      23.620  50.638  48.030  1.00  0.00     0.034 C 
ENDBRANCH  19  21
BRANCH  19  23
HETATM   23  C   UNL     1      26.230  49.737  48.276  1.00  0.00     0.230 C 
HETATM   24  C   UNL     1      27.605  49.610  48.910  1.00  0.00     0.034 C 
ENDBRANCH  19  23
ENDBRANCH  18  19
ENDBRANCH  17  18
ENDBRANCH  14  17
ENDBRANCH   1  13
BRANCH   1  25
HETATM   25  O   UNL     1      24.994  43.611  52.949  1.00  0.00    -0.359 OA
HETATM   26  H   UNL     1      24.811  42.706  53.254  1.00  0.00     0.213 HD
ENDBRANCH   1  25
BRANCH   2  27
HETATM   27  C   UNL     1      24.767  42.577  50.078  1.00  0.00     0.043 A 
HETATM   28  C   UNL     1      23.445  42.965  50.372  1.00  0.00     0.031 A 
HETATM   29  C   UNL     1      22.504  43.207  49.361  1.00  0.00     0.026 A 
HETATM   30  C   UNL     1      22.865  43.068  48.027  1.00  0.00     0.034 A 
HETATM   31 CL   UNL     1      21.719  43.385  46.788  1.00  0.00    -0.084 Cl
HETATM   32  C   UNL     1      24.158  42.687  47.701  1.00  0.00     0.026 A 
HETATM   33  C   UNL     1      25.096  42.449  48.716  1.00  0.00     0.031 A 
ENDBRANCH   2  27
TORSDOF 8
ENDMDL
MODEL 2
REMARK VINA RESULT:      -7.9      3.349      8.115
REMARK  8 active torsions:
REMARK  status: ('A' for Active; 'I' for Inactive)
REMARK    1  A    between atoms: C_2  and  N_3 
REMARK    2  A    between atoms: N_3  and  C_5 
REMARK    3  A    between atoms: N_3  and  C_29 
REMARK    4  A    between atoms: C_5  and  C_6 
REMARK    5  A    between atoms: C_6  and  N_7 
REMARK       I    between atoms: N_7  and  C_8 
REMARK    6  A    between atoms: C_8  and  C_9 
REMARK    7  A    between atoms: C_9  and  O_10 
REMARK    8  A    between atoms: N_11  and  C_12 
ROOT
HETATM    1  C   UNL     1      25.115  43.655  51.110  1.00  0.00     0.256 C 
HETATM    2  N   UNL     1      26.032  44.669  51.673  1.00  0.00    -0.254 N 
HETATM    3  C   UNL     1      25.789  46.023  51.468  1.00  0.00     0.330 C 
HETATM    4  O   UNL     1      26.360  46.948  52.043  1.00  0.00    -0.246 OA
HETATM    5  N   UNL     1      24.861  46.375  50.539  1.00  0.00    -0.308 N 
HETATM    6  C   UNL     1      24.060  45.514  49.813  1.00  0.00     0.048 A 
HETATM    7  C   UNL     1      24.140  44.157  50.065  1.00  0.00     0.034 A 
HETATM    8  C   UNL     1      23.166  46.028  48.873  1.00  0.00     0.030 A 
HETATM    9  C   UNL     1      22.328  45.163  48.171  1.00  0.00     0.002 A 
HETATM   10  C   UNL     1      22.371  43.796  48.430  1.00  0.00     0.001 A 
HETATM   11  C   UNL     1      23.263  43.295  49.381  1.00  0.00     0.015 A 
HETATM   12  H   UNL     1      24.746  47.377  50.436  1.00  0.00     0.170 HD
ENDROOT
BRANCH   1  13
HETATM   13  C   UNL     1      26.009  42.529  50.389  1.00  0.00     0.279 C 
HETATM   14  N   UNL     1      26.088  41.298  51.041  1.00  0.00    -0.355 N 
HETATM   15  H   UNL     1      25.348  41.148  51.724  1.00  0.00     0.162 HD
HETATM   16  O   UNL     1      26.681  42.739  49.378  1.00  0.00    -0.268 OA
BRANCH  14  17
HETATM   17  C   UNL     1      26.541  40.118  50.316  1.00  0.00     0.150 C 
BRANCH  17  18
HETATM   18  C   UNL     1      28.059  39.820  50.297  1.00  0.00     0.254 C 
BRANCH  18  19
HETATM   19  N   UNL     1      28.438  38.338  50.310  1.00  0.00    -0.070 N 
HETATM   20  H   UNL     1      27.784  37.924  50.987  1.00  0.00     0.279 HD
BRANCH  19  21
HETATM   21  C   UNL     1      29.830  38.029  50.815  1.00  0.00     0.230 C 
HETATM   22  C   UNL     1      29.867  36.690  51.530  1.00  0.00     0.034 C 
ENDBRANCH  19  21
BRANCH  19  23
HETATM   23  C   UNL     1      28.119  37.651  48.993  1.00  0.00     0.230 C 
HETATM   24  C   UNL     1      26.921  36.729  49.144  1.00  0.00     0.034 C 
ENDBRANCH  19  23
ENDBRANCH  18  19
ENDBRANCH  17  18
ENDBRANCH  14  17
ENDBRANCH   1  13
BRANCH   1  25
HETATM   25  O   UNL     1      24.297  43.185  52.164  1.00  0.00    -0.359 OA
HETATM   26  H   UNL     1      24.470  43.779  52.913  1.00  0.00     0.213 HD
ENDBRANCH   1  25
BRANCH   2  27
HETATM   27  C   UNL     1      27.150  44.236  52.508  1.00  0.00     0.043 A 
HETATM   28  C   UNL     1      28.385  43.840  51.961  1.00  0.00     0.031 A 
HETATM   29  C   UNL     1      29.472  43.484  52.774  1.00  0.00     0.026 A 
HETATM   30  C   UNL     1      29.348  43.517  54.156  1.00  0.00     0.034 A 
HETATM   31 CL   UNL     1      30.684  43.102  55.151  1.00  0.00    -0.084 Cl
HETATM   32  C   UNL     1      28.144  43.902  54.729  1.00  0.00     0.026 A 
HETATM   33  C   UNL     1      27.062  44.260  53.912  1.00  0.00     0.031 A 
ENDBRANCH   2  27
TORSDOF 8
ENDMDL
MODEL 3
REMARK VINA RESULT:      -7.8      2.276      2.948
REMARK  8 active torsions:
REMARK  status: ('A' for Active; 'I' for Inactive)
REMARK    1  A    between atoms: C_2  and  N_3 
REMARK    2  A    between atoms: N_3  and  C_5 
REMARK    3  A    between atoms: N_3  and  C_29 
REMARK    4  A    between atoms: C_5  and  C_6 
REMARK    5  A    between atoms: C_6  and  N_7 
REMARK       I    between atoms: N_7  and  C_8 
REMARK    6  A    between atoms: C_8  and  C_9 
REMARK    7  A    between atoms: C_9  and  O_10 
REMARK    8  A    between atoms: N_11  and  C_12 
ROOT
HETATM    1  C   UNL     1      26.792  43.575  52.113  1.00  0.00     0.256 C 
HETATM    2  N   UNL     1      27.594  42.366  51.827  1.00  0.00    -0.254 N 
HETATM    3  C   UNL     1      28.608  41.976  52.697  1.00  0.00     0.330 C 
HETATM    4  O   UNL     1      29.201  40.900  52.669  1.00  0.00    -0.246 OA
HETATM    5  N   UNL     1      29.008  42.858  53.651  1.00  0.00    -0.308 N 
HETATM    6  C   UNL     1      28.454  44.098  53.907  1.00  0.00     0.048 A 
HETATM    7  C   UNL     1      27.348  44.497  53.179  1.00  0.00     0.034 A 
HETATM    8  C   UNL     1      28.993  44.904  54.911  1.00  0.00     0.030 A 
HETATM    9  C   UNL     1      28.408  46.136  55.197  1.00  0.00     0.002 A 
HETATM   10  C   UNL     1      27.276  46.544  54.497  1.00  0.00     0.001 A 
HETATM   11  C   UNL     1      26.740  45.725  53.501  1.00  0.00     0.015 A 
HETATM   12  H   UNL     1      29.757  42.511  54.240  1.00  0.00     0.170 HD
ENDROOT
BRANCH   1  13
HETATM   13  C   UNL     1      26.712  44.444  50.762  1.00  0.00     0.279 C 
HETATM   14  N   UNL     1      25.432  44.690  50.266  1.00  0.00    -0.355 N 
HETATM   15  H   UNL     1      24.694  44.560  50.956  1.00  0.00     0.162 HD
HETATM   16  O   UNL     1      27.703  44.796  50.121  1.00  0.00    -0.268 OA
BRANCH  14  17
HETATM   17  C   UNL     1      25.220  45.753  49.293  1.00  0.00     0.150 C 
BRANCH  17  18
HETATM   18  C   UNL     1      24.442  47.009  49.752  1.00  0.00     0.254 C 
BRANCH  18  19
HETATM   19  N   UNL     1      25.229  48.321  49.708  1.00  0.00    -0.070 N 
HETATM   20  H   UNL     1      25.039  48.749  50.623  1.00  0.00     0.279 HD
BRANCH  19  21
HETATM   21  C   UNL     1      24.770  49.317  48.666  1.00  0.00     0.230 C 
HETATM   22  C   UNL     1      23.296  49.138  48.351  1.00  0.00     0.034 C 
ENDBRANCH  19  21
BRANCH  19  23
HETATM   23  C   UNL     1      26.729  48.092  49.689  1.00  0.00     0.230 C 
HETATM   24  C   UNL     1      27.439  49.234  48.982  1.00  0.00     0.034 C 
ENDBRANCH  19  23
ENDBRANCH  18  19
ENDBRANCH  17  18
ENDBRANCH  14  17
ENDBRANCH   1  13
BRANCH   1  25
HETATM   25  O   UNL     1      25.544  43.149  52.626  1.00  0.00    -0.359 OA
HETATM   26  H   UNL     1      25.663  43.096  53.589  1.00  0.00     0.213 HD
ENDBRANCH   1  25
BRANCH   2  27
HETATM   27  C   UNL     1      27.261  41.546  50.665  1.00  0.00     0.043 A 
HETATM   28  C   UNL     1      28.096  41.475  49.533  1.00  0.00     0.031 A 
HETATM   29  C   UNL     1      27.798  40.639  48.447  1.00  0.00     0.026 A 
HETATM   30  C   UNL     1      26.655  39.850  48.470  1.00  0.00     0.034 A 
HETATM   31 CL   UNL     1      26.301  38.810  47.151  1.00  0.00    -0.084 Cl
HETATM   32  C   UNL     1      25.810  39.895  49.569  1.00  0.00     0.026 A 
HETATM   33  C   UNL     1      26.114  40.731  50.653  1.00  0.00     0.031 A 
ENDBRANCH   2  27
TORSDOF 8
ENDMDL
MODEL 4
REMARK VINA RESULT:      -7.8      2.626      6.092
REMARK  8 active torsions:
REMARK  status: ('A' for Active; 'I' for Inactive)
REMARK    1  A    between atoms: C_2  and  N_3 
REMARK    2  A    between atoms: N_3  and  C_5 
REMARK    3  A    between atoms: N_3  and  C_29 
REMARK    4  A    between atoms: C_5  and  C_6 
REMARK    5  A    between atoms: C_6  and  N_7 
REMARK       I    between atoms: N_7  and  C_8 
REMARK    6  A    between atoms: C_8  and  C_9 
REMARK    7  A    between atoms: C_9  and  O_10 
REMARK    8  A    between atoms: N_11  and  C_12 
ROOT
HETATM    1  C   UNL     1      27.137  43.631  51.339  1.00  0.00     0.256 C 
HETATM    2  N   UNL     1      25.787  44.072  51.750  1.00  0.00    -0.254 N 
HETATM    3  C   UNL     1      25.567  44.541  53.042  1.00  0.00     0.330 C 
HETATM    4  O   UNL     1      24.550  45.110  53.433  1.00  0.00    -0.246 OA
HETATM    5  N   UNL     1      26.538  44.340  53.971  1.00  0.00    -0.308 N 
HETATM    6  C   UNL     1      27.780  43.776  53.752  1.00  0.00     0.048 A 
HETATM    7  C   UNL     1      28.130  43.415  52.463  1.00  0.00     0.034 A 
HETATM    8  C   UNL     1      28.666  43.614  54.818  1.00  0.00     0.030 A 
HETATM    9  C   UNL     1      29.934  43.084  54.589  1.00  0.00     0.002 A 
HETATM   10  C   UNL     1      30.318  42.742  53.295  1.00  0.00     0.001 A 
HETATM   11  C   UNL     1      29.427  42.918  52.235  1.00  0.00     0.015 A 
HETATM   12  H   UNL     1      26.304  44.697  54.891  1.00  0.00     0.170 HD
ENDROOT
BRANCH   1  13
HETATM   13  C   UNL     1      26.986  42.214  50.594  1.00  0.00     0.279 C 
HETATM   14  N   UNL     1      27.155  42.228  49.209  1.00  0.00    -0.355 N 
HETATM   15  H   UNL     1      27.644  43.053  48.864  1.00  0.00     0.162 HD
HETATM   16  O   UNL     1      26.640  41.179  51.165  1.00  0.00    -0.268 OA
BRANCH  14  17
HETATM   17  C   UNL     1      27.412  40.986  48.493  1.00  0.00     0.150 C 
BRANCH  17  18
HETATM   18  C   UNL     1      28.669  40.174  48.883  1.00  0.00     0.254 C 
BRANCH  18  19
HETATM   19  N   UNL     1      28.408  38.916  49.714  1.00  0.00    -0.070 N 
HETATM   20  H   UNL     1      28.348  39.267  50.677  1.00  0.00     0.279 HD
BRANCH  19  21
HETATM   21  C   UNL     1      29.519  37.889  49.701  1.00  0.00     0.230 C 
HETATM   22  C   UNL     1      30.000  37.588  51.109  1.00  0.00     0.034 C 
ENDBRANCH  19  21
BRANCH  19  23
HETATM   23  C   UNL     1      27.042  38.315  49.432  1.00  0.00     0.230 C 
HETATM   24  C   UNL     1      27.179  36.975  48.728  1.00  0.00     0.034 C 
ENDBRANCH  19  23
ENDBRANCH  18  19
ENDBRANCH  17  18
ENDBRANCH  14  17
ENDBRANCH   1  13
BRANCH   1  25
HETATM   25  O   UNL     1      27.705  44.663  50.555  1.00  0.00    -0.359 OA
HETATM   26  H   UNL     1      27.073  44.818  49.833  1.00  0.00     0.213 HD
ENDBRANCH   1  25
BRANCH   2  27
HETATM   27  C   UNL     1      24.708  44.081  50.766  1.00  0.00     0.043 A 
HETATM   28  C   UNL     1      24.547  45.130  49.840  1.00  0.00     0.031 A 
HETATM   29  C   UNL     1      23.544  45.101  48.860  1.00  0.00     0.026 A 
HETATM   30  C   UNL     1      22.677  44.019  48.782  1.00  0.00     0.034 A 
HETATM   31 CL   UNL     1      21.464  43.973  47.569  1.00  0.00    -0.084 Cl
HETATM   32  C   UNL     1      22.807  42.969  49.679  1.00  0.00     0.026 A 
HETATM   33  C   UNL     1      23.813  43.001  50.656  1.00  0.00     0.031 A 
ENDBRANCH   2  27
TORSDOF 8
ENDMDL
MODEL 5
REMARK VINA RESULT:      -7.6      3.400      6.176
REMARK  8 active torsions:
REMARK  status: ('A' for Active; 'I' for Inactive)
REMARK    1  A    between atoms: C_2  and  N_3 
REMARK    2  A    between atoms: N_3  and  C_5 
REMARK    3  A    between atoms: N_3  and  C_29 
REMARK    4  A    between atoms: C_5  and  C_6 
REMARK    5  A    between atoms: C_6  and  N_7 
REMARK       I    between atoms: N_7  and  C_8 
REMARK    6  A    between atoms: C_8  and  C_9 
REMARK    7  A    between atoms: C_9  and  O_10 
REMARK    8  A    between atoms: N_11  and  C_12 
ROOT
HETATM    1  C   UNL     1      26.007  43.069  50.087  1.00  0.00     0.256 C 
HETATM    2  N   UNL     1      26.712  41.916  50.688  1.00  0.00    -0.254 N 
HETATM    3  C   UNL     1      26.494  40.631  50.202  1.00  0.00     0.330 C 
HETATM    4  O   UNL     1      27.158  39.636  50.484  1.00  0.00    -0.246 OA
HETATM    5  N   UNL     1      25.445  40.433  49.361  1.00  0.00    -0.308 N 
HETATM    6  C   UNL     1      24.597  41.405  48.863  1.00  0.00     0.048 A 
HETATM    7  C   UNL     1      24.838  42.728  49.185  1.00  0.00     0.034 A 
HETATM    8  C   UNL     1      23.544  41.042  48.023  1.00  0.00     0.030 A 
HETATM    9  C   UNL     1      22.716  42.026  47.487  1.00  0.00     0.002 A 
HETATM   10  C   UNL     1      22.959  43.367  47.774  1.00  0.00     0.001 A 
HETATM   11  C   UNL     1      24.021  43.719  48.608  1.00  0.00     0.015 A 
HETATM   12  H   UNL     1      25.340  39.472  49.057  1.00  0.00     0.170 HD
ENDROOT
BRANCH   1  13
HETATM   13  C   UNL     1      25.408  43.958  51.285  1.00  0.00     0.279 C 
HETATM   14  N   UNL     1      26.000  45.207  51.479  1.00  0.00    -0.355 N 
HETATM   15  H   UNL     1      26.526  45.539  50.672  1.00  0.00     0.162 HD
HETATM   16  O   UNL     1      24.550  43.552  52.070  1.00  0.00    -0.268 OA
BRANCH  14  17
HETATM   17  C   UNL     1      25.313  46.226  52.261  1.00  0.00     0.150 C 
BRANCH  17  18
HETATM   18  C   UNL     1      26.179  47.252  53.029  1.00  0.00     0.254 C 
BRANCH  18  19
HETATM   19  N   UNL     1      26.475  46.899  54.489  1.00  0.00    -0.070 N 
HETATM   20  H   UNL     1      25.543  46.802  54.911  1.00  0.00     0.279 HD
BRANCH  19  21
HETATM   21  C   UNL     1      27.195  47.969  55.280  1.00  0.00     0.230 C 
HETATM   22  C   UNL     1      26.209  48.864  56.010  1.00  0.00     0.034 C 
ENDBRANCH  19  21
BRANCH  19  23
HETATM   23  C   UNL     1      27.111  45.528  54.631  1.00  0.00     0.230 C 
HETATM   24  C   UNL     1      28.234  45.560  55.655  1.00  0.00     0.034 C 
ENDBRANCH  19  23
ENDBRANCH  18  19
ENDBRANCH  17  18
ENDBRANCH  14  17
ENDBRANCH   1  13
BRANCH   1  25
HETATM   25  O   UNL     1      26.924  43.740  49.244  1.00  0.00    -0.359 OA
HETATM   26  H   UNL     1      27.257  44.490  49.766  1.00  0.00     0.213 HD
ENDBRANCH   1  25
BRANCH   2  27
HETATM   27  C   UNL     1      27.695  42.151  51.743  1.00  0.00     0.043 A 
HETATM   28  C   UNL     1      28.841  42.943  51.537  1.00  0.00     0.031 A 
HETATM   29  C   UNL     1      29.748  43.212  52.573  1.00  0.00     0.026 A 
HETATM   30  C   UNL     1      29.528  42.694  53.843  1.00  0.00     0.034 A 
HETATM   31 CL   UNL     1      30.626  43.041  55.116  1.00  0.00    -0.084 Cl
HETATM   32  C   UNL     1      28.409  41.909  54.080  1.00  0.00     0.026 A 
HETATM   33  C   UNL     1      27.504  41.646  53.042  1.00  0.00     0.031 A 
ENDBRANCH   2  27
TORSDOF 8
ENDMDL
MODEL 6
REMARK VINA RESULT:      -7.5     11.042     13.256
REMARK  8 active torsions:
REMARK  status: ('A' for Active; 'I' for Inactive)
REMARK    1  A    between atoms: C_2  and  N_3 
REMARK    2  A    between atoms: N_3  and  C_5 
REMARK    3  A    between atoms: N_3  and  C_29 
REMARK    4  A    between atoms: C_5  and  C_6 
REMARK    5  A    between atoms: C_6  and  N_7 
REMARK       I    between atoms: N_7  and  C_8 
REMARK    6  A    between atoms: C_8  and  C_9 
REMARK    7  A    between atoms: C_9  and  O_10 
REMARK    8  A    between atoms: N_11  and  C_12 
ROOT
HETATM    1  C   UNL     1      27.679  48.569  40.643  1.00  0.00     0.256 C 
HETATM    2  N   UNL     1      27.804  49.566  39.558  1.00  0.00    -0.254 N 
HETATM    3  C   UNL     1      27.187  49.345  38.331  1.00  0.00     0.330 C 
HETATM    4  O   UNL     1      27.057  50.177  37.435  1.00  0.00    -0.246 OA
HETATM    5  N   UNL     1      26.702  48.103  38.071  1.00  0.00    -0.308 N 
HETATM    6  C   UNL     1      26.685  47.029  38.941  1.00  0.00     0.048 A 
HETATM    7  C   UNL     1      27.150  47.210  40.231  1.00  0.00     0.034 A 
HETATM    8  C   UNL     1      26.172  45.802  38.518  1.00  0.00     0.030 A 
HETATM    9  C   UNL     1      26.116  44.733  39.409  1.00  0.00     0.002 A 
HETATM   10  C   UNL     1      26.550  44.901  40.722  1.00  0.00     0.001 A 
HETATM   11  C   UNL     1      27.053  46.136  41.135  1.00  0.00     0.015 A 
HETATM   12  H   UNL     1      26.277  48.013  37.154  1.00  0.00     0.170 HD
ENDROOT
BRANCH   1  13
HETATM   13  C   UNL     1      29.147  48.315  41.250  1.00  0.00     0.279 C 
HETATM   14  N   UNL     1      30.085  47.764  40.376  1.00  0.00    -0.355 N 
HETATM   15  H   UNL     1      29.837  47.863  39.393  1.00  0.00     0.162 HD
HETATM   16  O   UNL     1      29.431  48.486  42.436  1.00  0.00    -0.268 OA
BRANCH  14  17
HETATM   17  C   UNL     1      31.505  47.841  40.690  1.00  0.00     0.150 C 
BRANCH  17  18
HETATM   18  C   UNL     1      32.196  49.221  40.581  1.00  0.00     0.254 C 
BRANCH  18  19
HETATM   19  N   UNL     1      32.722  49.798  41.896  1.00  0.00    -0.070 N 
HETATM   20  H   UNL     1      32.730  48.991  42.532  1.00  0.00     0.279 HD
BRANCH  19  21
HETATM   21  C   UNL     1      31.841  50.845  42.543  1.00  0.00     0.230 C 
HETATM   22  C   UNL     1      32.433  51.318  43.858  1.00  0.00     0.034 C 
ENDBRANCH  19  21
BRANCH  19  23
HETATM   23  C   UNL     1      34.175  50.228  41.795  1.00  0.00     0.230 C 
HETATM   24  C   UNL     1      34.369  51.201  40.644  1.00  0.00     0.034 C 
ENDBRANCH  19  23
ENDBRANCH  18  19
ENDBRANCH  17  18
ENDBRANCH  14  17
ENDBRANCH   1  13
BRANCH   1  25
HETATM   25  O   UNL     1      26.726  49.058  41.567  1.00  0.00    -0.359 OA
HETATM   26  H   UNL     1      26.045  48.367  41.629  1.00  0.00     0.213 HD
ENDBRANCH   1  25
BRANCH   2  27
HETATM   27  C   UNL     1      28.516  50.815  39.814  1.00  0.00     0.043 A 
HETATM   28  C   UNL     1      28.086  51.737  40.787  1.00  0.00     0.031 A 
HETATM   29  C   UNL     1      28.809  52.906  41.068  1.00  0.00     0.026 A 
HETATM   30  C   UNL     1      29.985  53.178  40.381  1.00  0.00     0.034 A 
HETATM   31 CL   UNL     1      30.882  54.597  40.740  1.00  0.00    -0.084 Cl
HETATM   32  C   UNL     1      30.438  52.291  39.416  1.00  0.00     0.026 A 
HETATM   33  C   UNL     1      29.712  51.123  39.141  1.00  0.00     0.031 A 
ENDBRANCH   2  27
TORSDOF 8
ENDMDL
MODEL 7
REMARK VINA RESULT:      -7.4      2.436      5.503
REMARK  8 active torsions:
REMARK  status: ('A' for Active; 'I' for Inactive)
REMARK    1  A    between atoms: C_2  and  N_3 
REMARK    2  A    between atoms: N_3  and  C_5 
REMARK    3  A    between atoms: N_3  and  C_29 
REMARK    4  A    between atoms: C_5  and  C_6 
REMARK    5  A    between atoms: C_6  and  N_7 
REMARK       I    between atoms: N_7  and  C_8 
REMARK    6  A    between atoms: C_8  and  C_9 
REMARK    7  A    between atoms: C_9  and  O_10 
REMARK    8  A    between atoms: N_11  and  C_12 
ROOT
HETATM    1  C   UNL     1      26.608  44.953  50.724  1.00  0.00     0.256 C 
HETATM    2  N   UNL     1      26.162  46.248  51.282  1.00  0.00    -0.254 N 
HETATM    3  C   UNL     1      26.387  46.548  52.622  1.00  0.00     0.330 C 
HETATM    4  O   UNL     1      26.241  47.651  53.143  1.00  0.00    -0.246 OA
HETATM    5  N   UNL     1      26.776  45.541  53.447  1.00  0.00    -0.308 N 
HETATM    6  C   UNL     1      27.055  44.238  53.079  1.00  0.00     0.048 A 
HETATM    7  C   UNL     1      26.995  43.897  51.740  1.00  0.00     0.034 A 
HETATM    8  C   UNL     1      27.423  43.307  54.051  1.00  0.00     0.030 A 
HETATM    9  C   UNL     1      27.745  42.005  53.673  1.00  0.00     0.002 A 
HETATM   10  C   UNL     1      27.721  41.647  52.328  1.00  0.00     0.001 A 
HETATM   11  C   UNL     1      27.360  42.591  51.364  1.00  0.00     0.015 A 
HETATM   12  H   UNL     1      26.909  45.830  54.410  1.00  0.00     0.170 HD
ENDROOT
BRANCH   1  13
HETATM   13  C   UNL     1      25.389  44.336  49.877  1.00  0.00     0.279 C 
HETATM   14  N   UNL     1      24.345  43.781  50.618  1.00  0.00    -0.355 N 
HETATM   15  H   UNL     1      24.322  44.090  51.588  1.00  0.00     0.162 HD
HETATM   16  O   UNL     1      25.391  44.247  48.648  1.00  0.00    -0.268 OA
BRANCH  14  17
HETATM   17  C   UNL     1      23.052  43.543  49.990  1.00  0.00     0.150 C 
BRANCH  17  18
HETATM   18  C   UNL     1      22.842  42.199  49.254  1.00  0.00     0.254 C 
BRANCH  18  19
HETATM   19  N   UNL     1      23.624  42.035  47.950  1.00  0.00    -0.070 N 
HETATM   20  H   UNL     1      24.393  42.710  48.039  1.00  0.00     0.279 HD
BRANCH  19  21
HETATM   21  C   UNL     1      22.871  42.408  46.691  1.00  0.00     0.230 C 
HETATM   22  C   UNL     1      21.723  41.448  46.437  1.00  0.00     0.034 C 
ENDBRANCH  19  21
BRANCH  19  23
HETATM   23  C   UNL     1      24.304  40.681  47.853  1.00  0.00     0.230 C 
HETATM   24  C   UNL     1      25.560  40.648  48.707  1.00  0.00     0.034 C 
ENDBRANCH  19  23
ENDBRANCH  18  19
ENDBRANCH  17  18
ENDBRANCH  14  17
ENDBRANCH   1  13
BRANCH   1  25
HETATM   25  O   UNL     1      27.791  45.188  49.986  1.00  0.00    -0.359 OA
HETATM   26  H   UNL     1      27.900  46.154  49.970  1.00  0.00     0.213 HD
ENDBRANCH   1  25
BRANCH   2  27
HETATM   27  C   UNL     1      25.555  47.236  50.394  1.00  0.00     0.043 A 
HETATM   28  C   UNL     1      24.159  47.360  50.254  1.00  0.00     0.031 A 
HETATM   29  C   UNL     1      23.584  48.352  49.445  1.00  0.00     0.026 A 
HETATM   30  C   UNL     1      24.395  49.246  48.758  1.00  0.00     0.034 A 
HETATM   31 CL   UNL     1      23.691  50.474  47.786  1.00  0.00    -0.084 Cl
HETATM   32  C   UNL     1      25.774  49.152  48.874  1.00  0.00     0.026 A 
HETATM   33  C   UNL     1      26.343  48.161  49.686  1.00  0.00     0.031 A 
ENDBRANCH   2  27
TORSDOF 8
ENDMDL
MODEL 8
REMARK VINA RESULT:      -7.3     11.770     13.416
REMARK  8 active torsions:
REMARK  status: ('A' for Active; 'I' for Inactive)
REMARK    1  A    between atoms: C_2  and  N_3 
REMARK    2  A    between atoms: N_3  and  C_5 
REMARK    3  A    between atoms: N_3  and  C_29 
REMARK    4  A    between atoms: C_5  and  C_6 
REMARK    5  A    between atoms: C_6  and  N_7 
REMARK       I    between atoms: N_7  and  C_8 
REMARK    6  A    between atoms: C_8  and  C_9 
REMARK    7  A    between atoms: C_9  and  O_10 
REMARK    8  A    between atoms: N_11  and  C_12 
ROOT
HETATM    1  C   UNL     1      28.929  49.592  39.055  1.00  0.00     0.256 C 
HETATM    2  N   UNL     1      28.055  48.458  39.426  1.00  0.00    -0.254 N 
HETATM    3  C   UNL     1      26.934  48.671  40.222  1.00  0.00     0.330 C 
HETATM    4  O   UNL     1      26.038  47.855  40.430  1.00  0.00    -0.246 OA
HETATM    5  N   UNL     1      26.813  49.868  40.853  1.00  0.00    -0.308 N 
HETATM    6  C   UNL     1      27.662  50.951  40.728  1.00  0.00     0.048 A 
HETATM    7  C   UNL     1      28.721  50.869  39.843  1.00  0.00     0.034 A 
HETATM    8  C   UNL     1      27.418  52.112  41.464  1.00  0.00     0.030 A 
HETATM    9  C   UNL     1      28.250  53.218  41.306  1.00  0.00     0.002 A 
HETATM   10  C   UNL     1      29.304  53.168  40.398  1.00  0.00     0.001 A 
HETATM   11  C   UNL     1      29.533  52.005  39.660  1.00  0.00     0.015 A 
HETATM   12  H   UNL     1      25.979  49.947  41.424  1.00  0.00     0.170 HD
ENDROOT
BRANCH   1  13
HETATM   13  C   UNL     1      30.452  49.145  39.316  1.00  0.00     0.279 C 
HETATM   14  N   UNL     1      30.807  48.924  40.648  1.00  0.00    -0.355 N 
HETATM   15  H   UNL     1      30.010  48.775  41.265  1.00  0.00     0.162 HD
HETATM   16  O   UNL     1      31.307  49.093  38.431  1.00  0.00    -0.268 OA
BRANCH  14  17
HETATM   17  C   UNL     1      32.013  48.170  40.965  1.00  0.00     0.150 C 
BRANCH  17  18
HETATM   18  C   UNL     1      33.277  48.965  41.367  1.00  0.00     0.254 C 
BRANCH  18  19
HETATM   19  N   UNL     1      33.140  50.488  41.314  1.00  0.00    -0.070 N 
HETATM   20  H   UNL     1      32.178  50.636  40.983  1.00  0.00     0.279 HD
BRANCH  19  21
HETATM   21  C   UNL     1      34.045  51.186  40.324  1.00  0.00     0.230 C 
HETATM   22  C   UNL     1      33.237  51.938  39.281  1.00  0.00     0.034 C 
ENDBRANCH  19  21
BRANCH  19  23
HETATM   23  C   UNL     1      33.176  51.117  42.696  1.00  0.00     0.230 C 
HETATM   24  C   UNL     1      31.838  51.753  43.033  1.00  0.00     0.034 C 
ENDBRANCH  19  23
ENDBRANCH  18  19
ENDBRANCH  17  18
ENDBRANCH  14  17
ENDBRANCH   1  13
BRANCH   1  25
HETATM   25  O   UNL     1      28.630  49.944  37.719  1.00  0.00    -0.359 OA
HETATM   26  H   UNL     1      27.770  49.534  37.527  1.00  0.00     0.213 HD
ENDBRANCH   1  25
BRANCH   2  27
HETATM   27  C   UNL     1      28.338  47.131  38.886  1.00  0.00     0.043 A 
HETATM   28  C   UNL     1      28.086  46.800  37.541  1.00  0.00     0.031 A 
HETATM   29  C   UNL     1      28.416  45.541  37.016  1.00  0.00     0.026 A 
HETATM   30  C   UNL     1      29.010  44.583  37.828  1.00  0.00     0.034 A 
HETATM   31 CL   UNL     1      29.435  43.051  37.180  1.00  0.00    -0.084 Cl
HETATM   32  C   UNL     1      29.273  44.876  39.158  1.00  0.00     0.026 A 
HETATM   33  C   UNL     1      28.943  46.137  39.676  1.00  0.00     0.031 A 
ENDBRANCH   2  27
TORSDOF 8
ENDMDL
MODEL 9
REMARK VINA RESULT:      -7.3     18.159     20.056
REMARK  8 active torsions:
REMARK  status: ('A' for Active; 'I' for Inactive)
REMARK    1  A    between atoms: C_2  and  N_3 
REMARK    2  A    between atoms: N_3  and  C_5 
REMARK    3  A    between atoms: N_3  and  C_29 
REMARK    4  A    between atoms: C_5  and  C_6 
REMARK    5  A    between atoms: C_6  and  N_7 
REMARK       I    between atoms: N_7  and  C_8 
REMARK    6  A    between atoms: C_8  and  C_9 
REMARK    7  A    between atoms: C_9  and  O_10 
REMARK    8  A    between atoms: N_11  and  C_12 
ROOT
HETATM    1  C   UNL     1      38.535  45.797  65.571  1.00  0.00     0.256 C 
HETATM    2  N   UNL     1      39.608  45.293  64.687  1.00  0.00    -0.254 N 
HETATM    3  C   UNL     1      40.604  46.153  64.235  1.00  0.00     0.330 C 
HETATM    4  O   UNL     1      41.640  45.813  63.667  1.00  0.00    -0.246 OA
HETATM    5  N   UNL     1      40.424  47.489  64.405  1.00  0.00    -0.308 N 
HETATM    6  C   UNL     1      39.371  48.098  65.060  1.00  0.00     0.048 A 
HETATM    7  C   UNL     1      38.412  47.304  65.664  1.00  0.00     0.034 A 
HETATM    8  C   UNL     1      39.312  49.491  65.132  1.00  0.00     0.030 A 
HETATM    9  C   UNL     1      38.273  50.103  65.830  1.00  0.00     0.002 A 
HETATM   10  C   UNL     1      37.313  49.323  66.470  1.00  0.00     0.001 A 
HETATM   11  C   UNL     1      37.389  47.931  66.399  1.00  0.00     0.015 A 
HETATM   12  H   UNL     1      41.184  48.054  64.041  1.00  0.00     0.170 HD
ENDROOT
BRANCH   1  13
HETATM   13  C   UNL     1      37.131  45.266  64.993  1.00  0.00     0.279 C 
HETATM   14  N   UNL     1      36.512  44.251  65.723  1.00  0.00    -0.355 N 
HETATM   15  H   UNL     1      36.851  44.170  66.681  1.00  0.00     0.162 HD
HETATM   16  O   UNL     1      36.655  45.635  63.919  1.00  0.00    -0.268 OA
BRANCH  14  17
HETATM   17  C   UNL     1      35.099  43.963  65.517  1.00  0.00     0.150 C 
BRANCH  17  18
HETATM   18  C   UNL     1      34.414  42.974  66.488  1.00  0.00     0.254 C 
BRANCH  18  19
HETATM   19  N   UNL     1      33.743  43.608  67.709  1.00  0.00    -0.070 N 
HETATM   20  H   UNL     1      33.368  44.494  67.348  1.00  0.00     0.279 HD
BRANCH  19  21
HETATM   21  C   UNL     1      34.674  43.969  68.845  1.00  0.00     0.230 C 
HETATM   22  C   UNL     1      34.995  45.453  68.838  1.00  0.00     0.034 C 
ENDBRANCH  19  21
BRANCH  19  23
HETATM   23  C   UNL     1      32.525  42.826  68.167  1.00  0.00     0.230 C 
HETATM   24  C   UNL     1      32.896  41.853  69.274  1.00  0.00     0.034 C 
ENDBRANCH  19  23
ENDBRANCH  18  19
ENDBRANCH  17  18
ENDBRANCH  14  17
ENDBRANCH   1  13
BRANCH   1  25
HETATM   25  O   UNL     1      38.835  45.382  66.889  1.00  0.00    -0.359 OA
HETATM   26  H   UNL     1      38.045  44.909  67.200  1.00  0.00     0.213 HD
ENDBRANCH   1  25
BRANCH   2  27
HETATM   27  C   UNL     1      39.652  43.871  64.357  1.00  0.00     0.043 A 
HETATM   28  C   UNL     1      40.112  42.904  65.271  1.00  0.00     0.031 A 
HETATM   29  C   UNL     1      40.096  41.534  64.967  1.00  0.00     0.026 A 
HETATM   30  C   UNL     1      39.615  41.100  63.739  1.00  0.00     0.034 A 
HETATM   31 CL   UNL     1      39.574  39.422  63.375  1.00  0.00    -0.084 Cl
HETATM   32  C   UNL     1      39.155  42.026  62.814  1.00  0.00     0.026 A 
HETATM   33  C   UNL     1      39.171  43.393  63.124  1.00  0.00     0.031 A 
ENDBRANCH   2  27
TORSDOF 8
ENDMDL
MODEL 10
REMARK VINA RESULT:      -7.3      2.498      5.169
REMARK  8 active torsions:
REMARK  status: ('A' for Active; 'I' for Inactive)
REMARK    1  A    between atoms: C_2  and  N_3 
REMARK    2  A    between atoms: N_3  and  C_5 
REMARK    3  A    between atoms: N_3  and  C_29 
REMARK    4  A    between atoms: C_5  and  C_6 
REMARK    5  A    between atoms: C_6  and  N_7 
REMARK       I    between atoms: N_7  and  C_8 
REMARK    6  A    between atoms: C_8  and  C_9 
REMARK    7  A    between atoms: C_9  and  O_10 
REMARK    8  A    between atoms: N_11  and  C_12 
ROOT
HETATM    1  C   UNL     1      26.481  44.877  50.735  1.00  0.00     0.256 C 
HETATM    2  N   UNL     1      26.150  46.221  51.255  1.00  0.00    -0.254 N 
HETATM    3  C   UNL     1      26.521  46.582  52.547  1.00  0.00     0.330 C 
HETATM    4  O   UNL     1      26.477  47.719  53.013  1.00  0.00    -0.246 OA
HETATM    5  N   UNL     1      26.946  45.604  53.389  1.00  0.00    -0.308 N 
HETATM    6  C   UNL     1      27.129  44.271  53.074  1.00  0.00     0.048 A 
HETATM    7  C   UNL     1      26.920  43.861  51.769  1.00  0.00     0.034 A 
HETATM    8  C   UNL     1      27.551  43.377  54.059  1.00  0.00     0.030 A 
HETATM    9  C   UNL     1      27.776  42.042  53.730  1.00  0.00     0.002 A 
HETATM   10  C   UNL     1      27.601  41.613  52.416  1.00  0.00     0.001 A 
HETATM   11  C   UNL     1      27.188  42.519  51.438  1.00  0.00     0.015 A 
HETATM   12  H   UNL     1      27.187  45.939  54.316  1.00  0.00     0.170 HD
ENDROOT
BRANCH   1  13
HETATM   13  C   UNL     1      25.157  44.276  50.048  1.00  0.00     0.279 C 
HETATM   14  N   UNL     1      25.200  44.124  48.662  1.00  0.00    -0.355 N 
HETATM   15  H   UNL     1      26.144  44.120  48.280  1.00  0.00     0.162 HD
HETATM   16  O   UNL     1      24.113  44.053  50.663  1.00  0.00    -0.268 OA
BRANCH  14  17
HETATM   17  C   UNL     1      24.234  43.261  47.994  1.00  0.00     0.150 C 
BRANCH  17  18
HETATM   18  C   UNL     1      23.226  43.921  47.025  1.00  0.00     0.254 C 
BRANCH  18  19
HETATM   19  N   UNL     1      21.787  44.017  47.538  1.00  0.00    -0.070 N 
HETATM   20  H   UNL     1      21.707  43.225  48.188  1.00  0.00     0.279 HD
BRANCH  19  21
HETATM   21  C   UNL     1      20.712  43.824  46.492  1.00  0.00     0.230 C 
HETATM   22  C   UNL     1      21.212  42.961  45.347  1.00  0.00     0.034 C 
ENDBRANCH  19  21
BRANCH  19  23
HETATM   23  C   UNL     1      21.564  45.249  48.397  1.00  0.00     0.230 C 
HETATM   24  C   UNL     1      20.084  45.445  48.682  1.00  0.00     0.034 C 
ENDBRANCH  19  23
ENDBRANCH  18  19
ENDBRANCH  17  18
ENDBRANCH  14  17
ENDBRANCH   1  13
BRANCH   1  25
HETATM   25  O   UNL     1      27.594  45.013  49.873  1.00  0.00    -0.359 OA
HETATM   26  H   UNL     1      27.743  45.969  49.789  1.00  0.00     0.213 HD
ENDBRANCH   1  25
BRANCH   2  27
HETATM   27  C   UNL     1      25.502  47.189  50.374  1.00  0.00     0.043 A 
HETATM   28  C   UNL     1      24.101  47.296  50.280  1.00  0.00     0.031 A 
HETATM   29  C   UNL     1      23.487  48.268  49.476  1.00  0.00     0.026 A 
HETATM   30  C   UNL     1      24.263  49.160  48.748  1.00  0.00     0.034 A 
HETATM   31 CL   UNL     1      23.512  50.364  47.781  1.00  0.00    -0.084 Cl
HETATM   32  C   UNL     1      25.647  49.082  48.817  1.00  0.00     0.026 A 
HETATM   33  C   UNL     1      26.255  48.110  49.624  1.00  0.00     0.031 A 
ENDBRANCH   2  27
TORSDOF 8
ENDMDL
