MODEL 1
REMARK VINA RESULT:      -8.4      0.000      0.000
REMARK  6 active torsions:
REMARK  status: ('A' for Active; 'I' for Inactive)
REMARK    1  A    between atoms: C_2  and  C_3 
REMARK    2  A    between atoms: C_3  and  C_4 
REMARK    3  A    between atoms: C_4  and  N_5 
REMARK       I    between atoms: N_5  and  C_6 
REMARK       I    between atoms: C_6  and  N_7 
REMARK    4  A    between atoms: N_7  and  C_8 
REMARK    5  A    between atoms: N_11  and  C_12 
REMARK    6  A    between atoms: C_15  and  O_16 
ROOT
HETATM    1  C   UNL     1      24.920  45.921  50.452  1.00  0.00     0.123 C 
HETATM    2  C   UNL     1      25.715  46.208  51.677  1.00  0.00     0.009 A 
HETATM    3  C   UNL     1      26.401  45.249  52.404  1.00  0.00     0.047 A 
HETATM    4  N   UNL     1      27.120  45.923  53.387  1.00  0.00    -0.238 N 
HETATM    5  N   UNL     1      26.875  47.265  53.310  1.00  0.00    -0.179 NA
HETATM    6  C   UNL     1      26.051  47.423  52.279  1.00  0.00     0.150 A 
HETATM    7  C   UNL     1      26.385  43.786  52.093  1.00  0.00     0.069 C 
HETATM    8  C   UNL     1      25.761  43.484  50.692  1.00  0.00    -0.040 C 
HETATM    9  C   UNL     1      25.265  42.025  50.678  1.00  0.00     0.015 C 
HETATM   10  C   UNL     1      26.836  43.631  49.596  1.00  0.00     0.015 C 
HETATM   11  C   UNL     1      24.555  44.421  50.394  1.00  0.00     0.039 C 
ENDROOT
BRANCH   1  12
HETATM   12  N   UNL     1      23.729  46.743  50.442  1.00  0.00    -0.334 N 
HETATM   13  C   UNL     1      23.669  47.836  49.616  1.00  0.00     0.316 C 
HETATM   14  N   UNL     1      22.425  48.415  49.633  1.00  0.00    -0.343 N 
HETATM   15  O   UNL     1      24.615  48.244  48.955  1.00  0.00    -0.247 OA
HETATM   16  H   UNL     1      21.922  48.274  50.496  1.00  0.00     0.164 HD
HETATM   17  H   UNL     1      22.854  46.292  50.658  1.00  0.00     0.165 HD
BRANCH  14  18
HETATM   18  C   UNL     1      22.188  49.681  48.963  1.00  0.00     0.124 C 
BRANCH  18  19
HETATM   19  C   UNL     1      21.652  50.796  49.862  1.00  0.00     0.019 C 
BRANCH  19  20
HETATM   20  C   UNL     1      20.137  50.975  49.756  1.00  0.00    -0.003 C 
HETATM   21  C   UNL     1      19.778  51.974  48.666  1.00  0.00     0.005 C 
ENDBRANCH  19  20
ENDBRANCH  18  19
ENDBRANCH  14  18
ENDBRANCH   1  12
BRANCH   4  22
HETATM   22  C   UNL     1      28.053  45.452  54.365  1.00  0.00     0.058 A 
HETATM   23  C   UNL     1      28.211  46.189  55.552  1.00  0.00     0.034 A 
HETATM   24  C   UNL     1      29.161  45.815  56.508  1.00  0.00     0.039 A 
HETATM   25  C   UNL     1      29.971  44.700  56.303  1.00  0.00     0.068 A 
HETATM   26  C   UNL     1      29.789  43.935  55.153  1.00  0.00     0.039 A 
HETATM   27  C   UNL     1      28.832  44.304  54.193  1.00  0.00     0.034 A 
BRANCH  25  28
HETATM   28  O   UNL     1      30.879  44.456  57.295  1.00  0.00    -0.356 OA
HETATM   29  C   UNL     1      31.747  43.344  57.105  1.00  0.00     0.210 C 
ENDBRANCH  25  28
ENDBRANCH   4  22
TORSDOF 6
ENDMDL
MODEL 2
REMARK VINA RESULT:      -8.0      1.927      8.949
REMARK  6 active torsions:
REMARK  status: ('A' for Active; 'I' for Inactive)
REMARK    1  A    between atoms: C_2  and  C_3 
REMARK    2  A    between atoms: C_3  and  C_4 
REMARK    3  A    between atoms: C_4  and  N_5 
REMARK       I    between atoms: N_5  and  C_6 
REMARK       I    between atoms: C_6  and  N_7 
REMARK    4  A    between atoms: N_7  and  C_8 
REMARK    5  A    between atoms: N_11  and  C_12 
REMARK    6  A    between atoms: C_15  and  O_16 
ROOT
HETATM    1  C   UNL     1      26.567  43.971  51.655  1.00  0.00     0.123 C 
HETATM    2  C   UNL     1      26.083  45.331  51.292  1.00  0.00     0.009 A 
HETATM    3  C   UNL     1      25.286  45.608  50.195  1.00  0.00     0.047 A 
HETATM    4  N   UNL     1      24.943  46.955  50.273  1.00  0.00    -0.238 N 
HETATM    5  N   UNL     1      25.530  47.526  51.368  1.00  0.00    -0.179 NA
HETATM    6  C   UNL     1      26.191  46.545  51.974  1.00  0.00     0.150 A 
HETATM    7  C   UNL     1      24.852  44.589  49.190  1.00  0.00     0.069 C 
HETATM    8  C   UNL     1      25.141  43.128  49.665  1.00  0.00    -0.040 C 
HETATM    9  C   UNL     1      25.212  42.213  48.426  1.00  0.00     0.015 C 
HETATM   10  C   UNL     1      23.988  42.629  50.559  1.00  0.00     0.015 C 
HETATM   11  C   UNL     1      26.495  43.036  50.428  1.00  0.00     0.039 C 
ENDROOT
BRANCH   1  12
HETATM   12  N   UNL     1      27.920  44.054  52.162  1.00  0.00    -0.334 N 
HETATM   13  C   UNL     1      28.191  43.628  53.437  1.00  0.00     0.316 C 
HETATM   14  N   UNL     1      29.537  43.650  53.701  1.00  0.00    -0.343 N 
HETATM   15  O   UNL     1      27.333  43.281  54.237  1.00  0.00    -0.247 OA
HETATM   16  H   UNL     1      30.046  44.338  53.166  1.00  0.00     0.164 HD
HETATM   17  H   UNL     1      28.669  43.982  51.492  1.00  0.00     0.165 HD
BRANCH  14  18
HETATM   18  C   UNL     1      30.033  43.400  55.042  1.00  0.00     0.124 C 
BRANCH  18  19
HETATM   19  C   UNL     1      30.305  44.655  55.873  1.00  0.00     0.019 C 
BRANCH  19  20
HETATM   20  C   UNL     1      31.012  44.357  57.196  1.00  0.00    -0.003 C 
HETATM   21  C   UNL     1      31.834  43.081  57.103  1.00  0.00     0.005 C 
ENDBRANCH  19  20
ENDBRANCH  18  19
ENDBRANCH  14  18
ENDBRANCH   1  12
BRANCH   4  22
HETATM   22  C   UNL     1      24.083  47.760  49.459  1.00  0.00     0.058 A 
HETATM   23  C   UNL     1      24.557  49.005  49.009  1.00  0.00     0.034 A 
HETATM   24  C   UNL     1      23.733  49.862  48.273  1.00  0.00     0.039 A 
HETATM   25  C   UNL     1      22.423  49.499  47.969  1.00  0.00     0.068 A 
HETATM   26  C   UNL     1      21.960  48.247  48.369  1.00  0.00     0.039 A 
HETATM   27  C   UNL     1      22.786  47.380  49.103  1.00  0.00     0.034 A 
BRANCH  25  28
HETATM   28  O   UNL     1      21.711  50.434  47.272  1.00  0.00    -0.356 OA
HETATM   29  C   UNL     1      20.398  50.716  47.743  1.00  0.00     0.210 C 
ENDBRANCH  25  28
ENDBRANCH   4  22
TORSDOF 6
ENDMDL
MODEL 3
REMARK VINA RESULT:      -8.0      1.624      2.210
REMARK  6 active torsions:
REMARK  status: ('A' for Active; 'I' for Inactive)
REMARK    1  A    between atoms: C_2  and  C_3 
REMARK    2  A    between atoms: C_3  and  C_4 
REMARK    3  A    between atoms: C_4  and  N_5 
REMARK       I    between atoms: N_5  and  C_6 
REMARK       I    between atoms: C_6  and  N_7 
REMARK    4  A    between atoms: N_7  and  C_8 
REMARK    5  A    between atoms: N_11  and  C_12 
REMARK    6  A    between atoms: C_15  and  O_16 
ROOT
HETATM    1  C   UNL     1      23.101  46.043  49.085  1.00  0.00     0.123 C 
HETATM    2  C   UNL     1      24.085  46.305  50.170  1.00  0.00     0.009 A 
HETATM    3  C   UNL     1      24.735  45.316  50.889  1.00  0.00     0.047 A 
HETATM    4  N   UNL     1      25.660  45.953  51.711  1.00  0.00    -0.238 N 
HETATM    5  N   UNL     1      25.579  47.308  51.546  1.00  0.00    -0.179 NA
HETATM    6  C   UNL     1      24.651  47.502  50.615  1.00  0.00     0.150 A 
HETATM    7  C   UNL     1      24.491  43.850  50.716  1.00  0.00     0.069 C 
HETATM    8  C   UNL     1      23.650  43.537  49.436  1.00  0.00    -0.040 C 
HETATM    9  C   UNL     1      22.975  42.163  49.614  1.00  0.00     0.015 C 
HETATM   10  C   UNL     1      24.577  43.454  48.205  1.00  0.00     0.015 C 
HETATM   11  C   UNL     1      22.544  44.608  49.207  1.00  0.00     0.039 C 
ENDROOT
BRANCH   1  12
HETATM   12  N   UNL     1      22.034  47.019  49.149  1.00  0.00    -0.334 N 
HETATM   13  C   UNL     1      22.036  48.080  48.281  1.00  0.00     0.316 C 
HETATM   14  N   UNL     1      20.887  48.823  48.389  1.00  0.00    -0.343 N 
HETATM   15  O   UNL     1      22.955  48.332  47.514  1.00  0.00    -0.247 OA
HETATM   16  H   UNL     1      20.460  48.782  49.302  1.00  0.00     0.164 HD
HETATM   17  H   UNL     1      21.134  46.698  49.469  1.00  0.00     0.165 HD
BRANCH  14  18
HETATM   18  C   UNL     1      20.753  50.085  47.685  1.00  0.00     0.124 C 
BRANCH  18  19
HETATM   19  C   UNL     1      20.947  51.331  48.551  1.00  0.00     0.019 C 
BRANCH  19  20
HETATM   20  C   UNL     1      19.663  51.783  49.248  1.00  0.00    -0.003 C 
HETATM   21  C   UNL     1      18.757  52.541  48.290  1.00  0.00     0.005 C 
ENDBRANCH  19  20
ENDBRANCH  18  19
ENDBRANCH  14  18
ENDBRANCH   1  12
BRANCH   4  22
HETATM   22  C   UNL     1      26.649  45.430  52.604  1.00  0.00     0.058 A 
HETATM   23  C   UNL     1      26.828  46.058  53.849  1.00  0.00     0.034 A 
HETATM   24  C   UNL     1      27.830  45.634  54.728  1.00  0.00     0.039 A 
HETATM   25  C   UNL     1      28.671  44.577  54.388  1.00  0.00     0.068 A 
HETATM   26  C   UNL     1      28.470  43.916  53.178  1.00  0.00     0.039 A 
HETATM   27  C   UNL     1      27.461  44.335  52.294  1.00  0.00     0.034 A 
BRANCH  25  28
HETATM   28  O   UNL     1      29.628  44.277  55.317  1.00  0.00    -0.356 OA
HETATM   29  C   UNL     1      30.076  45.348  56.139  1.00  0.00     0.210 C 
ENDBRANCH  25  28
ENDBRANCH   4  22
TORSDOF 6
ENDMDL
MODEL 4
REMARK VINA RESULT:      -8.0      2.008      2.538
REMARK  6 active torsions:
REMARK  status: ('A' for Active; 'I' for Inactive)
REMARK    1  A    between atoms: C_2  and  C_3 
REMARK    2  A    between atoms: C_3  and  C_4 
REMARK    3  A    between atoms: C_4  and  N_5 
REMARK       I    between atoms: N_5  and  C_6 
REMARK       I    between atoms: C_6  and  N_7 
REMARK    4  A    between atoms: N_7  and  C_8 
REMARK    5  A    between atoms: N_11  and  C_12 
REMARK    6  A    between atoms: C_15  and  O_16 
ROOT
HETATM    1  C   UNL     1      24.648  43.814  50.293  1.00  0.00     0.123 C 
HETATM    2  C   UNL     1      25.441  44.324  51.444  1.00  0.00     0.009 A 
HETATM    3  C   UNL     1      26.451  43.614  52.070  1.00  0.00     0.047 A 
HETATM    4  N   UNL     1      27.032  44.471  53.001  1.00  0.00    -0.238 N 
HETATM    5  N   UNL     1      26.390  45.678  52.992  1.00  0.00    -0.179 NA
HETATM    6  C   UNL     1      25.457  45.582  52.050  1.00  0.00     0.150 A 
HETATM    7  C   UNL     1      26.842  42.215  51.716  1.00  0.00     0.069 C 
HETATM    8  C   UNL     1      26.199  41.742  50.372  1.00  0.00    -0.040 C 
HETATM    9  C   UNL     1      26.163  40.201  50.358  1.00  0.00     0.015 C 
HETATM   10  C   UNL     1      27.064  42.207  49.183  1.00  0.00     0.015 C 
HETATM   11  C   UNL     1      24.744  42.274  50.221  1.00  0.00     0.039 C 
ENDROOT
BRANCH   1  12
HETATM   12  N   UNL     1      23.271  44.240  50.423  1.00  0.00    -0.334 N 
HETATM   13  C   UNL     1      22.557  44.571  49.300  1.00  0.00     0.316 C 
HETATM   14  N   UNL     1      21.239  44.816  49.594  1.00  0.00    -0.343 N 
HETATM   15  O   UNL     1      23.043  44.646  48.180  1.00  0.00    -0.247 OA
HETATM   16  H   UNL     1      21.086  45.148  50.534  1.00  0.00     0.164 HD
HETATM   17  H   UNL     1      22.746  43.873  51.201  1.00  0.00     0.165 HD
BRANCH  14  18
HETATM   18  C   UNL     1      20.342  45.347  48.583  1.00  0.00     0.124 C 
BRANCH  18  19
HETATM   19  C   UNL     1      20.080  46.851  48.679  1.00  0.00     0.019 C 
BRANCH  19  20
HETATM   20  C   UNL     1      21.006  47.679  47.789  1.00  0.00    -0.003 C 
HETATM   21  C   UNL     1      22.190  48.217  48.578  1.00  0.00     0.005 C 
ENDBRANCH  19  20
ENDBRANCH  18  19
ENDBRANCH  14  18
ENDBRANCH   1  12
BRANCH   4  22
HETATM   22  C   UNL     1      28.157  44.301  53.870  1.00  0.00     0.058 A 
HETATM   23  C   UNL     1      28.369  45.248  54.887  1.00  0.00     0.034 A 
HETATM   24  C   UNL     1      29.493  45.170  55.716  1.00  0.00     0.039 A 
HETATM   25  C   UNL     1      30.426  44.148  55.552  1.00  0.00     0.068 A 
HETATM   26  C   UNL     1      30.199  43.176  54.579  1.00  0.00     0.039 A 
HETATM   27  C   UNL     1      29.068  43.248  53.748  1.00  0.00     0.034 A 
BRANCH  25  28
HETATM   28  O   UNL     1      31.494  44.198  56.403  1.00  0.00    -0.356 OA
HETATM   29  C   UNL     1      31.200  44.365  57.785  1.00  0.00     0.210 C 
ENDBRANCH  25  28
ENDBRANCH   4  22
TORSDOF 6
ENDMDL
MODEL 5
REMARK VINA RESULT:      -7.9      3.630      6.777
REMARK  6 active torsions:
REMARK  status: ('A' for Active; 'I' for Inactive)
REMARK    1  A    between atoms: C_2  and  C_3 
REMARK    2  A    between atoms: C_3  and  C_4 
REMARK    3  A    between atoms: C_4  and  N_5 
REMARK       I    between atoms: N_5  and  C_6 
REMARK       I    between atoms: C_6  and  N_7 
REMARK    4  A    between atoms: N_7  and  C_8 
REMARK    5  A    between atoms: N_11  and  C_12 
REMARK    6  A    between atoms: C_15  and  O_16 
ROOT
HETATM    1  C   UNL     1      26.216  43.147  49.809  1.00  0.00     0.123 C 
HETATM    2  C   UNL     1      27.266  42.974  50.849  1.00  0.00     0.009 A 
HETATM    3  C   UNL     1      27.579  43.925  51.806  1.00  0.00     0.047 A 
HETATM    4  N   UNL     1      28.508  43.344  52.666  1.00  0.00    -0.238 N 
HETATM    5  N   UNL     1      28.801  42.075  52.251  1.00  0.00    -0.179 NA
HETATM    6  C   UNL     1      28.044  41.862  51.179  1.00  0.00     0.150 A 
HETATM    7  C   UNL     1      26.949  45.279  51.887  1.00  0.00     0.069 C 
HETATM    8  C   UNL     1      25.690  45.402  50.968  1.00  0.00    -0.040 C 
HETATM    9  C   UNL     1      25.448  46.893  50.662  1.00  0.00     0.015 C 
HETATM   10  C   UNL     1      24.448  44.860  51.703  1.00  0.00     0.015 C 
HETATM   11  C   UNL     1      25.893  44.646  49.622  1.00  0.00     0.039 C 
ENDROOT
BRANCH   1  12
HETATM   12  N   UNL     1      26.661  42.556  48.565  1.00  0.00    -0.334 N 
HETATM   13  C   UNL     1      26.140  41.353  48.163  1.00  0.00     0.316 C 
HETATM   14  N   UNL     1      26.568  41.012  46.905  1.00  0.00    -0.343 N 
HETATM   15  O   UNL     1      25.393  40.670  48.850  1.00  0.00    -0.247 OA
HETATM   16  H   UNL     1      27.468  41.399  46.662  1.00  0.00     0.164 HD
HETATM   17  H   UNL     1      26.961  43.185  47.836  1.00  0.00     0.165 HD
BRANCH  14  18
HETATM   18  C   UNL     1      26.273  39.703  46.352  1.00  0.00     0.124 C 
BRANCH  18  19
HETATM   19  C   UNL     1      27.501  38.854  46.015  1.00  0.00     0.019 C 
BRANCH  19  20
HETATM   20  C   UNL     1      27.717  37.698  46.992  1.00  0.00    -0.003 C 
HETATM   21  C   UNL     1      28.842  38.008  47.969  1.00  0.00     0.005 C 
ENDBRANCH  19  20
ENDBRANCH  18  19
ENDBRANCH  14  18
ENDBRANCH   1  12
BRANCH   4  22
HETATM   22  C   UNL     1      29.118  43.830  53.866  1.00  0.00     0.058 A 
HETATM   23  C   UNL     1      30.220  43.132  54.390  1.00  0.00     0.034 A 
HETATM   24  C   UNL     1      30.806  43.520  55.598  1.00  0.00     0.039 A 
HETATM   25  C   UNL     1      30.311  44.612  56.309  1.00  0.00     0.068 A 
HETATM   26  C   UNL     1      29.251  45.340  55.773  1.00  0.00     0.039 A 
HETATM   27  C   UNL     1      28.661  44.957  54.557  1.00  0.00     0.034 A 
BRANCH  25  28
HETATM   28  O   UNL     1      30.950  44.872  57.488  1.00  0.00    -0.356 OA
HETATM   29  C   UNL     1      30.521  46.024  58.204  1.00  0.00     0.210 C 
ENDBRANCH  25  28
ENDBRANCH   4  22
TORSDOF 6
ENDMDL
MODEL 6
REMARK VINA RESULT:      -7.7      3.441      5.037
REMARK  6 active torsions:
REMARK  status: ('A' for Active; 'I' for Inactive)
REMARK    1  A    between atoms: C_2  and  C_3 
REMARK    2  A    between atoms: C_3  and  C_4 
REMARK    3  A    between atoms: C_4  and  N_5 
REMARK       I    between atoms: N_5  and  C_6 
REMARK       I    between atoms: C_6  and  N_7 
REMARK    4  A    between atoms: N_7  and  C_8 
REMARK    5  A    between atoms: N_11  and  C_12 
REMARK    6  A    between atoms: C_15  and  O_16 
ROOT
HETATM    1  C   UNL     1      25.756  45.887  51.535  1.00  0.00     0.123 C 
HETATM    2  C   UNL     1      26.299  44.727  50.778  1.00  0.00     0.009 A 
HETATM    3  C   UNL     1      27.071  43.723  51.337  1.00  0.00     0.047 A 
HETATM    4  N   UNL     1      27.270  42.765  50.347  1.00  0.00    -0.238 N 
HETATM    5  N   UNL     1      26.671  43.161  49.184  1.00  0.00    -0.179 NA
HETATM    6  C   UNL     1      26.084  44.321  49.458  1.00  0.00     0.150 A 
HETATM    7  C   UNL     1      27.516  43.700  52.765  1.00  0.00     0.069 C 
HETATM    8  C   UNL     1      26.774  44.765  53.635  1.00  0.00    -0.040 C 
HETATM    9  C   UNL     1      27.634  45.075  54.876  1.00  0.00     0.015 C 
HETATM   10  C   UNL     1      25.424  44.199  54.122  1.00  0.00     0.015 C 
HETATM   11  C   UNL     1      26.550  46.088  52.844  1.00  0.00     0.039 C 
ENDROOT
BRANCH   1  12
HETATM   12  N   UNL     1      25.810  47.076  50.710  1.00  0.00    -0.334 N 
HETATM   13  C   UNL     1      24.713  47.436  49.971  1.00  0.00     0.316 C 
HETATM   14  N   UNL     1      24.892  48.653  49.363  1.00  0.00    -0.343 N 
HETATM   15  O   UNL     1      23.707  46.749  49.864  1.00  0.00    -0.247 OA
HETATM   16  H   UNL     1      25.858  48.874  49.170  1.00  0.00     0.164 HD
HETATM   17  H   UNL     1      26.415  47.822  51.016  1.00  0.00     0.165 HD
BRANCH  14  18
HETATM   18  C   UNL     1      23.926  49.148  48.398  1.00  0.00     0.124 C 
BRANCH  18  19
HETATM   19  C   UNL     1      23.557  50.624  48.555  1.00  0.00     0.019 C 
BRANCH  19  20
HETATM   20  C   UNL     1      22.339  50.845  49.452  1.00  0.00    -0.003 C 
HETATM   21  C   UNL     1      21.123  51.255  48.635  1.00  0.00     0.005 C 
ENDBRANCH  19  20
ENDBRANCH  18  19
ENDBRANCH  14  18
ENDBRANCH   1  12
BRANCH   4  22
HETATM   22  C   UNL     1      27.921  41.490  50.383  1.00  0.00     0.058 A 
HETATM   23  C   UNL     1      28.032  40.759  49.187  1.00  0.00     0.034 A 
HETATM   24  C   UNL     1      28.592  39.478  49.180  1.00  0.00     0.039 A 
HETATM   25  C   UNL     1      29.054  38.898  50.359  1.00  0.00     0.068 A 
HETATM   26  C   UNL     1      28.993  39.634  51.541  1.00  0.00     0.039 A 
HETATM   27  C   UNL     1      28.436  40.924  51.553  1.00  0.00     0.034 A 
BRANCH  25  28
HETATM   28  O   UNL     1      29.552  37.633  50.226  1.00  0.00    -0.356 OA
HETATM   29  C   UNL     1      29.826  36.926  51.430  1.00  0.00     0.210 C 
ENDBRANCH  25  28
ENDBRANCH   4  22
TORSDOF 6
ENDMDL
MODEL 7
REMARK VINA RESULT:      -7.5     11.160     13.164
REMARK  6 active torsions:
REMARK  status: ('A' for Active; 'I' for Inactive)
REMARK    1  A    between atoms: C_2  and  C_3 
REMARK    2  A    between atoms: C_3  and  C_4 
REMARK    3  A    between atoms: C_4  and  N_5 
REMARK       I    between atoms: N_5  and  C_6 
REMARK       I    between atoms: C_6  and  N_7 
REMARK    4  A    between atoms: N_7  and  C_8 
REMARK    5  A    between atoms: N_11  and  C_12 
REMARK    6  A    between atoms: C_15  and  O_16 
ROOT
HETATM    1  C   UNL     1      28.241  49.661  40.489  1.00  0.00     0.123 C 
HETATM    2  C   UNL     1      29.502  49.582  41.275  1.00  0.00     0.009 A 
HETATM    3  C   UNL     1      30.410  50.619  41.401  1.00  0.00     0.047 A 
HETATM    4  N   UNL     1      31.377  50.204  42.311  1.00  0.00    -0.238 N 
HETATM    5  N   UNL     1      31.113  48.929  42.728  1.00  0.00    -0.179 NA
HETATM    6  C   UNL     1      29.986  48.577  42.117  1.00  0.00     0.150 A 
HETATM    7  C   UNL     1      30.278  51.941  40.713  1.00  0.00     0.069 C 
HETATM    8  C   UNL     1      28.864  52.141  40.078  1.00  0.00    -0.040 C 
HETATM    9  C   UNL     1      28.972  53.192  38.956  1.00  0.00     0.015 C 
HETATM   10  C   UNL     1      27.883  52.678  41.139  1.00  0.00     0.015 C 
HETATM   11  C   UNL     1      28.324  50.815  39.465  1.00  0.00     0.039 C 
ENDROOT
BRANCH   1  12
HETATM   12  N   UNL     1      28.001  48.398  39.824  1.00  0.00    -0.334 N 
HETATM   13  C   UNL     1      26.891  47.662  40.152  1.00  0.00     0.316 C 
HETATM   14  N   UNL     1      26.749  46.571  39.333  1.00  0.00    -0.343 N 
HETATM   15  O   UNL     1      26.132  47.946  41.069  1.00  0.00    -0.247 OA
HETATM   16  H   UNL     1      27.620  46.227  38.958  1.00  0.00     0.164 HD
HETATM   17  H   UNL     1      28.348  48.298  38.884  1.00  0.00     0.165 HD
BRANCH  14  18
HETATM   18  C   UNL     1      25.740  45.564  39.609  1.00  0.00     0.124 C 
BRANCH  18  19
HETATM   19  C   UNL     1      26.288  44.178  39.950  1.00  0.00     0.019 C 
BRANCH  19  20
HETATM   20  C   UNL     1      26.961  44.120  41.322  1.00  0.00    -0.003 C 
HETATM   21  C   UNL     1      26.053  44.687  42.403  1.00  0.00     0.005 C 
ENDBRANCH  19  20
ENDBRANCH  18  19
ENDBRANCH  14  18
ENDBRANCH   1  12
BRANCH   4  22
HETATM   22  C   UNL     1      32.502  50.889  42.874  1.00  0.00     0.058 A 
HETATM   23  C   UNL     1      33.714  50.887  42.161  1.00  0.00     0.034 A 
HETATM   24  C   UNL     1      34.862  51.477  42.699  1.00  0.00     0.039 A 
HETATM   25  C   UNL     1      34.828  52.082  43.954  1.00  0.00     0.068 A 
HETATM   26  C   UNL     1      33.620  52.131  44.646  1.00  0.00     0.039 A 
HETATM   27  C   UNL     1      32.462  51.545  44.108  1.00  0.00     0.034 A 
BRANCH  25  28
HETATM   28  O   UNL     1      36.020  52.595  44.381  1.00  0.00    -0.356 OA
HETATM   29  C   UNL     1      36.949  52.974  43.372  1.00  0.00     0.210 C 
ENDBRANCH  25  28
ENDBRANCH   4  22
TORSDOF 6
ENDMDL
MODEL 8
REMARK VINA RESULT:      -7.2     12.181     13.012
REMARK  6 active torsions:
REMARK  status: ('A' for Active; 'I' for Inactive)
REMARK    1  A    between atoms: C_2  and  C_3 
REMARK    2  A    between atoms: C_3  and  C_4 
REMARK    3  A    between atoms: C_4  and  N_5 
REMARK       I    between atoms: N_5  and  C_6 
REMARK       I    between atoms: C_6  and  N_7 
REMARK    4  A    between atoms: N_7  and  C_8 
REMARK    5  A    between atoms: N_11  and  C_12 
REMARK    6  A    between atoms: C_15  and  O_16 
ROOT
HETATM    1  C   UNL     1      26.889  49.529  39.374  1.00  0.00     0.123 C 
HETATM    2  C   UNL     1      27.982  50.334  39.984  1.00  0.00     0.009 A 
HETATM    3  C   UNL     1      29.157  49.800  40.485  1.00  0.00     0.047 A 
HETATM    4  N   UNL     1      29.970  50.873  40.842  1.00  0.00    -0.238 N 
HETATM    5  N   UNL     1      29.321  52.052  40.606  1.00  0.00    -0.179 NA
HETATM    6  C   UNL     1      28.146  51.718  40.080  1.00  0.00     0.150 A 
HETATM    7  C   UNL     1      29.462  48.337  40.539  1.00  0.00     0.069 C 
HETATM    8  C   UNL     1      28.450  47.489  39.701  1.00  0.00    -0.040 C 
HETATM    9  C   UNL     1      28.458  46.043  40.236  1.00  0.00     0.015 C 
HETATM   10  C   UNL     1      28.893  47.452  38.224  1.00  0.00     0.015 C 
HETATM   11  C   UNL     1      27.004  48.054  39.817  1.00  0.00     0.039 C 
ENDROOT
BRANCH   1  12
HETATM   12  N   UNL     1      25.606  50.083  39.753  1.00  0.00    -0.334 N 
HETATM   13  C   UNL     1      24.507  49.837  38.973  1.00  0.00     0.316 C 
HETATM   14  N   UNL     1      23.359  50.319  39.550  1.00  0.00    -0.343 N 
HETATM   15  O   UNL     1      24.552  49.265  37.892  1.00  0.00    -0.247 OA
HETATM   16  H   UNL     1      23.511  51.109  40.159  1.00  0.00     0.164 HD
HETATM   17  H   UNL     1      25.440  50.231  40.736  1.00  0.00     0.165 HD
BRANCH  14  18
HETATM   18  C   UNL     1      22.105  50.316  38.820  1.00  0.00     0.124 C 
BRANCH  18  19
HETATM   19  C   UNL     1      20.990  51.153  39.450  1.00  0.00     0.019 C 
BRANCH  19  20
HETATM   20  C   UNL     1      20.962  51.062  40.976  1.00  0.00    -0.003 C 
HETATM   21  C   UNL     1      19.542  51.184  41.507  1.00  0.00     0.005 C 
ENDBRANCH  19  20
ENDBRANCH  18  19
ENDBRANCH  14  18
ENDBRANCH   1  12
BRANCH   4  22
HETATM   22  C   UNL     1      31.312  50.917  41.337  1.00  0.00     0.058 A 
HETATM   23  C   UNL     1      32.368  50.679  40.440  1.00  0.00     0.034 A 
HETATM   24  C   UNL     1      33.693  50.637  40.886  1.00  0.00     0.039 A 
HETATM   25  C   UNL     1      33.995  50.834  42.231  1.00  0.00     0.068 A 
HETATM   26  C   UNL     1      32.960  51.121  43.120  1.00  0.00     0.039 A 
HETATM   27  C   UNL     1      31.628  51.168  42.676  1.00  0.00     0.034 A 
BRANCH  25  28
HETATM   28  O   UNL     1      35.321  50.741  42.546  1.00  0.00    -0.356 OA
HETATM   29  C   UNL     1      36.236  51.334  41.632  1.00  0.00     0.210 C 
ENDBRANCH  25  28
ENDBRANCH   4  22
TORSDOF 6
ENDMDL
MODEL 9
REMARK VINA RESULT:      -7.1      3.505      5.942
REMARK  6 active torsions:
REMARK  status: ('A' for Active; 'I' for Inactive)
REMARK    1  A    between atoms: C_2  and  C_3 
REMARK    2  A    between atoms: C_3  and  C_4 
REMARK    3  A    between atoms: C_4  and  N_5 
REMARK       I    between atoms: N_5  and  C_6 
REMARK       I    between atoms: C_6  and  N_7 
REMARK    4  A    between atoms: N_7  and  C_8 
REMARK    5  A    between atoms: N_11  and  C_12 
REMARK    6  A    between atoms: C_15  and  O_16 
ROOT
HETATM    1  C   UNL     1      25.677  43.595  49.803  1.00  0.00     0.123 C 
HETATM    2  C   UNL     1      26.634  43.217  50.878  1.00  0.00     0.009 A 
HETATM    3  C   UNL     1      27.306  44.124  51.679  1.00  0.00     0.047 A 
HETATM    4  N   UNL     1      27.995  43.386  52.637  1.00  0.00    -0.238 N 
HETATM    5  N   UNL     1      27.795  42.050  52.433  1.00  0.00    -0.179 NA
HETATM    6  C   UNL     1      26.970  41.963  51.395  1.00  0.00     0.150 A 
HETATM    7  C   UNL     1      27.210  45.610  51.532  1.00  0.00     0.069 C 
HETATM    8  C   UNL     1      26.046  46.037  50.582  1.00  0.00    -0.040 C 
HETATM    9  C   UNL     1      26.346  47.449  50.039  1.00  0.00     0.015 C 
HETATM   10  C   UNL     1      24.721  46.103  51.369  1.00  0.00     0.015 C 
HETATM   11  C   UNL     1      25.909  45.062  49.376  1.00  0.00     0.039 C 
ENDROOT
BRANCH   1  12
HETATM   12  N   UNL     1      25.830  42.699  48.677  1.00  0.00    -0.334 N 
HETATM   13  C   UNL     1      24.717  42.262  48.005  1.00  0.00     0.316 C 
HETATM   14  N   UNL     1      25.053  41.537  46.890  1.00  0.00    -0.343 N 
HETATM   15  O   UNL     1      23.570  42.488  48.366  1.00  0.00    -0.247 OA
HETATM   16  H   UNL     1      25.945  41.072  46.960  1.00  0.00     0.164 HD
HETATM   17  H   UNL     1      26.681  42.770  48.143  1.00  0.00     0.165 HD
BRANCH  14  18
HETATM   18  C   UNL     1      24.035  40.838  46.127  1.00  0.00     0.124 C 
BRANCH  18  19
HETATM   19  C   UNL     1      23.819  39.378  46.526  1.00  0.00     0.019 C 
BRANCH  19  20
HETATM   20  C   UNL     1      22.342  39.000  46.642  1.00  0.00    -0.003 C 
HETATM   21  C   UNL     1      22.159  37.489  46.632  1.00  0.00     0.005 C 
ENDBRANCH  19  20
ENDBRANCH  18  19
ENDBRANCH  14  18
ENDBRANCH   1  12
BRANCH   4  22
HETATM   22  C   UNL     1      28.787  43.797  53.757  1.00  0.00     0.058 A 
HETATM   23  C   UNL     1      29.916  43.032  54.098  1.00  0.00     0.034 A 
HETATM   24  C   UNL     1      30.680  43.346  55.227  1.00  0.00     0.039 A 
HETATM   25  C   UNL     1      30.339  44.427  56.036  1.00  0.00     0.068 A 
HETATM   26  C   UNL     1      29.251  45.221  55.679  1.00  0.00     0.039 A 
HETATM   27  C   UNL     1      28.483  44.913  54.543  1.00  0.00     0.034 A 
BRANCH  25  28
HETATM   28  O   UNL     1      31.146  44.613  57.123  1.00  0.00    -0.356 OA
HETATM   29  C   UNL     1      30.627  45.425  58.171  1.00  0.00     0.210 C 
ENDBRANCH  25  28
ENDBRANCH   4  22
TORSDOF 6
ENDMDL
MODEL 10
REMARK VINA RESULT:      -6.9     12.907     15.327
REMARK  6 active torsions:
REMARK  status: ('A' for Active; 'I' for Inactive)
REMARK    1  A    between atoms: C_2  and  C_3 
REMARK    2  A    between atoms: C_3  and  C_4 
REMARK    3  A    between atoms: C_4  and  N_5 
REMARK       I    between atoms: N_5  and  C_6 
REMARK       I    between atoms: C_6  and  N_7 
REMARK    4  A    between atoms: N_7  and  C_8 
REMARK    5  A    between atoms: N_11  and  C_12 
REMARK    6  A    between atoms: C_15  and  O_16 
ROOT
HETATM    1  C   UNL     1      32.166  51.235  41.571  1.00  0.00     0.123 C 
HETATM    2  C   UNL     1      31.809  49.844  41.181  1.00  0.00     0.009 A 
HETATM    3  C   UNL     1      30.543  49.446  40.787  1.00  0.00     0.047 A 
HETATM    4  N   UNL     1      30.643  48.118  40.382  1.00  0.00    -0.238 N 
HETATM    5  N   UNL     1      31.926  47.674  40.544  1.00  0.00    -0.179 NA
HETATM    6  C   UNL     1      32.612  48.715  41.004  1.00  0.00     0.150 A 
HETATM    7  C   UNL     1      29.347  50.345  40.758  1.00  0.00     0.069 C 
HETATM    8  C   UNL     1      29.733  51.850  40.931  1.00  0.00    -0.040 C 
HETATM    9  C   UNL     1      28.502  52.618  41.450  1.00  0.00     0.015 C 
HETATM   10  C   UNL     1      30.128  52.451  39.566  1.00  0.00     0.015 C 
HETATM   11  C   UNL     1      30.894  52.024  41.953  1.00  0.00     0.039 C 
ENDROOT
BRANCH   1  12
HETATM   12  N   UNL     1      33.106  51.207  42.671  1.00  0.00    -0.334 N 
HETATM   13  C   UNL     1      34.386  51.659  42.479  1.00  0.00     0.316 C 
HETATM   14  N   UNL     1      35.093  51.688  43.654  1.00  0.00    -0.343 N 
HETATM   15  O   UNL     1      34.837  51.985  41.389  1.00  0.00    -0.247 OA
HETATM   16  H   UNL     1      34.781  51.011  44.334  1.00  0.00     0.164 HD
HETATM   17  H   UNL     1      32.730  51.297  43.602  1.00  0.00     0.165 HD
BRANCH  14  18
HETATM   18  C   UNL     1      36.517  51.972  43.654  1.00  0.00     0.124 C 
BRANCH  18  19
HETATM   19  C   UNL     1      36.890  53.395  44.072  1.00  0.00     0.019 C 
BRANCH  19  20
HETATM   20  C   UNL     1      37.692  53.447  45.373  1.00  0.00    -0.003 C 
HETATM   21  C   UNL     1      37.762  54.866  45.918  1.00  0.00     0.005 C 
ENDBRANCH  19  20
ENDBRANCH  18  19
ENDBRANCH  14  18
ENDBRANCH   1  12
BRANCH   4  22
HETATM   22  C   UNL     1      29.677  47.227  39.813  1.00  0.00     0.058 A 
HETATM   23  C   UNL     1      29.823  46.851  38.466  1.00  0.00     0.034 A 
HETATM   24  C   UNL     1      28.868  46.043  37.840  1.00  0.00     0.039 A 
HETATM   25  C   UNL     1      27.752  45.592  38.540  1.00  0.00     0.068 A 
HETATM   26  C   UNL     1      27.623  45.920  39.889  1.00  0.00     0.039 A 
HETATM   27  C   UNL     1      28.583  46.726  40.524  1.00  0.00     0.034 A 
BRANCH  25  28
HETATM   28  O   UNL     1      26.878  44.836  37.811  1.00  0.00    -0.356 OA
HETATM   29  C   UNL     1      27.175  44.675  36.429  1.00  0.00     0.210 C 
ENDBRANCH  25  28
ENDBRANCH   4  22
TORSDOF 6
ENDMDL
