MODEL 1
REMARK VINA RESULT:     -10.2      0.000      0.000
REMARK  6 active torsions:
REMARK  status: ('A' for Active; 'I' for Inactive)
REMARK    1  A    between atoms: N_6  and  C_7 
REMARK    2  A    between atoms: C_8  and  N_9 
REMARK    3  A    between atoms: C_10  and  N_11 
REMARK       I    between atoms: N_11  and  C_12 
REMARK    4  A    between atoms: C_12  and  C_13 
REMARK    5  A    between atoms: C_14  and  C_15 
REMARK    6  A    between atoms: C_17  and  C_18 
ROOT
HETATM    1  N   UNL     1      23.467  46.153  49.729  1.00  0.00    -0.300 N 
HETATM    2  C   UNL     1      24.557  45.297  49.748  1.00  0.00     0.247 C 
HETATM    3  O   UNL     1      24.960  44.651  48.790  1.00  0.00    -0.268 OA
HETATM    4  H   UNL     1      23.384  46.806  50.493  1.00  0.00     0.171 HD
ENDROOT
BRANCH   1   5
HETATM    5  C   UNL     1      22.336  46.040  48.956  1.00  0.00     0.179 C 
HETATM    6  N   UNL     1      21.670  47.191  48.645  1.00  0.00    -0.331 N 
HETATM    7  H   UNL     1      20.766  47.024  48.207  1.00  0.00     0.168 HD
HETATM    8  S   UNL     1      21.618  44.615  48.449  1.00  0.00    -0.040 SA
BRANCH   6   9
HETATM    9  C   UNL     1      22.045  48.553  48.605  1.00  0.00     0.061 A 
HETATM   10  C   UNL     1      20.993  49.504  48.771  1.00  0.00     0.057 A 
HETATM   11  C   UNL     1      21.306  50.859  48.582  1.00  0.00     0.031 A 
HETATM   12  C   UNL     1      22.608  51.271  48.287  1.00  0.00     0.002 A 
HETATM   13  C   UNL     1      23.622  50.332  48.145  1.00  0.00     0.002 A 
HETATM   14  C   UNL     1      23.341  48.975  48.288  1.00  0.00     0.032 A 
BRANCH  10  15
HETATM   15  N   UNL     1      19.695  49.066  49.102  1.00  0.00    -0.376 N 
HETATM   16  C   UNL     1      18.707  48.818  48.032  1.00  0.00     0.150 C 
HETATM   17  C   UNL     1      17.788  50.032  47.763  1.00  0.00     0.254 C 
HETATM   18  N   UNL     1      17.192  50.573  49.060  1.00  0.00    -0.072 N 
HETATM   19  C   UNL     1      16.302  51.756  48.822  1.00  0.00     0.269 C 
HETATM   20  H   UNL     1      16.613  49.822  49.461  1.00  0.00     0.279 HD
HETATM   21  C   UNL     1      18.288  50.886  50.076  1.00  0.00     0.254 C 
HETATM   22  C   UNL     1      19.136  49.631  50.353  1.00  0.00     0.150 C 
ENDBRANCH  10  15
ENDBRANCH   6   9
ENDBRANCH   1   5
BRANCH   2  23
HETATM   23  C   UNL     1      25.342  45.382  51.007  1.00  0.00     0.077 C 
HETATM   24  C   UNL     1      25.133  46.443  51.800  1.00  0.00     0.042 C 
BRANCH  24  25
HETATM   25  C   UNL     1      25.860  46.643  53.004  1.00  0.00     0.076 A 
HETATM   26  O   UNL     1      26.890  45.841  53.451  1.00  0.00    -0.310 OA
HETATM   27  C   UNL     1      27.391  46.377  54.605  1.00  0.00     0.086 A 
HETATM   28  C   UNL     1      26.663  47.495  54.945  1.00  0.00     0.041 A 
HETATM   29  C   UNL     1      25.703  47.670  53.924  1.00  0.00     0.040 A 
BRANCH  27  30
HETATM   30  C   UNL     1      28.542  45.704  55.202  1.00  0.00     0.001 A 
HETATM   31  C   UNL     1      29.102  46.149  56.407  1.00  0.00     0.038 A 
HETATM   32  C   UNL     1      30.173  45.464  56.987  1.00  0.00     0.036 A 
HETATM   33 CL   UNL     1      30.837  46.026  58.473  1.00  0.00    -0.084 Cl
HETATM   34  C   UNL     1      30.705  44.330  56.382  1.00  0.00     0.047 A 
HETATM   35  C   UNL     1      30.158  43.886  55.183  1.00  0.00     0.036 A 
HETATM   36 CL   UNL     1      30.804  42.487  54.417  1.00  0.00    -0.084 Cl
HETATM   37  C   UNL     1      29.086  44.561  54.595  1.00  0.00     0.038 A 
ENDBRANCH  27  30
ENDBRANCH  24  25
ENDBRANCH   2  23
TORSDOF 6
ENDMDL
MODEL 2
REMARK VINA RESULT:      -9.8      1.616      2.487
REMARK  6 active torsions:
REMARK  status: ('A' for Active; 'I' for Inactive)
REMARK    1  A    between atoms: N_6  and  C_7 
REMARK    2  A    between atoms: C_8  and  N_9 
REMARK    3  A    between atoms: C_10  and  N_11 
REMARK       I    between atoms: N_11  and  C_12 
REMARK    4  A    between atoms: C_12  and  C_13 
REMARK    5  A    between atoms: C_14  and  C_15 
REMARK    6  A    between atoms: C_17  and  C_18 
ROOT
HETATM    1  N   UNL     1      22.755  45.773  48.010  1.00  0.00    -0.300 N 
HETATM    2  C   UNL     1      22.593  44.663  48.825  1.00  0.00     0.247 C 
HETATM    3  O   UNL     1      21.907  43.686  48.554  1.00  0.00    -0.268 OA
HETATM    4  H   UNL     1      23.523  46.390  48.224  1.00  0.00     0.171 HD
ENDROOT
BRANCH   1   5
HETATM    5  C   UNL     1      21.841  46.292  47.125  1.00  0.00     0.179 C 
HETATM    6  N   UNL     1      21.446  47.586  47.317  1.00  0.00    -0.331 N 
HETATM    7  H   UNL     1      20.660  47.856  46.728  1.00  0.00     0.168 HD
HETATM    8  S   UNL     1      21.067  45.463  45.894  1.00  0.00    -0.040 SA
BRANCH   6   9
HETATM    9  C   UNL     1      22.014  48.687  47.996  1.00  0.00     0.061 A 
HETATM   10  C   UNL     1      21.118  49.737  48.359  1.00  0.00     0.057 A 
HETATM   11  C   UNL     1      21.673  50.910  48.894  1.00  0.00     0.031 A 
HETATM   12  C   UNL     1      23.048  51.033  49.106  1.00  0.00     0.002 A 
HETATM   13  C   UNL     1      23.903  49.994  48.761  1.00  0.00     0.002 A 
HETATM   14  C   UNL     1      23.392  48.829  48.193  1.00  0.00     0.032 A 
BRANCH  10  15
HETATM   15  N   UNL     1      19.730  49.577  48.167  1.00  0.00    -0.376 N 
HETATM   16  C   UNL     1      19.009  50.469  47.235  1.00  0.00     0.150 C 
HETATM   17  C   UNL     1      18.358  51.681  47.940  1.00  0.00     0.254 C 
HETATM   18  N   UNL     1      17.543  51.243  49.154  1.00  0.00    -0.072 N 
HETATM   19  C   UNL     1      16.908  52.405  49.856  1.00  0.00     0.269 C 
HETATM   20  H   UNL     1      16.787  50.637  48.806  1.00  0.00     0.279 HD
HETATM   21  C   UNL     1      18.390  50.402  50.106  1.00  0.00     0.254 C 
HETATM   22  C   UNL     1      18.966  49.177  49.371  1.00  0.00     0.150 C 
ENDBRANCH  10  15
ENDBRANCH   6   9
ENDBRANCH   1   5
BRANCH   2  23
HETATM   23  C   UNL     1      23.502  44.667  50.000  1.00  0.00     0.077 C 
HETATM   24  C   UNL     1      24.144  45.808  50.287  1.00  0.00     0.042 C 
BRANCH  24  25
HETATM   25  C   UNL     1      25.068  45.908  51.362  1.00  0.00     0.076 A 
HETATM   26  O   UNL     1      25.884  44.887  51.803  1.00  0.00    -0.310 OA
HETATM   27  C   UNL     1      26.681  45.368  52.805  1.00  0.00     0.086 A 
HETATM   28  C   UNL     1      26.358  46.682  53.057  1.00  0.00     0.041 A 
HETATM   29  C   UNL     1      25.346  47.027  52.134  1.00  0.00     0.040 A 
BRANCH  27  30
HETATM   30  C   UNL     1      27.670  44.448  53.362  1.00  0.00     0.001 A 
HETATM   31  C   UNL     1      27.800  43.138  52.881  1.00  0.00     0.038 A 
HETATM   32  C   UNL     1      28.783  42.288  53.395  1.00  0.00     0.036 A 
HETATM   33 CL   UNL     1      28.928  40.687  52.779  1.00  0.00    -0.084 Cl
HETATM   34  C   UNL     1      29.650  42.722  54.393  1.00  0.00     0.047 A 
HETATM   35  C   UNL     1      29.523  44.018  54.879  1.00  0.00     0.036 A 
HETATM   36 CL   UNL     1      30.584  44.573  56.115  1.00  0.00    -0.084 Cl
HETATM   37  C   UNL     1      28.546  44.878  54.372  1.00  0.00     0.038 A 
ENDBRANCH  27  30
ENDBRANCH  24  25
ENDBRANCH   2  23
TORSDOF 6
ENDMDL
MODEL 3
REMARK VINA RESULT:      -9.5      2.001      2.937
REMARK  6 active torsions:
REMARK  status: ('A' for Active; 'I' for Inactive)
REMARK    1  A    between atoms: N_6  and  C_7 
REMARK    2  A    between atoms: C_8  and  N_9 
REMARK    3  A    between atoms: C_10  and  N_11 
REMARK       I    between atoms: N_11  and  C_12 
REMARK    4  A    between atoms: C_12  and  C_13 
REMARK    5  A    between atoms: C_14  and  C_15 
REMARK    6  A    between atoms: C_17  and  C_18 
ROOT
HETATM    1  N   UNL     1      22.349  45.832  47.561  1.00  0.00    -0.300 N 
HETATM    2  C   UNL     1      22.237  45.154  48.765  1.00  0.00     0.247 C 
HETATM    3  O   UNL     1      21.254  44.521  49.126  1.00  0.00    -0.268 OA
HETATM    4  H   UNL     1      23.277  46.103  47.273  1.00  0.00     0.171 HD
ENDROOT
BRANCH   1   5
HETATM    5  C   UNL     1      21.338  46.430  46.848  1.00  0.00     0.179 C 
HETATM    6  N   UNL     1      20.988  47.702  47.201  1.00  0.00    -0.331 N 
HETATM    7  H   UNL     1      20.138  48.025  46.743  1.00  0.00     0.168 HD
HETATM    8  S   UNL     1      20.402  45.714  45.659  1.00  0.00    -0.040 SA
BRANCH   6   9
HETATM    9  C   UNL     1      21.652  48.738  47.895  1.00  0.00     0.061 A 
HETATM   10  C   UNL     1      20.862  49.875  48.245  1.00  0.00     0.057 A 
HETATM   11  C   UNL     1      21.524  50.983  48.795  1.00  0.00     0.031 A 
HETATM   12  C   UNL     1      22.900  50.963  49.035  1.00  0.00     0.002 A 
HETATM   13  C   UNL     1      23.650  49.843  48.703  1.00  0.00     0.002 A 
HETATM   14  C   UNL     1      23.033  48.737  48.120  1.00  0.00     0.032 A 
BRANCH  10  15
HETATM   15  N   UNL     1      19.469  49.858  48.025  1.00  0.00    -0.376 N 
HETATM   16  C   UNL     1      18.851  50.874  47.147  1.00  0.00     0.150 C 
HETATM   17  C   UNL     1      18.302  52.092  47.924  1.00  0.00     0.254 C 
HETATM   18  N   UNL     1      17.427  51.652  49.095  1.00  0.00    -0.072 N 
HETATM   19  C   UNL     1      16.890  52.820  49.866  1.00  0.00     0.269 C 
HETATM   20  H   UNL     1      16.625  51.145  48.698  1.00  0.00     0.279 HD
HETATM   21  C   UNL     1      18.175  50.674  49.998  1.00  0.00     0.254 C 
HETATM   22  C   UNL     1      18.649  49.453  49.189  1.00  0.00     0.150 C 
ENDBRANCH  10  15
ENDBRANCH   6   9
ENDBRANCH   1   5
BRANCH   2  23
HETATM   23  C   UNL     1      23.517  45.089  49.518  1.00  0.00     0.077 C 
HETATM   24  C   UNL     1      23.744  43.999  50.264  1.00  0.00     0.042 C 
BRANCH  24  25
HETATM   25  C   UNL     1      24.915  43.855  51.057  1.00  0.00     0.076 A 
HETATM   26  O   UNL     1      25.373  44.781  51.970  1.00  0.00    -0.310 OA
HETATM   27  C   UNL     1      26.482  44.273  52.587  1.00  0.00     0.086 A 
HETATM   28  C   UNL     1      26.784  43.043  52.048  1.00  0.00     0.041 A 
HETATM   29  C   UNL     1      25.783  42.773  51.089  1.00  0.00     0.040 A 
BRANCH  27  30
HETATM   30  C   UNL     1      27.081  45.084  53.645  1.00  0.00     0.001 A 
HETATM   31  C   UNL     1      28.284  44.710  54.258  1.00  0.00     0.038 A 
HETATM   32  C   UNL     1      28.865  45.522  55.235  1.00  0.00     0.036 A 
HETATM   33 CL   UNL     1      30.349  45.044  55.965  1.00  0.00    -0.084 Cl
HETATM   34  C   UNL     1      28.263  46.716  55.620  1.00  0.00     0.047 A 
HETATM   35  C   UNL     1      27.066  47.090  55.020  1.00  0.00     0.036 A 
HETATM   36 CL   UNL     1      26.304  48.562  55.484  1.00  0.00    -0.084 Cl
HETATM   37  C   UNL     1      26.477  46.288  54.041  1.00  0.00     0.038 A 
ENDBRANCH  27  30
ENDBRANCH  24  25
ENDBRANCH   2  23
TORSDOF 6
ENDMDL
MODEL 4
REMARK VINA RESULT:      -9.4      1.913      2.401
REMARK  6 active torsions:
REMARK  status: ('A' for Active; 'I' for Inactive)
REMARK    1  A    between atoms: N_6  and  C_7 
REMARK    2  A    between atoms: C_8  and  N_9 
REMARK    3  A    between atoms: C_10  and  N_11 
REMARK       I    between atoms: N_11  and  C_12 
REMARK    4  A    between atoms: C_12  and  C_13 
REMARK    5  A    between atoms: C_14  and  C_15 
REMARK    6  A    between atoms: C_17  and  C_18 
ROOT
HETATM    1  N   UNL     1      22.732  46.386  49.232  1.00  0.00    -0.300 N 
HETATM    2  C   UNL     1      23.965  46.983  49.439  1.00  0.00     0.247 C 
HETATM    3  O   UNL     1      24.379  47.967  48.841  1.00  0.00    -0.268 OA
HETATM    4  H   UNL     1      22.407  45.747  49.942  1.00  0.00     0.171 HD
ENDROOT
BRANCH   1   5
HETATM    5  C   UNL     1      22.023  46.333  48.056  1.00  0.00     0.179 C 
HETATM    6  N   UNL     1      20.900  47.106  47.965  1.00  0.00    -0.331 N 
HETATM    7  H   UNL     1      20.341  46.904  47.137  1.00  0.00     0.168 HD
HETATM    8  S   UNL     1      22.328  45.325  46.755  1.00  0.00    -0.040 SA
BRANCH   6   9
HETATM    9  C   UNL     1      20.452  48.258  48.649  1.00  0.00     0.061 A 
HETATM   10  C   UNL     1      19.039  48.460  48.693  1.00  0.00     0.057 A 
HETATM   11  C   UNL     1      18.571  49.670  49.228  1.00  0.00     0.031 A 
HETATM   12  C   UNL     1      19.450  50.626  49.741  1.00  0.00     0.002 A 
HETATM   13  C   UNL     1      20.821  50.406  49.704  1.00  0.00     0.002 A 
HETATM   14  C   UNL     1      21.324  49.232  49.147  1.00  0.00     0.032 A 
BRANCH  10  15
HETATM   15  N   UNL     1      18.171  47.464  48.199  1.00  0.00    -0.376 N 
HETATM   16  C   UNL     1      18.069  47.234  46.743  1.00  0.00     0.150 C 
HETATM   17  C   UNL     1      16.898  48.003  46.089  1.00  0.00     0.254 C 
HETATM   18  N   UNL     1      15.597  47.787  46.856  1.00  0.00    -0.072 N 
HETATM   19  C   UNL     1      14.450  48.531  46.241  1.00  0.00     0.269 C 
HETATM   20  H   UNL     1      15.381  46.782  46.805  1.00  0.00     0.279 HD
HETATM   21  C   UNL     1      15.769  48.134  48.333  1.00  0.00     0.254 C 
HETATM   22  C   UNL     1      16.905  47.299  48.951  1.00  0.00     0.150 C 
ENDBRANCH  10  15
ENDBRANCH   6   9
ENDBRANCH   1   5
BRANCH   2  23
HETATM   23  C   UNL     1      24.685  46.437  50.620  1.00  0.00     0.077 C 
HETATM   24  C   UNL     1      25.079  47.305  51.563  1.00  0.00     0.042 C 
BRANCH  24  25
HETATM   25  C   UNL     1      25.811  46.895  52.710  1.00  0.00     0.076 A 
HETATM   26  O   UNL     1      26.635  45.791  52.772  1.00  0.00    -0.310 OA
HETATM   27  C   UNL     1      27.219  45.751  54.008  1.00  0.00     0.086 A 
HETATM   28  C   UNL     1      26.744  46.792  54.773  1.00  0.00     0.041 A 
HETATM   29  C   UNL     1      25.863  47.524  53.947  1.00  0.00     0.040 A 
BRANCH  27  30
HETATM   30  C   UNL     1      28.187  44.683  54.248  1.00  0.00     0.001 A 
HETATM   31  C   UNL     1      29.255  44.854  55.139  1.00  0.00     0.038 A 
HETATM   32  C   UNL     1      30.143  43.806  55.392  1.00  0.00     0.036 A 
HETATM   33 CL   UNL     1      31.441  44.038  56.499  1.00  0.00    -0.084 Cl
HETATM   34  C   UNL     1      29.988  42.573  54.764  1.00  0.00     0.047 A 
HETATM   35  C   UNL     1      28.934  42.399  53.874  1.00  0.00     0.036 A 
HETATM   36 CL   UNL     1      28.726  40.883  53.085  1.00  0.00    -0.084 Cl
HETATM   37  C   UNL     1      28.039  43.439  53.616  1.00  0.00     0.038 A 
ENDBRANCH  27  30
ENDBRANCH  24  25
ENDBRANCH   2  23
TORSDOF 6
ENDMDL
MODEL 5
REMARK VINA RESULT:      -9.4      2.529      3.809
REMARK  6 active torsions:
REMARK  status: ('A' for Active; 'I' for Inactive)
REMARK    1  A    between atoms: N_6  and  C_7 
REMARK    2  A    between atoms: C_8  and  N_9 
REMARK    3  A    between atoms: C_10  and  N_11 
REMARK       I    between atoms: N_11  and  C_12 
REMARK    4  A    between atoms: C_12  and  C_13 
REMARK    5  A    between atoms: C_14  and  C_15 
REMARK    6  A    between atoms: C_17  and  C_18 
ROOT
HETATM    1  N   UNL     1      21.664  47.757  49.031  1.00  0.00    -0.300 N 
HETATM    2  C   UNL     1      22.950  48.178  48.732  1.00  0.00     0.247 C 
HETATM    3  O   UNL     1      23.266  48.821  47.740  1.00  0.00    -0.268 OA
HETATM    4  H   UNL     1      21.488  47.458  49.978  1.00  0.00     0.171 HD
ENDROOT
BRANCH   1   5
HETATM    5  C   UNL     1      20.670  47.430  48.140  1.00  0.00     0.179 C 
HETATM    6  N   UNL     1      19.582  48.254  48.082  1.00  0.00    -0.331 N 
HETATM    7  H   UNL     1      18.821  47.873  47.522  1.00  0.00     0.168 HD
HETATM    8  S   UNL     1      20.598  46.050  47.194  1.00  0.00    -0.040 SA
BRANCH   6   9
HETATM    9  C   UNL     1      19.358  49.599  48.451  1.00  0.00     0.061 A 
HETATM   10  C   UNL     1      18.718  50.425  47.478  1.00  0.00     0.057 A 
HETATM   11  C   UNL     1      18.622  51.798  47.752  1.00  0.00     0.031 A 
HETATM   12  C   UNL     1      19.094  52.335  48.952  1.00  0.00     0.002 A 
HETATM   13  C   UNL     1      19.700  51.514  49.894  1.00  0.00     0.002 A 
HETATM   14  C   UNL     1      19.847  50.151  49.640  1.00  0.00     0.032 A 
BRANCH  10  15
HETATM   15  N   UNL     1      18.219  49.854  46.289  1.00  0.00    -0.376 N 
HETATM   16  C   UNL     1      18.588  50.437  44.982  1.00  0.00     0.150 C 
HETATM   17  C   UNL     1      17.543  51.446  44.453  1.00  0.00     0.254 C 
HETATM   18  N   UNL     1      16.134  50.864  44.511  1.00  0.00    -0.072 N 
HETATM   19  C   UNL     1      15.104  51.831  44.008  1.00  0.00     0.269 C 
HETATM   20  H   UNL     1      16.121  50.044  43.890  1.00  0.00     0.279 HD
HETATM   21  C   UNL     1      15.804  50.368  45.917  1.00  0.00     0.254 C 
HETATM   22  C   UNL     1      16.839  49.323  46.372  1.00  0.00     0.150 C 
ENDBRANCH  10  15
ENDBRANCH   6   9
ENDBRANCH   1   5
BRANCH   2  23
HETATM   23  C   UNL     1      23.909  47.951  49.844  1.00  0.00     0.077 C 
HETATM   24  C   UNL     1      24.273  46.688  50.104  1.00  0.00     0.042 C 
BRANCH  24  25
HETATM   25  C   UNL     1      25.151  46.356  51.171  1.00  0.00     0.076 A 
HETATM   26  O   UNL     1      25.889  45.194  51.258  1.00  0.00    -0.310 OA
HETATM   27  C   UNL     1      26.664  45.253  52.383  1.00  0.00     0.086 A 
HETATM   28  C   UNL     1      26.402  46.423  53.060  1.00  0.00     0.041 A 
HETATM   29  C   UNL     1      25.454  47.127  52.285  1.00  0.00     0.040 A 
BRANCH  27  30
HETATM   30  C   UNL     1      27.575  44.135  52.619  1.00  0.00     0.001 A 
HETATM   31  C   UNL     1      27.529  42.979  51.828  1.00  0.00     0.038 A 
HETATM   32  C   UNL     1      28.438  41.939  52.038  1.00  0.00     0.036 A 
HETATM   33 CL   UNL     1      28.367  40.534  51.046  1.00  0.00    -0.084 Cl
HETATM   34  C   UNL     1      29.405  42.028  53.035  1.00  0.00     0.047 A 
HETATM   35  C   UNL     1      29.453  43.170  53.827  1.00  0.00     0.036 A 
HETATM   36 CL   UNL     1      30.640  43.299  55.067  1.00  0.00    -0.084 Cl
HETATM   37  C   UNL     1      28.551  44.217  53.625  1.00  0.00     0.038 A 
ENDBRANCH  27  30
ENDBRANCH  24  25
ENDBRANCH   2  23
TORSDOF 6
ENDMDL
MODEL 6
REMARK VINA RESULT:      -9.3      5.583     10.467
REMARK  6 active torsions:
REMARK  status: ('A' for Active; 'I' for Inactive)
REMARK    1  A    between atoms: N_6  and  C_7 
REMARK    2  A    between atoms: C_8  and  N_9 
REMARK    3  A    between atoms: C_10  and  N_11 
REMARK       I    between atoms: N_11  and  C_12 
REMARK    4  A    between atoms: C_12  and  C_13 
REMARK    5  A    between atoms: C_14  and  C_15 
REMARK    6  A    between atoms: C_17  and  C_18 
ROOT
HETATM    1  N   UNL     1      26.882  44.794  51.605  1.00  0.00    -0.300 N 
HETATM    2  C   UNL     1      26.344  45.791  52.403  1.00  0.00     0.247 C 
HETATM    3  O   UNL     1      26.613  45.968  53.584  1.00  0.00    -0.268 OA
HETATM    4  H   UNL     1      26.776  44.899  50.607  1.00  0.00     0.171 HD
ENDROOT
BRANCH   1   5
HETATM    5  C   UNL     1      27.293  43.544  52.002  1.00  0.00     0.179 C 
HETATM    6  N   UNL     1      26.440  42.501  51.777  1.00  0.00    -0.331 N 
HETATM    7  H   UNL     1      26.733  41.638  52.231  1.00  0.00     0.168 HD
HETATM    8  S   UNL     1      28.691  43.179  52.848  1.00  0.00    -0.040 SA
BRANCH   6   9
HETATM    9  C   UNL     1      25.359  42.302  50.889  1.00  0.00     0.061 A 
HETATM   10  C   UNL     1      25.603  41.439  49.777  1.00  0.00     0.057 A 
HETATM   11  C   UNL     1      24.604  41.343  48.796  1.00  0.00     0.031 A 
HETATM   12  C   UNL     1      23.394  42.030  48.920  1.00  0.00     0.002 A 
HETATM   13  C   UNL     1      23.168  42.853  50.017  1.00  0.00     0.002 A 
HETATM   14  C   UNL     1      24.152  43.002  50.992  1.00  0.00     0.032 A 
BRANCH  10  15
HETATM   15  N   UNL     1      26.819  40.730  49.692  1.00  0.00    -0.376 N 
HETATM   16  C   UNL     1      27.880  41.198  48.776  1.00  0.00     0.150 C 
HETATM   17  C   UNL     1      27.845  40.496  47.399  1.00  0.00     0.254 C 
HETATM   18  N   UNL     1      27.767  38.980  47.553  1.00  0.00    -0.072 N 
HETATM   19  C   UNL     1      27.725  38.280  46.227  1.00  0.00     0.269 C 
HETATM   20  H   UNL     1      28.625  38.681  48.036  1.00  0.00     0.279 HD
HETATM   21  C   UNL     1      26.589  38.581  48.440  1.00  0.00     0.254 C 
HETATM   22  C   UNL     1      26.703  39.259  49.818  1.00  0.00     0.150 C 
ENDBRANCH  10  15
ENDBRANCH   6   9
ENDBRANCH   1   5
BRANCH   2  23
HETATM   23  C   UNL     1      25.541  46.780  51.637  1.00  0.00     0.077 C 
HETATM   24  C   UNL     1      25.949  47.085  50.397  1.00  0.00     0.042 C 
BRANCH  24  25
HETATM   25  C   UNL     1      25.280  48.048  49.595  1.00  0.00     0.076 A 
HETATM   26  O   UNL     1      23.925  48.061  49.337  1.00  0.00    -0.310 OA
HETATM   27  C   UNL     1      23.635  49.168  48.588  1.00  0.00     0.086 A 
HETATM   28  C   UNL     1      24.796  49.852  48.310  1.00  0.00     0.041 A 
HETATM   29  C   UNL     1      25.836  49.150  48.960  1.00  0.00     0.040 A 
BRANCH  27  30
HETATM   30  C   UNL     1      22.228  49.397  48.265  1.00  0.00     0.001 A 
HETATM   31  C   UNL     1      21.615  50.633  48.512  1.00  0.00     0.038 A 
HETATM   32  C   UNL     1      20.283  50.848  48.154  1.00  0.00     0.036 A 
HETATM   33 CL   UNL     1      19.557  52.380  48.459  1.00  0.00    -0.084 Cl
HETATM   34  C   UNL     1      19.536  49.843  47.547  1.00  0.00     0.047 A 
HETATM   35  C   UNL     1      20.136  48.612  47.304  1.00  0.00     0.036 A 
HETATM   36 CL   UNL     1      19.229  47.355  46.556  1.00  0.00    -0.084 Cl
HETATM   37  C   UNL     1      21.468  48.386  47.655  1.00  0.00     0.038 A 
ENDBRANCH  27  30
ENDBRANCH  24  25
ENDBRANCH   2  23
TORSDOF 6
ENDMDL
MODEL 7
REMARK VINA RESULT:      -9.2      2.303      3.097
REMARK  6 active torsions:
REMARK  status: ('A' for Active; 'I' for Inactive)
REMARK    1  A    between atoms: N_6  and  C_7 
REMARK    2  A    between atoms: C_8  and  N_9 
REMARK    3  A    between atoms: C_10  and  N_11 
REMARK       I    between atoms: N_11  and  C_12 
REMARK    4  A    between atoms: C_12  and  C_13 
REMARK    5  A    between atoms: C_14  and  C_15 
REMARK    6  A    between atoms: C_17  and  C_18 
ROOT
HETATM    1  N   UNL     1      23.266  43.917  48.118  1.00  0.00    -0.300 N 
HETATM    2  C   UNL     1      23.352  43.097  49.232  1.00  0.00     0.247 C 
HETATM    3  O   UNL     1      22.530  42.245  49.544  1.00  0.00    -0.268 OA
HETATM    4  H   UNL     1      24.107  44.396  47.837  1.00  0.00     0.171 HD
ENDROOT
BRANCH   1   5
HETATM    5  C   UNL     1      22.121  44.381  47.516  1.00  0.00     0.179 C 
HETATM    6  N   UNL     1      21.658  45.605  47.907  1.00  0.00    -0.331 N 
HETATM    7  H   UNL     1      20.732  45.818  47.541  1.00  0.00     0.168 HD
HETATM    8  S   UNL     1      21.161  43.546  46.428  1.00  0.00    -0.040 SA
BRANCH   6   9
HETATM    9  C   UNL     1      22.260  46.720  48.532  1.00  0.00     0.061 A 
HETATM   10  C   UNL     1      21.460  47.899  48.630  1.00  0.00     0.057 A 
HETATM   11  C   UNL     1      22.078  49.067  49.103  1.00  0.00     0.031 A 
HETATM   12  C   UNL     1      23.416  49.070  49.506  1.00  0.00     0.002 A 
HETATM   13  C   UNL     1      24.174  47.909  49.418  1.00  0.00     0.002 A 
HETATM   14  C   UNL     1      23.604  46.740  48.918  1.00  0.00     0.032 A 
BRANCH  10  15
HETATM   15  N   UNL     1      20.103  47.862  48.249  1.00  0.00    -0.376 N 
HETATM   16  C   UNL     1      19.610  48.775  47.197  1.00  0.00     0.150 C 
HETATM   17  C   UNL     1      18.993  50.075  47.763  1.00  0.00     0.254 C 
HETATM   18  N   UNL     1      17.980  49.773  48.863  1.00  0.00    -0.072 N 
HETATM   19  C   UNL     1      17.375  51.022  49.430  1.00  0.00     0.269 C 
HETATM   20  H   UNL     1      17.222  49.227  48.433  1.00  0.00     0.279 HD
HETATM   21  C   UNL     1      18.600  48.900  49.952  1.00  0.00     0.254 C 
HETATM   22  C   UNL     1      19.145  47.594  49.346  1.00  0.00     0.150 C 
ENDBRANCH  10  15
ENDBRANCH   6   9
ENDBRANCH   1   5
BRANCH   2  23
HETATM   23  C   UNL     1      24.660  43.200  49.931  1.00  0.00     0.077 C 
HETATM   24  C   UNL     1      25.204  42.069  50.401  1.00  0.00     0.042 C 
BRANCH  24  25
HETATM   25  C   UNL     1      26.430  42.060  51.121  1.00  0.00     0.076 A 
HETATM   26  O   UNL     1      26.820  43.020  52.031  1.00  0.00    -0.310 OA
HETATM   27  C   UNL     1      28.020  42.647  52.570  1.00  0.00     0.086 A 
HETATM   28  C   UNL     1      28.442  41.476  51.982  1.00  0.00     0.041 A 
HETATM   29  C   UNL     1      27.429  41.098  51.075  1.00  0.00     0.040 A 
BRANCH  27  30
HETATM   30  C   UNL     1      28.574  43.507  53.614  1.00  0.00     0.001 A 
HETATM   31  C   UNL     1      28.048  44.783  53.860  1.00  0.00     0.038 A 
HETATM   32  C   UNL     1      28.560  45.573  54.893  1.00  0.00     0.036 A 
HETATM   33 CL   UNL     1      27.889  47.132  55.182  1.00  0.00    -0.084 Cl
HETATM   34  C   UNL     1      29.599  45.112  55.695  1.00  0.00     0.047 A 
HETATM   35  C   UNL     1      30.129  43.850  55.451  1.00  0.00     0.036 A 
HETATM   36 CL   UNL     1      31.418  43.263  56.431  1.00  0.00    -0.084 Cl
HETATM   37  C   UNL     1      29.625  43.050  54.424  1.00  0.00     0.038 A 
ENDBRANCH  27  30
ENDBRANCH  24  25
ENDBRANCH   2  23
TORSDOF 6
ENDMDL
MODEL 8
REMARK VINA RESULT:      -9.2      2.346      3.628
REMARK  6 active torsions:
REMARK  status: ('A' for Active; 'I' for Inactive)
REMARK    1  A    between atoms: N_6  and  C_7 
REMARK    2  A    between atoms: C_8  and  N_9 
REMARK    3  A    between atoms: C_10  and  N_11 
REMARK       I    between atoms: N_11  and  C_12 
REMARK    4  A    between atoms: C_12  and  C_13 
REMARK    5  A    between atoms: C_14  and  C_15 
REMARK    6  A    between atoms: C_17  and  C_18 
ROOT
HETATM    1  N   UNL     1      21.035  46.947  49.127  1.00  0.00    -0.300 N 
HETATM    2  C   UNL     1      22.194  47.120  48.387  1.00  0.00     0.247 C 
HETATM    3  O   UNL     1      22.257  47.676  47.299  1.00  0.00    -0.268 OA
HETATM    4  H   UNL     1      21.144  46.701  50.099  1.00  0.00     0.171 HD
ENDROOT
BRANCH   1   5
HETATM    5  C   UNL     1      19.757  46.791  48.645  1.00  0.00     0.179 C 
HETATM    6  N   UNL     1      18.922  47.869  48.719  1.00  0.00    -0.331 N 
HETATM    7  H   UNL     1      17.955  47.643  48.491  1.00  0.00     0.168 HD
HETATM    8  S   UNL     1      19.076  45.371  48.077  1.00  0.00    -0.040 SA
BRANCH   6   9
HETATM    9  C   UNL     1      19.136  49.261  48.837  1.00  0.00     0.061 A 
HETATM   10  C   UNL     1      18.680  50.066  47.750  1.00  0.00     0.057 A 
HETATM   11  C   UNL     1      19.015  51.429  47.765  1.00  0.00     0.031 A 
HETATM   12  C   UNL     1      19.729  51.991  48.826  1.00  0.00     0.002 A 
HETATM   13  C   UNL     1      20.151  51.194  49.883  1.00  0.00     0.002 A 
HETATM   14  C   UNL     1      19.869  49.830  49.884  1.00  0.00     0.032 A 
BRANCH  10  15
HETATM   15  N   UNL     1      17.932  49.483  46.708  1.00  0.00    -0.376 N 
HETATM   16  C   UNL     1      18.457  49.499  45.326  1.00  0.00     0.150 C 
HETATM   17  C   UNL     1      17.929  50.687  44.491  1.00  0.00     0.254 C 
HETATM   18  N   UNL     1      16.410  50.801  44.590  1.00  0.00    -0.072 N 
HETATM   19  C   UNL     1      15.878  51.953  43.792  1.00  0.00     0.269 C 
HETATM   20  H   UNL     1      16.017  49.937  44.193  1.00  0.00     0.279 HD
HETATM   21  C   UNL     1      15.962  50.869  46.048  1.00  0.00     0.254 C 
HETATM   22  C   UNL     1      16.463  49.635  46.821  1.00  0.00     0.150 C 
ENDBRANCH  10  15
ENDBRANCH   6   9
ENDBRANCH   1   5
BRANCH   2  23
HETATM   23  C   UNL     1      23.422  46.741  49.133  1.00  0.00     0.077 C 
HETATM   24  C   UNL     1      23.807  45.458  49.087  1.00  0.00     0.042 C 
BRANCH  24  25
HETATM   25  C   UNL     1      24.942  44.981  49.798  1.00  0.00     0.076 A 
HETATM   26  O   UNL     1      25.412  45.507  50.983  1.00  0.00    -0.310 OA
HETATM   27  C   UNL     1      26.474  44.754  51.403  1.00  0.00     0.086 A 
HETATM   28  C   UNL     1      26.733  43.770  50.476  1.00  0.00     0.041 A 
HETATM   29  C   UNL     1      25.754  43.906  49.467  1.00  0.00     0.040 A 
BRANCH  27  30
HETATM   30  C   UNL     1      27.074  45.114  52.685  1.00  0.00     0.001 A 
HETATM   31  C   UNL     1      26.625  46.224  53.414  1.00  0.00     0.038 A 
HETATM   32  C   UNL     1      27.180  46.525  54.661  1.00  0.00     0.036 A 
HETATM   33 CL   UNL     1      26.603  47.888  55.541  1.00  0.00    -0.084 Cl
HETATM   34  C   UNL     1      28.188  45.734  55.203  1.00  0.00     0.047 A 
HETATM   35  C   UNL     1      28.642  44.635  54.482  1.00  0.00     0.036 A 
HETATM   36 CL   UNL     1      29.891  43.645  55.134  1.00  0.00    -0.084 Cl
HETATM   37  C   UNL     1      28.094  44.322  53.236  1.00  0.00     0.038 A 
ENDBRANCH  27  30
ENDBRANCH  24  25
ENDBRANCH   2  23
TORSDOF 6
ENDMDL
MODEL 9
REMARK VINA RESULT:      -8.7      6.036     11.844
REMARK  6 active torsions:
REMARK  status: ('A' for Active; 'I' for Inactive)
REMARK    1  A    between atoms: N_6  and  C_7 
REMARK    2  A    between atoms: C_8  and  N_9 
REMARK    3  A    between atoms: C_10  and  N_11 
REMARK       I    between atoms: N_11  and  C_12 
REMARK    4  A    between atoms: C_12  and  C_13 
REMARK    5  A    between atoms: C_14  and  C_15 
REMARK    6  A    between atoms: C_17  and  C_18 
ROOT
HETATM    1  N   UNL     1      23.478  49.390  48.467  1.00  0.00    -0.300 N 
HETATM    2  C   UNL     1      22.725  50.260  49.241  1.00  0.00     0.247 C 
HETATM    3  O   UNL     1      23.178  51.184  49.903  1.00  0.00    -0.268 OA
HETATM    4  H   UNL     1      22.981  48.837  47.786  1.00  0.00     0.171 HD
ENDROOT
BRANCH   1   5
HETATM    5  C   UNL     1      24.768  48.979  48.699  1.00  0.00     0.179 C 
HETATM    6  N   UNL     1      24.942  47.784  49.336  1.00  0.00    -0.331 N 
HETATM    7  H   UNL     1      25.907  47.614  49.613  1.00  0.00     0.168 HD
HETATM    8  S   UNL     1      26.162  49.853  48.384  1.00  0.00    -0.040 SA
BRANCH   6   9
HETATM    9  C   UNL     1      24.124  46.645  49.509  1.00  0.00     0.061 A 
HETATM   10  C   UNL     1      24.616  45.641  50.397  1.00  0.00     0.057 A 
HETATM   11  C   UNL     1      23.905  44.433  50.472  1.00  0.00     0.031 A 
HETATM   12  C   UNL     1      22.733  44.232  49.739  1.00  0.00     0.002 A 
HETATM   13  C   UNL     1      22.261  45.227  48.892  1.00  0.00     0.002 A 
HETATM   14  C   UNL     1      22.960  46.425  48.764  1.00  0.00     0.032 A 
BRANCH  10  15
HETATM   15  N   UNL     1      25.782  45.880  51.152  1.00  0.00    -0.376 N 
HETATM   16  C   UNL     1      26.945  44.978  51.014  1.00  0.00     0.150 C 
HETATM   17  C   UNL     1      26.975  43.860  52.081  1.00  0.00     0.254 C 
HETATM   18  N   UNL     1      26.780  44.429  53.483  1.00  0.00    -0.072 N 
HETATM   19  C   UNL     1      26.800  43.359  54.533  1.00  0.00     0.269 C 
HETATM   20  H   UNL     1      27.573  45.059  53.666  1.00  0.00     0.279 HD
HETATM   21  C   UNL     1      25.509  45.272  53.559  1.00  0.00     0.254 C 
HETATM   22  C   UNL     1      25.556  46.405  52.518  1.00  0.00     0.150 C 
ENDBRANCH  10  15
ENDBRANCH   6   9
ENDBRANCH   1   5
BRANCH   2  23
HETATM   23  C   UNL     1      21.261  50.099  49.040  1.00  0.00     0.077 C 
HETATM   24  C   UNL     1      20.477  51.151  49.315  1.00  0.00     0.042 C 
BRANCH  24  25
HETATM   25  C   UNL     1      19.062  51.092  49.198  1.00  0.00     0.076 A 
HETATM   26  O   UNL     1      18.200  52.135  49.465  1.00  0.00    -0.310 OA
HETATM   27  C   UNL     1      16.925  51.732  49.179  1.00  0.00     0.086 A 
HETATM   28  C   UNL     1      16.940  50.416  48.775  1.00  0.00     0.041 A 
HETATM   29  C   UNL     1      18.295  50.015  48.774  1.00  0.00     0.040 A 
BRANCH  27  30
HETATM   30  C   UNL     1      15.866  52.726  49.335  1.00  0.00     0.001 A 
HETATM   31  C   UNL     1      15.610  53.330  50.573  1.00  0.00     0.038 A 
HETATM   32  C   UNL     1      14.624  54.313  50.693  1.00  0.00     0.036 A 
HETATM   33 CL   UNL     1      14.336  55.046  52.224  1.00  0.00    -0.084 Cl
HETATM   34  C   UNL     1      13.877  54.711  49.589  1.00  0.00     0.047 A 
HETATM   35  C   UNL     1      14.122  54.112  48.358  1.00  0.00     0.036 A 
HETATM   36 CL   UNL     1      13.207  54.589  46.980  1.00  0.00    -0.084 Cl
HETATM   37  C   UNL     1      15.106  53.130  48.226  1.00  0.00     0.038 A 
ENDBRANCH  27  30
ENDBRANCH  24  25
ENDBRANCH   2  23
TORSDOF 6
ENDMDL
MODEL 10
REMARK VINA RESULT:      -8.6      2.876      4.104
REMARK  6 active torsions:
REMARK  status: ('A' for Active; 'I' for Inactive)
REMARK    1  A    between atoms: N_6  and  C_7 
REMARK    2  A    between atoms: C_8  and  N_9 
REMARK    3  A    between atoms: C_10  and  N_11 
REMARK       I    between atoms: N_11  and  C_12 
REMARK    4  A    between atoms: C_12  and  C_13 
REMARK    5  A    between atoms: C_14  and  C_15 
REMARK    6  A    between atoms: C_17  and  C_18 
ROOT
HETATM    1  N   UNL     1      20.568  46.682  48.736  1.00  0.00    -0.300 N 
HETATM    2  C   UNL     1      21.761  46.569  48.041  1.00  0.00     0.247 C 
HETATM    3  O   UNL     1      21.966  47.012  46.918  1.00  0.00    -0.268 OA
HETATM    4  H   UNL     1      20.597  46.501  49.728  1.00  0.00     0.171 HD
ENDROOT
BRANCH   1   5
HETATM    5  C   UNL     1      19.301  46.733  48.207  1.00  0.00     0.179 C 
HETATM    6  N   UNL     1      18.591  47.887  48.385  1.00  0.00    -0.331 N 
HETATM    7  H   UNL     1      17.615  47.803  48.108  1.00  0.00     0.168 HD
HETATM    8  S   UNL     1      18.484  45.477  47.461  1.00  0.00    -0.040 SA
BRANCH   6   9
HETATM    9  C   UNL     1      18.958  49.221  48.671  1.00  0.00     0.061 A 
HETATM   10  C   UNL     1      18.565  50.205  47.712  1.00  0.00     0.057 A 
HETATM   11  C   UNL     1      19.045  51.512  47.887  1.00  0.00     0.031 A 
HETATM   12  C   UNL     1      19.843  51.853  48.982  1.00  0.00     0.002 A 
HETATM   13  C   UNL     1      20.202  50.886  49.913  1.00  0.00     0.002 A 
HETATM   14  C   UNL     1      19.774  49.570  49.752  1.00  0.00     0.032 A 
BRANCH  10  15
HETATM   15  N   UNL     1      17.732  49.843  46.634  1.00  0.00    -0.376 N 
HETATM   16  C   UNL     1      18.274  49.824  45.260  1.00  0.00     0.150 C 
HETATM   17  C   UNL     1      18.014  51.138  44.488  1.00  0.00     0.254 C 
HETATM   18  N   UNL     1      16.549  51.555  44.584  1.00  0.00    -0.072 N 
HETATM   19  C   UNL     1      16.277  52.832  43.847  1.00  0.00     0.269 C 
HETATM   20  H   UNL     1      15.995  50.812  44.136  1.00  0.00     0.279 HD
HETATM   21  C   UNL     1      16.098  51.636  46.040  1.00  0.00     0.254 C 
HETATM   22  C   UNL     1      16.323  50.286  46.746  1.00  0.00     0.150 C 
ENDBRANCH  10  15
ENDBRANCH   6   9
ENDBRANCH   1   5
BRANCH   2  23
HETATM   23  C   UNL     1      22.869  46.027  48.871  1.00  0.00     0.077 C 
HETATM   24  C   UNL     1      23.568  46.892  49.618  1.00  0.00     0.042 C 
BRANCH  24  25
HETATM   25  C   UNL     1      24.673  46.485  50.414  1.00  0.00     0.076 A 
HETATM   26  O   UNL     1      25.143  45.193  50.515  1.00  0.00    -0.310 OA
HETATM   27  C   UNL     1      26.253  45.194  51.314  1.00  0.00     0.086 A 
HETATM   28  C   UNL     1      26.483  46.470  51.777  1.00  0.00     0.041 A 
HETATM   29  C   UNL     1      25.490  47.289  51.197  1.00  0.00     0.040 A 
BRANCH  27  30
HETATM   30  C   UNL     1      26.942  43.918  51.492  1.00  0.00     0.001 A 
HETATM   31  C   UNL     1      28.162  43.837  52.177  1.00  0.00     0.038 A 
HETATM   32  C   UNL     1      28.782  42.601  52.377  1.00  0.00     0.036 A 
HETATM   33 CL   UNL     1      30.275  42.528  53.232  1.00  0.00    -0.084 Cl
HETATM   34  C   UNL     1      28.205  41.428  51.901  1.00  0.00     0.047 A 
HETATM   35  C   UNL     1      26.998  41.502  51.215  1.00  0.00     0.036 A 
HETATM   36 CL   UNL     1      26.269  40.062  50.615  1.00  0.00    -0.084 Cl
HETATM   37  C   UNL     1      26.367  42.731  51.010  1.00  0.00     0.038 A 
ENDBRANCH  27  30
ENDBRANCH  24  25
ENDBRANCH   2  23
TORSDOF 6
ENDMDL
