MODEL 1
REMARK VINA RESULT:     -10.3      0.000      0.000
REMARK  8 active torsions:
REMARK  status: ('A' for Active; 'I' for Inactive)
REMARK    1  A    between atoms: O_2  and  C_3 
REMARK    2  A    between atoms: C_4  and  O_5 
REMARK    3  A    between atoms: C_8  and  C_9 
REMARK    4  A    between atoms: C_9  and  C_10 
REMARK    5  A    between atoms: C_10  and  C_11 
REMARK    6  A    between atoms: C_13  and  N_14 
REMARK       I    between atoms: N_14  and  C_15 
REMARK    7  A    between atoms: C_15  and  C_16 
REMARK    8  A    between atoms: C_20  and  C_21 
ROOT
HETATM    1  C   UNL     1      23.649  48.595  48.783  1.00  0.00     0.140 A 
HETATM    2  N   UNL     1      24.458  48.310  49.782  1.00  0.00    -0.046 NA
HETATM    3  C   UNL     1      24.239  46.975  50.010  1.00  0.00     0.747 A 
HETATM    4  N   UNL     1      23.353  46.421  49.183  1.00  0.00     0.020 NA
HETATM    5  N   UNL     1      22.992  47.455  48.418  1.00  0.00    -0.248 N 
HETATM    6  H   UNL     1      22.296  47.317  47.695  1.00  0.00     0.191 HD
ENDROOT
BRANCH   3   7
HETATM    7  N   UNL     1      24.901  46.381  51.036  1.00  0.00    -0.149 N 
HETATM    8  C   UNL     1      24.616  45.148  51.564  1.00  0.00     0.290 C 
HETATM    9  O   UNL     1      23.774  44.345  51.179  1.00  0.00    -0.265 OA
HETATM   10  H   UNL     1      25.615  46.932  51.492  1.00  0.00     0.188 HD
BRANCH   8  11
HETATM   11  C   UNL     1      25.448  44.863  52.748  1.00  0.00     0.147 A 
HETATM   12  N   UNL     1      24.933  44.367  53.892  1.00  0.00    -0.169 NA
HETATM   13  N   UNL     1      26.005  44.241  54.696  1.00  0.00    -0.277 N 
HETATM   14  H   UNL     1      25.852  43.907  55.642  1.00  0.00     0.189 HD
HETATM   15  C   UNL     1      27.200  44.582  54.117  1.00  0.00     0.063 A 
HETATM   16  C   UNL     1      26.852  45.025  52.856  1.00  0.00     0.071 A 
BRANCH  15  17
HETATM   17  C   UNL     1      28.502  44.470  54.779  1.00  0.00    -0.008 A 
HETATM   18  C   UNL     1      29.386  43.421  54.487  1.00  0.00     0.014 A 
HETATM   19  C   UNL     1      30.635  43.341  55.112  1.00  0.00     0.001 A 
HETATM   20  C   UNL     1      31.018  44.309  56.036  1.00  0.00     0.000 A 
HETATM   21  C   UNL     1      30.154  45.359  56.335  1.00  0.00     0.001 A 
HETATM   22  C   UNL     1      28.906  45.437  55.712  1.00  0.00     0.014 A 
ENDBRANCH  15  17
ENDBRANCH   8  11
ENDBRANCH   3   7
BRANCH   1  23
HETATM   23  C   UNL     1      23.381  49.907  48.139  1.00  0.00     0.085 C 
BRANCH  23  24
HETATM   24  C   UNL     1      22.899  50.967  49.131  1.00  0.00     0.046 C 
BRANCH  24  25
HETATM   25  C   UNL     1      21.388  50.985  49.190  1.00  0.00    -0.055 A 
HETATM   26  C   UNL     1      20.706  50.272  50.188  1.00  0.00     0.046 A 
HETATM   27  C   UNL     1      19.311  50.343  50.292  1.00  0.00     0.102 A 
HETATM   28  C   UNL     1      18.588  51.151  49.394  1.00  0.00     0.101 A 
HETATM   29  C   UNL     1      19.267  51.842  48.384  1.00  0.00     0.040 A 
HETATM   30  C   UNL     1      20.657  51.762  48.286  1.00  0.00     0.010 A 
BRANCH  27  31
HETATM   31  O   UNL     1      18.570  49.691  51.247  1.00  0.00    -0.353 OA
HETATM   32  C   UNL     1      18.446  48.281  51.136  1.00  0.00     0.210 C 
ENDBRANCH  27  31
BRANCH  28  33
HETATM   33  O   UNL     1      17.226  51.183  49.559  1.00  0.00    -0.353 OA
HETATM   34  C   UNL     1      16.661  52.427  49.951  1.00  0.00     0.210 C 
ENDBRANCH  28  33
ENDBRANCH  24  25
ENDBRANCH  23  24
ENDBRANCH   1  23
TORSDOF 8
ENDMDL
MODEL 2
REMARK VINA RESULT:      -9.9      2.642     10.921
REMARK  8 active torsions:
REMARK  status: ('A' for Active; 'I' for Inactive)
REMARK    1  A    between atoms: O_2  and  C_3 
REMARK    2  A    between atoms: C_4  and  O_5 
REMARK    3  A    between atoms: C_8  and  C_9 
REMARK    4  A    between atoms: C_9  and  C_10 
REMARK    5  A    between atoms: C_10  and  C_11 
REMARK    6  A    between atoms: C_13  and  N_14 
REMARK       I    between atoms: N_14  and  C_15 
REMARK    7  A    between atoms: C_15  and  C_16 
REMARK    8  A    between atoms: C_20  and  C_21 
ROOT
HETATM    1  C   UNL     1      26.630  44.088  51.665  1.00  0.00     0.140 A 
HETATM    2  N   UNL     1      26.258  45.251  51.172  1.00  0.00    -0.046 NA
HETATM    3  C   UNL     1      24.892  45.234  51.290  1.00  0.00     0.747 A 
HETATM    4  N   UNL     1      24.409  44.128  51.854  1.00  0.00     0.020 NA
HETATM    5  N   UNL     1      25.517  43.418  52.083  1.00  0.00    -0.248 N 
HETATM    6  H   UNL     1      25.439  42.498  52.502  1.00  0.00     0.191 HD
ENDROOT
BRANCH   3   7
HETATM    7  N   UNL     1      24.192  46.294  50.812  1.00  0.00    -0.149 N 
HETATM    8  C   UNL     1      23.828  46.488  49.504  1.00  0.00     0.290 C 
HETATM    9  O   UNL     1      24.006  45.731  48.557  1.00  0.00    -0.265 OA
HETATM   10  H   UNL     1      23.990  47.036  51.469  1.00  0.00     0.188 HD
BRANCH   8  11
HETATM   11  C   UNL     1      23.186  47.803  49.312  1.00  0.00     0.147 A 
HETATM   12  N   UNL     1      23.820  48.963  49.576  1.00  0.00    -0.169 NA
HETATM   13  N   UNL     1      22.911  49.904  49.259  1.00  0.00    -0.277 N 
HETATM   14  H   UNL     1      23.160  50.875  49.409  1.00  0.00     0.189 HD
HETATM   15  C   UNL     1      21.733  49.415  48.754  1.00  0.00     0.063 A 
HETATM   16  C   UNL     1      21.881  48.043  48.814  1.00  0.00     0.071 A 
BRANCH  15  17
HETATM   17  C   UNL     1      20.624  50.251  48.287  1.00  0.00    -0.008 A 
HETATM   18  C   UNL     1      19.724  49.797  47.311  1.00  0.00     0.014 A 
HETATM   19  C   UNL     1      18.657  50.599  46.893  1.00  0.00     0.001 A 
HETATM   20  C   UNL     1      18.473  51.864  47.445  1.00  0.00     0.000 A 
HETATM   21  C   UNL     1      19.356  52.328  48.417  1.00  0.00     0.001 A 
HETATM   22  C   UNL     1      20.422  51.527  48.833  1.00  0.00     0.014 A 
ENDBRANCH  15  17
ENDBRANCH   8  11
ENDBRANCH   3   7
BRANCH   1  23
HETATM   23  C   UNL     1      27.990  43.493  51.739  1.00  0.00     0.085 C 
BRANCH  23  24
HETATM   24  C   UNL     1      28.223  42.701  53.027  1.00  0.00     0.046 C 
BRANCH  24  25
HETATM   25  C   UNL     1      28.913  43.564  54.058  1.00  0.00    -0.055 A 
HETATM   26  C   UNL     1      28.356  44.790  54.449  1.00  0.00     0.046 A 
HETATM   27  C   UNL     1      28.952  45.560  55.455  1.00  0.00     0.102 A 
HETATM   28  C   UNL     1      30.116  45.088  56.092  1.00  0.00     0.101 A 
HETATM   29  C   UNL     1      30.685  43.876  55.685  1.00  0.00     0.040 A 
HETATM   30  C   UNL     1      30.085  43.118  54.678  1.00  0.00     0.010 A 
BRANCH  27  31
HETATM   31  O   UNL     1      28.464  46.762  55.907  1.00  0.00    -0.353 OA
HETATM   32  C   UNL     1      27.427  47.375  55.156  1.00  0.00     0.210 C 
ENDBRANCH  27  31
BRANCH  28  33
HETATM   33  O   UNL     1      30.643  45.887  57.077  1.00  0.00    -0.353 OA
HETATM   34  C   UNL     1      30.646  45.354  58.394  1.00  0.00     0.210 C 
ENDBRANCH  28  33
ENDBRANCH  24  25
ENDBRANCH  23  24
ENDBRANCH   1  23
TORSDOF 8
ENDMDL
MODEL 3
REMARK VINA RESULT:      -9.8      2.825     11.392
REMARK  8 active torsions:
REMARK  status: ('A' for Active; 'I' for Inactive)
REMARK    1  A    between atoms: O_2  and  C_3 
REMARK    2  A    between atoms: C_4  and  O_5 
REMARK    3  A    between atoms: C_8  and  C_9 
REMARK    4  A    between atoms: C_9  and  C_10 
REMARK    5  A    between atoms: C_10  and  C_11 
REMARK    6  A    between atoms: C_13  and  N_14 
REMARK       I    between atoms: N_14  and  C_15 
REMARK    7  A    between atoms: C_15  and  C_16 
REMARK    8  A    between atoms: C_20  and  C_21 
ROOT
HETATM    1  C   UNL     1      25.889  45.499  51.702  1.00  0.00     0.140 A 
HETATM    2  N   UNL     1      24.980  46.411  51.426  1.00  0.00    -0.046 NA
HETATM    3  C   UNL     1      25.113  46.608  50.076  1.00  0.00     0.747 A 
HETATM    4  N   UNL     1      26.043  45.844  49.505  1.00  0.00     0.020 NA
HETATM    5  N   UNL     1      26.521  45.153  50.543  1.00  0.00    -0.248 N 
HETATM    6  H   UNL     1      27.274  44.490  50.394  1.00  0.00     0.191 HD
ENDROOT
BRANCH   3   7
HETATM    7  N   UNL     1      24.333  47.547  49.483  1.00  0.00    -0.149 N 
HETATM    8  C   UNL     1      24.731  48.811  49.131  1.00  0.00     0.290 C 
HETATM    9  O   UNL     1      25.853  49.297  49.225  1.00  0.00    -0.265 OA
HETATM   10  H   UNL     1      23.357  47.313  49.362  1.00  0.00     0.188 HD
BRANCH   8  11
HETATM   11  C   UNL     1      23.600  49.612  48.623  1.00  0.00     0.147 A 
HETATM   12  N   UNL     1      23.589  50.145  47.385  1.00  0.00    -0.169 NA
HETATM   13  N   UNL     1      22.399  50.770  47.316  1.00  0.00    -0.277 N 
HETATM   14  H   UNL     1      22.179  51.280  46.468  1.00  0.00     0.189 HD
HETATM   15  C   UNL     1      21.612  50.629  48.431  1.00  0.00     0.063 A 
HETATM   16  C   UNL     1      22.395  49.906  49.309  1.00  0.00     0.071 A 
BRANCH  15  17
HETATM   17  C   UNL     1      20.257  51.171  48.560  1.00  0.00    -0.008 A 
HETATM   18  C   UNL     1      19.737  51.554  49.805  1.00  0.00     0.014 A 
HETATM   19  C   UNL     1      18.449  52.090  49.908  1.00  0.00     0.001 A 
HETATM   20  C   UNL     1      17.665  52.254  48.769  1.00  0.00     0.000 A 
HETATM   21  C   UNL     1      18.168  51.882  47.525  1.00  0.00     0.001 A 
HETATM   22  C   UNL     1      19.454  51.344  47.423  1.00  0.00     0.014 A 
ENDBRANCH  15  17
ENDBRANCH   8  11
ENDBRANCH   3   7
BRANCH   1  23
HETATM   23  C   UNL     1      26.278  44.931  53.019  1.00  0.00     0.085 C 
BRANCH  23  24
HETATM   24  C   UNL     1      27.238  43.747  52.895  1.00  0.00     0.046 C 
BRANCH  24  25
HETATM   25  C   UNL     1      28.420  43.928  53.819  1.00  0.00    -0.055 A 
HETATM   26  C   UNL     1      28.465  45.006  54.715  1.00  0.00     0.046 A 
HETATM   27  C   UNL     1      29.523  45.139  55.624  1.00  0.00     0.102 A 
HETATM   28  C   UNL     1      30.545  44.170  55.646  1.00  0.00     0.101 A 
HETATM   29  C   UNL     1      30.512  43.109  54.735  1.00  0.00     0.040 A 
HETATM   30  C   UNL     1      29.455  42.987  53.831  1.00  0.00     0.010 A 
BRANCH  27  31
HETATM   31  O   UNL     1      29.634  46.153  56.543  1.00  0.00    -0.353 OA
HETATM   32  C   UNL     1      28.896  46.033  57.749  1.00  0.00     0.210 C 
ENDBRANCH  27  31
BRANCH  28  33
HETATM   33  O   UNL     1      31.545  44.355  56.568  1.00  0.00    -0.353 OA
HETATM   34  C   UNL     1      31.902  43.227  57.355  1.00  0.00     0.210 C 
ENDBRANCH  28  33
ENDBRANCH  24  25
ENDBRANCH  23  24
ENDBRANCH   1  23
TORSDOF 8
ENDMDL
MODEL 4
REMARK VINA RESULT:      -9.8      3.414     10.508
REMARK  8 active torsions:
REMARK  status: ('A' for Active; 'I' for Inactive)
REMARK    1  A    between atoms: O_2  and  C_3 
REMARK    2  A    between atoms: C_4  and  O_5 
REMARK    3  A    between atoms: C_8  and  C_9 
REMARK    4  A    between atoms: C_9  and  C_10 
REMARK    5  A    between atoms: C_10  and  C_11 
REMARK    6  A    between atoms: C_13  and  N_14 
REMARK       I    between atoms: N_14  and  C_15 
REMARK    7  A    between atoms: C_15  and  C_16 
REMARK    8  A    between atoms: C_20  and  C_21 
ROOT
HETATM    1  C   UNL     1      27.446  41.697  52.381  1.00  0.00     0.140 A 
HETATM    2  N   UNL     1      26.802  42.813  52.109  1.00  0.00    -0.046 NA
HETATM    3  C   UNL     1      25.944  42.458  51.100  1.00  0.00     0.747 A 
HETATM    4  N   UNL     1      26.012  41.173  50.756  1.00  0.00     0.020 NA
HETATM    5  N   UNL     1      26.963  40.710  51.572  1.00  0.00    -0.248 N 
HETATM    6  H   UNL     1      27.237  39.736  51.511  1.00  0.00     0.191 HD
ENDROOT
BRANCH   3   7
HETATM    7  N   UNL     1      25.160  43.423  50.553  1.00  0.00    -0.149 N 
HETATM    8  C   UNL     1      25.603  44.495  49.823  1.00  0.00     0.290 C 
HETATM    9  O   UNL     1      26.754  44.744  49.481  1.00  0.00    -0.265 OA
HETATM   10  H   UNL     1      24.174  43.380  50.771  1.00  0.00     0.188 HD
BRANCH   8  11
HETATM   11  C   UNL     1      24.499  45.414  49.487  1.00  0.00     0.147 A 
HETATM   12  N   UNL     1      23.237  44.983  49.282  1.00  0.00    -0.169 NA
HETATM   13  N   UNL     1      22.553  46.113  49.023  1.00  0.00    -0.277 N 
HETATM   14  H   UNL     1      21.566  46.031  48.802  1.00  0.00     0.189 HD
HETATM   15  C   UNL     1      23.295  47.264  49.097  1.00  0.00     0.063 A 
HETATM   16  C   UNL     1      24.577  46.824  49.364  1.00  0.00     0.071 A 
BRANCH  15  17
HETATM   17  C   UNL     1      22.752  48.612  48.912  1.00  0.00    -0.008 A 
HETATM   18  C   UNL     1      21.386  48.882  49.078  1.00  0.00     0.014 A 
HETATM   19  C   UNL     1      20.888  50.179  48.920  1.00  0.00     0.001 A 
HETATM   20  C   UNL     1      21.749  51.225  48.595  1.00  0.00     0.000 A 
HETATM   21  C   UNL     1      23.108  50.974  48.429  1.00  0.00     0.001 A 
HETATM   22  C   UNL     1      23.605  49.678  48.586  1.00  0.00     0.014 A 
ENDBRANCH  15  17
ENDBRANCH   8  11
ENDBRANCH   3   7
BRANCH   1  23
HETATM   23  C   UNL     1      28.561  41.467  53.336  1.00  0.00     0.085 C 
BRANCH  23  24
HETATM   24  C   UNL     1      29.760  42.381  53.080  1.00  0.00     0.046 C 
BRANCH  24  25
HETATM   25  C   UNL     1      29.910  43.381  54.204  1.00  0.00    -0.055 A 
HETATM   26  C   UNL     1      28.945  44.380  54.401  1.00  0.00     0.046 A 
HETATM   27  C   UNL     1      29.040  45.265  55.482  1.00  0.00     0.102 A 
HETATM   28  C   UNL     1      30.109  45.138  56.390  1.00  0.00     0.101 A 
HETATM   29  C   UNL     1      31.084  44.157  56.180  1.00  0.00     0.040 A 
HETATM   30  C   UNL     1      30.982  43.283  55.096  1.00  0.00     0.010 A 
BRANCH  27  31
HETATM   31  O   UNL     1      28.132  46.258  55.756  1.00  0.00    -0.353 OA
HETATM   32  C   UNL     1      27.776  47.135  54.698  1.00  0.00     0.210 C 
ENDBRANCH  27  31
BRANCH  28  33
HETATM   33  O   UNL     1      30.136  46.030  57.434  1.00  0.00    -0.353 OA
HETATM   34  C   UNL     1      30.335  45.486  58.731  1.00  0.00     0.210 C 
ENDBRANCH  28  33
ENDBRANCH  24  25
ENDBRANCH  23  24
ENDBRANCH   1  23
TORSDOF 8
ENDMDL
MODEL 5
REMARK VINA RESULT:      -9.7      1.895      2.505
REMARK  8 active torsions:
REMARK  status: ('A' for Active; 'I' for Inactive)
REMARK    1  A    between atoms: O_2  and  C_3 
REMARK    2  A    between atoms: C_4  and  O_5 
REMARK    3  A    between atoms: C_8  and  C_9 
REMARK    4  A    between atoms: C_9  and  C_10 
REMARK    5  A    between atoms: C_10  and  C_11 
REMARK    6  A    between atoms: C_13  and  N_14 
REMARK       I    between atoms: N_14  and  C_15 
REMARK    7  A    between atoms: C_15  and  C_16 
REMARK    8  A    between atoms: C_20  and  C_21 
ROOT
HETATM    1  C   UNL     1      23.915  48.310  49.254  1.00  0.00     0.140 A 
HETATM    2  N   UNL     1      24.192  47.466  50.226  1.00  0.00    -0.046 NA
HETATM    3  C   UNL     1      25.528  47.665  50.462  1.00  0.00     0.747 A 
HETATM    4  N   UNL     1      26.080  48.607  49.699  1.00  0.00     0.020 NA
HETATM    5  N   UNL     1      25.050  49.002  48.945  1.00  0.00    -0.248 N 
HETATM    6  H   UNL     1      25.196  49.719  48.243  1.00  0.00     0.191 HD
ENDROOT
BRANCH   3   7
HETATM    7  N   UNL     1      26.139  46.890  51.394  1.00  0.00    -0.149 N 
HETATM    8  C   UNL     1      26.036  47.043  52.753  1.00  0.00     0.290 C 
HETATM    9  O   UNL     1      25.342  47.845  53.366  1.00  0.00    -0.265 OA
HETATM   10  H   UNL     1      26.782  46.191  51.049  1.00  0.00     0.188 HD
BRANCH   8  11
HETATM   11  C   UNL     1      26.927  46.111  53.470  1.00  0.00     0.147 A 
HETATM   12  N   UNL     1      27.054  44.815  53.117  1.00  0.00    -0.169 NA
HETATM   13  N   UNL     1      27.954  44.332  53.994  1.00  0.00    -0.277 N 
HETATM   14  H   UNL     1      28.187  43.346  53.940  1.00  0.00     0.189 HD
HETATM   15  C   UNL     1      28.457  45.260  54.869  1.00  0.00     0.063 A 
HETATM   16  C   UNL     1      27.772  46.420  54.565  1.00  0.00     0.071 A 
BRANCH  15  17
HETATM   17  C   UNL     1      29.489  44.978  55.871  1.00  0.00    -0.008 A 
HETATM   18  C   UNL     1      29.588  45.727  57.053  1.00  0.00     0.014 A 
HETATM   19  C   UNL     1      30.564  45.429  58.009  1.00  0.00     0.001 A 
HETATM   20  C   UNL     1      31.453  44.378  57.799  1.00  0.00     0.000 A 
HETATM   21  C   UNL     1      31.366  43.623  56.633  1.00  0.00     0.001 A 
HETATM   22  C   UNL     1      30.392  43.921  55.677  1.00  0.00     0.014 A 
ENDBRANCH  15  17
ENDBRANCH   8  11
ENDBRANCH   3   7
BRANCH   1  23
HETATM   23  C   UNL     1      22.641  48.504  48.515  1.00  0.00     0.085 C 
BRANCH  23  24
HETATM   24  C   UNL     1      22.581  49.842  47.776  1.00  0.00     0.046 C 
BRANCH  24  25
HETATM   25  C   UNL     1      21.214  50.469  47.931  1.00  0.00    -0.055 A 
HETATM   26  C   UNL     1      20.177  50.147  47.042  1.00  0.00     0.046 A 
HETATM   27  C   UNL     1      18.890  50.668  47.224  1.00  0.00     0.102 A 
HETATM   28  C   UNL     1      18.632  51.513  48.320  1.00  0.00     0.101 A 
HETATM   29  C   UNL     1      19.671  51.853  49.192  1.00  0.00     0.040 A 
HETATM   30  C   UNL     1      20.952  51.331  49.001  1.00  0.00     0.010 A 
BRANCH  27  31
HETATM   31  O   UNL     1      17.818  50.391  46.411  1.00  0.00    -0.353 OA
HETATM   32  C   UNL     1      17.308  49.067  46.421  1.00  0.00     0.210 C 
ENDBRANCH  27  31
BRANCH  28  33
HETATM   33  O   UNL     1      17.347  51.980  48.445  1.00  0.00    -0.353 OA
HETATM   34  C   UNL     1      16.790  51.972  49.752  1.00  0.00     0.210 C 
ENDBRANCH  28  33
ENDBRANCH  24  25
ENDBRANCH  23  24
ENDBRANCH   1  23
TORSDOF 8
ENDMDL
MODEL 6
REMARK VINA RESULT:      -9.5      1.544      2.079
REMARK  8 active torsions:
REMARK  status: ('A' for Active; 'I' for Inactive)
REMARK    1  A    between atoms: O_2  and  C_3 
REMARK    2  A    between atoms: C_4  and  O_5 
REMARK    3  A    between atoms: C_8  and  C_9 
REMARK    4  A    between atoms: C_9  and  C_10 
REMARK    5  A    between atoms: C_10  and  C_11 
REMARK    6  A    between atoms: C_13  and  N_14 
REMARK       I    between atoms: N_14  and  C_15 
REMARK    7  A    between atoms: C_15  and  C_16 
REMARK    8  A    between atoms: C_20  and  C_21 
ROOT
HETATM    1  C   UNL     1      24.836  49.703  48.431  1.00  0.00     0.140 A 
HETATM    2  N   UNL     1      24.805  48.851  49.435  1.00  0.00    -0.046 NA
HETATM    3  C   UNL     1      26.089  48.374  49.498  1.00  0.00     0.747 A 
HETATM    4  N   UNL     1      26.913  48.909  48.597  1.00  0.00     0.020 NA
HETATM    5  N   UNL     1      26.107  49.743  47.935  1.00  0.00    -0.248 N 
HETATM    6  H   UNL     1      26.479  50.282  47.162  1.00  0.00     0.191 HD
ENDROOT
BRANCH   3   7
HETATM    7  N   UNL     1      26.375  47.417  50.418  1.00  0.00    -0.149 N 
HETATM    8  C   UNL     1      25.490  46.498  50.918  1.00  0.00     0.290 C 
HETATM    9  O   UNL     1      24.321  46.330  50.591  1.00  0.00    -0.265 OA
HETATM   10  H   UNL     1      27.304  47.439  50.818  1.00  0.00     0.188 HD
BRANCH   8  11
HETATM   11  C   UNL     1      26.099  45.689  51.991  1.00  0.00     0.147 A 
HETATM   12  N   UNL     1      25.537  44.552  52.447  1.00  0.00    -0.169 NA
HETATM   13  N   UNL     1      26.399  44.126  53.390  1.00  0.00    -0.277 N 
HETATM   14  H   UNL     1      26.163  43.284  53.904  1.00  0.00     0.189 HD
HETATM   15  C   UNL     1      27.519  44.903  53.536  1.00  0.00     0.063 A 
HETATM   16  C   UNL     1      27.324  45.948  52.656  1.00  0.00     0.071 A 
BRANCH  15  17
HETATM   17  C   UNL     1      28.619  44.603  54.457  1.00  0.00    -0.008 A 
HETATM   18  C   UNL     1      29.325  43.393  54.387  1.00  0.00     0.014 A 
HETATM   19  C   UNL     1      30.387  43.133  55.259  1.00  0.00     0.001 A 
HETATM   20  C   UNL     1      30.760  44.078  56.211  1.00  0.00     0.000 A 
HETATM   21  C   UNL     1      30.073  45.286  56.291  1.00  0.00     0.001 A 
HETATM   22  C   UNL     1      29.010  45.545  55.420  1.00  0.00     0.014 A 
ENDBRANCH  15  17
ENDBRANCH   8  11
ENDBRANCH   3   7
BRANCH   1  23
HETATM   23  C   UNL     1      23.724  50.483  47.830  1.00  0.00     0.085 C 
BRANCH  23  24
HETATM   24  C   UNL     1      22.828  51.147  48.877  1.00  0.00     0.046 C 
BRANCH  24  25
HETATM   25  C   UNL     1      21.436  50.559  48.829  1.00  0.00    -0.055 A 
HETATM   26  C   UNL     1      20.399  51.121  49.587  1.00  0.00     0.046 A 
HETATM   27  C   UNL     1      19.092  50.626  49.492  1.00  0.00     0.102 A 
HETATM   28  C   UNL     1      18.815  49.562  48.613  1.00  0.00     0.101 A 
HETATM   29  C   UNL     1      19.855  48.985  47.875  1.00  0.00     0.040 A 
HETATM   30  C   UNL     1      21.155  49.484  47.980  1.00  0.00     0.010 A 
BRANCH  27  31
HETATM   31  O   UNL     1      18.019  51.129  50.186  1.00  0.00    -0.353 OA
HETATM   32  C   UNL     1      17.555  52.424  49.835  1.00  0.00     0.210 C 
ENDBRANCH  27  31
BRANCH  28  33
HETATM   33  O   UNL     1      17.512  49.133  48.561  1.00  0.00    -0.353 OA
HETATM   34  C   UNL     1      17.254  47.822  49.045  1.00  0.00     0.210 C 
ENDBRANCH  28  33
ENDBRANCH  24  25
ENDBRANCH  23  24
ENDBRANCH   1  23
TORSDOF 8
ENDMDL
MODEL 7
REMARK VINA RESULT:      -9.3      2.844     11.070
REMARK  8 active torsions:
REMARK  status: ('A' for Active; 'I' for Inactive)
REMARK    1  A    between atoms: O_2  and  C_3 
REMARK    2  A    between atoms: C_4  and  O_5 
REMARK    3  A    between atoms: C_8  and  C_9 
REMARK    4  A    between atoms: C_9  and  C_10 
REMARK    5  A    between atoms: C_10  and  C_11 
REMARK    6  A    between atoms: C_13  and  N_14 
REMARK       I    between atoms: N_14  and  C_15 
REMARK    7  A    between atoms: C_15  and  C_16 
REMARK    8  A    between atoms: C_20  and  C_21 
ROOT
HETATM    1  C   UNL     1      26.795  44.178  51.172  1.00  0.00     0.140 A 
HETATM    2  N   UNL     1      25.769  44.997  51.275  1.00  0.00    -0.046 NA
HETATM    3  C   UNL     1      25.886  45.807  50.174  1.00  0.00     0.747 A 
HETATM    4  N   UNL     1      26.919  45.511  49.388  1.00  0.00     0.020 NA
HETATM    5  N   UNL     1      27.481  44.483  50.031  1.00  0.00    -0.248 N 
HETATM    6  H   UNL     1      28.320  44.060  49.653  1.00  0.00     0.191 HD
ENDROOT
BRANCH   3   7
HETATM    7  N   UNL     1      24.987  46.812  50.018  1.00  0.00    -0.149 N 
HETATM    8  C   UNL     1      23.816  46.735  49.309  1.00  0.00     0.290 C 
HETATM    9  O   UNL     1      23.342  45.752  48.751  1.00  0.00    -0.265 OA
HETATM   10  H   UNL     1      25.246  47.713  50.397  1.00  0.00     0.188 HD
BRANCH   8  11
HETATM   11  C   UNL     1      23.139  48.044  49.238  1.00  0.00     0.147 A 
HETATM   12  N   UNL     1      23.734  49.188  49.634  1.00  0.00    -0.169 NA
HETATM   13  N   UNL     1      22.804  50.131  49.395  1.00  0.00    -0.277 N 
HETATM   14  H   UNL     1      23.022  51.088  49.650  1.00  0.00     0.189 HD
HETATM   15  C   UNL     1      21.651  49.666  48.817  1.00  0.00     0.063 A 
HETATM   16  C   UNL     1      21.837  48.299  48.740  1.00  0.00     0.071 A 
BRANCH  15  17
HETATM   17  C   UNL     1      20.526  50.515  48.415  1.00  0.00    -0.008 A 
HETATM   18  C   UNL     1      20.065  51.557  49.232  1.00  0.00     0.014 A 
HETATM   19  C   UNL     1      19.005  52.373  48.822  1.00  0.00     0.001 A 
HETATM   20  C   UNL     1      18.393  52.158  47.589  1.00  0.00     0.000 A 
HETATM   21  C   UNL     1      18.840  51.130  46.765  1.00  0.00     0.001 A 
HETATM   22  C   UNL     1      19.899  50.315  47.176  1.00  0.00     0.014 A 
ENDBRANCH  15  17
ENDBRANCH   8  11
ENDBRANCH   3   7
BRANCH   1  23
HETATM   23  C   UNL     1      27.248  43.120  52.111  1.00  0.00     0.085 C 
BRANCH  23  24
HETATM   24  C   UNL     1      28.742  43.207  52.429  1.00  0.00     0.046 C 
BRANCH  24  25
HETATM   25  C   UNL     1      28.960  43.909  53.751  1.00  0.00    -0.055 A 
HETATM   26  C   UNL     1      30.118  43.665  54.504  1.00  0.00     0.046 A 
HETATM   27  C   UNL     1      30.359  44.365  55.693  1.00  0.00     0.102 A 
HETATM   28  C   UNL     1      29.435  45.334  56.128  1.00  0.00     0.101 A 
HETATM   29  C   UNL     1      28.268  45.559  55.389  1.00  0.00     0.040 A 
HETATM   30  C   UNL     1      28.035  44.854  54.206  1.00  0.00     0.010 A 
BRANCH  27  31
HETATM   31  O   UNL     1      31.473  44.199  56.480  1.00  0.00    -0.353 OA
HETATM   32  C   UNL     1      31.652  42.940  57.111  1.00  0.00     0.210 C 
ENDBRANCH  27  31
BRANCH  28  33
HETATM   33  O   UNL     1      29.738  45.990  57.295  1.00  0.00    -0.353 OA
HETATM   34  C   UNL     1      28.651  46.581  57.994  1.00  0.00     0.210 C 
ENDBRANCH  28  33
ENDBRANCH  24  25
ENDBRANCH  23  24
ENDBRANCH   1  23
TORSDOF 8
ENDMDL
MODEL 8
REMARK VINA RESULT:      -9.2      2.713     11.339
REMARK  8 active torsions:
REMARK  status: ('A' for Active; 'I' for Inactive)
REMARK    1  A    between atoms: O_2  and  C_3 
REMARK    2  A    between atoms: C_4  and  O_5 
REMARK    3  A    between atoms: C_8  and  C_9 
REMARK    4  A    between atoms: C_9  and  C_10 
REMARK    5  A    between atoms: C_10  and  C_11 
REMARK    6  A    between atoms: C_13  and  N_14 
REMARK       I    between atoms: N_14  and  C_15 
REMARK    7  A    between atoms: C_15  and  C_16 
REMARK    8  A    between atoms: C_20  and  C_21 
ROOT
HETATM    1  C   UNL     1      25.499  47.265  50.268  1.00  0.00     0.140 A 
HETATM    2  N   UNL     1      24.241  47.528  49.985  1.00  0.00    -0.046 NA
HETATM    3  C   UNL     1      24.306  48.683  49.248  1.00  0.00     0.747 A 
HETATM    4  N   UNL     1      25.544  49.128  49.044  1.00  0.00     0.020 NA
HETATM    5  N   UNL     1      26.282  48.224  49.693  1.00  0.00    -0.248 N 
HETATM    6  H   UNL     1      27.290  48.331  49.717  1.00  0.00     0.191 HD
ENDROOT
BRANCH   3   7
HETATM    7  N   UNL     1      23.142  49.251  48.839  1.00  0.00    -0.149 N 
HETATM    8  C   UNL     1      22.664  50.472  49.240  1.00  0.00     0.290 C 
HETATM    9  O   UNL     1      23.212  51.286  49.974  1.00  0.00    -0.265 OA
HETATM   10  H   UNL     1      22.548  48.687  48.247  1.00  0.00     0.188 HD
BRANCH   8  11
HETATM   11  C   UNL     1      21.315  50.727  48.701  1.00  0.00     0.147 A 
HETATM   12  N   UNL     1      20.902  50.228  47.518  1.00  0.00    -0.169 NA
HETATM   13  N   UNL     1      19.636  50.673  47.408  1.00  0.00    -0.277 N 
HETATM   14  H   UNL     1      19.124  50.443  46.563  1.00  0.00     0.189 HD
HETATM   15  C   UNL     1      19.186  51.395  48.483  1.00  0.00     0.063 A 
HETATM   16  C   UNL     1      20.280  51.471  49.323  1.00  0.00     0.071 A 
BRANCH  15  17
HETATM   17  C   UNL     1      17.827  51.927  48.612  1.00  0.00    -0.008 A 
HETATM   18  C   UNL     1      16.891  51.807  47.574  1.00  0.00     0.014 A 
HETATM   19  C   UNL     1      15.591  52.302  47.722  1.00  0.00     0.001 A 
HETATM   20  C   UNL     1      15.208  52.921  48.909  1.00  0.00     0.000 A 
HETATM   21  C   UNL     1      16.124  53.045  49.950  1.00  0.00     0.001 A 
HETATM   22  C   UNL     1      17.424  52.552  49.801  1.00  0.00     0.014 A 
ENDBRANCH  15  17
ENDBRANCH   8  11
ENDBRANCH   3   7
BRANCH   1  23
HETATM   23  C   UNL     1      26.064  46.179  51.110  1.00  0.00     0.085 C 
BRANCH  23  24
HETATM   24  C   UNL     1      25.509  46.183  52.535  1.00  0.00     0.046 C 
BRANCH  24  25
HETATM   25  C   UNL     1      26.636  46.103  53.540  1.00  0.00    -0.055 A 
HETATM   26  C   UNL     1      27.346  44.906  53.720  1.00  0.00     0.046 A 
HETATM   27  C   UNL     1      28.437  44.845  54.596  1.00  0.00     0.102 A 
HETATM   28  C   UNL     1      28.834  46.003  55.291  1.00  0.00     0.101 A 
HETATM   29  C   UNL     1      28.111  47.190  55.130  1.00  0.00     0.040 A 
HETATM   30  C   UNL     1      27.022  47.239  54.257  1.00  0.00     0.010 A 
BRANCH  27  31
HETATM   31  O   UNL     1      29.194  43.720  54.817  1.00  0.00    -0.353 OA
HETATM   32  C   UNL     1      28.936  42.584  54.007  1.00  0.00     0.210 C 
ENDBRANCH  27  31
BRANCH  28  33
HETATM   33  O   UNL     1      29.917  45.877  56.125  1.00  0.00    -0.353 OA
HETATM   34  C   UNL     1      29.660  45.964  57.520  1.00  0.00     0.210 C 
ENDBRANCH  28  33
ENDBRANCH  24  25
ENDBRANCH  23  24
ENDBRANCH   1  23
TORSDOF 8
ENDMDL
MODEL 9
REMARK VINA RESULT:      -9.2      1.959      2.341
REMARK  8 active torsions:
REMARK  status: ('A' for Active; 'I' for Inactive)
REMARK    1  A    between atoms: O_2  and  C_3 
REMARK    2  A    between atoms: C_4  and  O_5 
REMARK    3  A    between atoms: C_8  and  C_9 
REMARK    4  A    between atoms: C_9  and  C_10 
REMARK    5  A    between atoms: C_10  and  C_11 
REMARK    6  A    between atoms: C_13  and  N_14 
REMARK       I    between atoms: N_14  and  C_15 
REMARK    7  A    between atoms: C_15  and  C_16 
REMARK    8  A    between atoms: C_20  and  C_21 
ROOT
HETATM    1  C   UNL     1      22.862  45.623  49.028  1.00  0.00     0.140 A 
HETATM    2  N   UNL     1      24.057  45.523  49.573  1.00  0.00    -0.046 NA
HETATM    3  C   UNL     1      23.961  44.412  50.370  1.00  0.00     0.747 A 
HETATM    4  N   UNL     1      22.774  43.810  50.324  1.00  0.00     0.020 NA
HETATM    5  N   UNL     1      22.095  44.586  49.475  1.00  0.00    -0.248 N 
HETATM    6  H   UNL     1      21.129  44.363  49.264  1.00  0.00     0.191 HD
ENDROOT
BRANCH   3   7
HETATM    7  N   UNL     1      25.038  44.066  51.122  1.00  0.00    -0.149 N 
HETATM    8  C   UNL     1      25.988  43.140  50.780  1.00  0.00     0.290 C 
HETATM    9  O   UNL     1      26.079  42.513  49.730  1.00  0.00    -0.265 OA
HETATM   10  H   UNL     1      25.095  44.476  52.045  1.00  0.00     0.188 HD
BRANCH   8  11
HETATM   11  C   UNL     1      26.948  42.918  51.879  1.00  0.00     0.147 A 
HETATM   12  N   UNL     1      27.475  41.706  52.145  1.00  0.00    -0.169 NA
HETATM   13  N   UNL     1      28.294  41.937  53.189  1.00  0.00    -0.277 N 
HETATM   14  H   UNL     1      28.787  41.146  53.589  1.00  0.00     0.189 HD
HETATM   15  C   UNL     1      28.364  43.248  53.584  1.00  0.00     0.063 A 
HETATM   16  C   UNL     1      27.464  43.899  52.763  1.00  0.00     0.071 A 
BRANCH  15  17
HETATM   17  C   UNL     1      29.232  43.744  54.656  1.00  0.00    -0.008 A 
HETATM   18  C   UNL     1      30.306  42.984  55.140  1.00  0.00     0.014 A 
HETATM   19  C   UNL     1      31.138  43.481  56.148  1.00  0.00     0.001 A 
HETATM   20  C   UNL     1      30.909  44.746  56.685  1.00  0.00     0.000 A 
HETATM   21  C   UNL     1      29.848  45.514  56.214  1.00  0.00     0.001 A 
HETATM   22  C   UNL     1      29.016  45.016  55.207  1.00  0.00     0.014 A 
ENDBRANCH  15  17
ENDBRANCH   8  11
ENDBRANCH   3   7
BRANCH   1  23
HETATM   23  C   UNL     1      22.327  46.676  48.127  1.00  0.00     0.085 C 
BRANCH  23  24
HETATM   24  C   UNL     1      22.700  48.089  48.578  1.00  0.00     0.046 C 
BRANCH  24  25
HETATM   25  C   UNL     1      21.468  48.840  49.031  1.00  0.00    -0.055 A 
HETATM   26  C   UNL     1      20.250  48.168  49.211  1.00  0.00     0.046 A 
HETATM   27  C   UNL     1      19.125  48.843  49.699  1.00  0.00     0.102 A 
HETATM   28  C   UNL     1      19.223  50.209  50.028  1.00  0.00     0.101 A 
HETATM   29  C   UNL     1      20.431  50.884  49.826  1.00  0.00     0.040 A 
HETATM   30  C   UNL     1      21.547  50.203  49.335  1.00  0.00     0.010 A 
BRANCH  27  31
HETATM   31  O   UNL     1      17.902  48.257  49.919  1.00  0.00    -0.353 OA
HETATM   32  C   UNL     1      17.188  47.779  48.789  1.00  0.00     0.210 C 
ENDBRANCH  27  31
BRANCH  28  33
HETATM   33  O   UNL     1      18.085  50.806  50.511  1.00  0.00    -0.353 OA
HETATM   34  C   UNL     1      17.468  51.773  49.672  1.00  0.00     0.210 C 
ENDBRANCH  28  33
ENDBRANCH  24  25
ENDBRANCH  23  24
ENDBRANCH   1  23
TORSDOF 8
ENDMDL
MODEL 10
REMARK VINA RESULT:      -9.1      2.445      3.646
REMARK  8 active torsions:
REMARK  status: ('A' for Active; 'I' for Inactive)
REMARK    1  A    between atoms: O_2  and  C_3 
REMARK    2  A    between atoms: C_4  and  O_5 
REMARK    3  A    between atoms: C_8  and  C_9 
REMARK    4  A    between atoms: C_9  and  C_10 
REMARK    5  A    between atoms: C_10  and  C_11 
REMARK    6  A    between atoms: C_13  and  N_14 
REMARK       I    between atoms: N_14  and  C_15 
REMARK    7  A    between atoms: C_15  and  C_16 
REMARK    8  A    between atoms: C_20  and  C_21 
ROOT
HETATM    1  C   UNL     1      23.220  44.522  49.200  1.00  0.00     0.140 A 
HETATM    2  N   UNL     1      24.214  45.104  49.838  1.00  0.00    -0.046 NA
HETATM    3  C   UNL     1      24.361  44.350  50.973  1.00  0.00     0.747 A 
HETATM    4  N   UNL     1      23.521  43.319  51.052  1.00  0.00     0.020 NA
HETATM    5  N   UNL     1      22.811  43.443  49.928  1.00  0.00    -0.248 N 
HETATM    6  H   UNL     1      22.068  42.781  49.736  1.00  0.00     0.191 HD
ENDROOT
BRANCH   3   7
HETATM    7  N   UNL     1      25.293  44.732  51.883  1.00  0.00    -0.149 N 
HETATM    8  C   UNL     1      26.608  44.344  51.893  1.00  0.00     0.290 C 
HETATM    9  O   UNL     1      27.190  43.649  51.068  1.00  0.00    -0.265 OA
HETATM   10  H   UNL     1      24.964  45.291  52.659  1.00  0.00     0.188 HD
BRANCH   8  11
HETATM   11  C   UNL     1      27.309  44.844  53.091  1.00  0.00     0.147 A 
HETATM   12  N   UNL     1      26.951  45.983  53.717  1.00  0.00    -0.169 NA
HETATM   13  N   UNL     1      27.814  46.067  54.747  1.00  0.00    -0.277 N 
HETATM   14  H   UNL     1      27.753  46.879  55.352  1.00  0.00     0.189 HD
HETATM   15  C   UNL     1      28.684  45.013  54.853  1.00  0.00     0.063 A 
HETATM   16  C   UNL     1      28.393  44.221  53.760  1.00  0.00     0.071 A 
BRANCH  15  17
HETATM   17  C   UNL     1      29.670  44.859  55.926  1.00  0.00    -0.008 A 
HETATM   18  C   UNL     1      29.707  45.737  57.019  1.00  0.00     0.014 A 
HETATM   19  C   UNL     1      30.641  45.562  58.046  1.00  0.00     0.001 A 
HETATM   20  C   UNL     1      31.549  44.508  57.996  1.00  0.00     0.000 A 
HETATM   21  C   UNL     1      31.523  43.626  56.919  1.00  0.00     0.001 A 
HETATM   22  C   UNL     1      30.591  43.801  55.892  1.00  0.00     0.014 A 
ENDBRANCH  15  17
ENDBRANCH   8  11
ENDBRANCH   3   7
BRANCH   1  23
HETATM   23  C   UNL     1      22.549  44.930  47.938  1.00  0.00     0.085 C 
BRANCH  23  24
HETATM   24  C   UNL     1      21.136  45.470  48.165  1.00  0.00     0.046 C 
BRANCH  24  25
HETATM   25  C   UNL     1      21.161  46.977  48.282  1.00  0.00    -0.055 A 
HETATM   26  C   UNL     1      22.252  47.711  47.794  1.00  0.00     0.046 A 
HETATM   27  C   UNL     1      22.249  49.111  47.834  1.00  0.00     0.102 A 
HETATM   28  C   UNL     1      21.130  49.788  48.357  1.00  0.00     0.101 A 
HETATM   29  C   UNL     1      20.053  49.055  48.865  1.00  0.00     0.040 A 
HETATM   30  C   UNL     1      20.067  47.659  48.824  1.00  0.00     0.010 A 
BRANCH  27  31
HETATM   31  O   UNL     1      23.267  49.904  47.364  1.00  0.00    -0.353 OA
HETATM   32  C   UNL     1      24.427  50.034  48.172  1.00  0.00     0.210 C 
ENDBRANCH  27  31
BRANCH  28  33
HETATM   33  O   UNL     1      21.188  51.160  48.356  1.00  0.00    -0.353 OA
HETATM   34  C   UNL     1      19.968  51.849  48.592  1.00  0.00     0.210 C 
ENDBRANCH  28  33
ENDBRANCH  24  25
ENDBRANCH  23  24
ENDBRANCH   1  23
TORSDOF 8
ENDMDL
