MODEL 1
REMARK VINA RESULT:      -8.9      0.000      0.000
REMARK  2 active torsions:
REMARK  status: ('A' for Active; 'I' for Inactive)
REMARK    1  A    between atoms: C_9  and  N_10 
REMARK    2  A    between atoms: N_13  and  C_15 
ROOT
HETATM    1  N   UNL     1      25.790  46.054  50.575  1.00  0.00    -0.376 N 
HETATM    2  C   UNL     1      26.860  45.305  49.890  1.00  0.00     0.150 C 
HETATM    3  C   UNL     1      27.130  43.975  50.621  1.00  0.00     0.255 C 
HETATM    4  N   UNL     1      27.464  44.179  52.116  1.00  0.00    -0.064 N 
HETATM    5  H   UNL     1      28.354  44.690  52.158  1.00  0.00     0.280 HD
HETATM    6  C   UNL     1      26.400  45.084  52.771  1.00  0.00     0.255 C 
HETATM    7  C   UNL     1      26.159  46.377  51.969  1.00  0.00     0.150 C 
ENDROOT
BRANCH   1   8
HETATM    8  C   UNL     1      24.938  46.897  49.866  1.00  0.00     0.053 A 
HETATM    9  C   UNL     1      25.450  48.141  49.243  1.00  0.00     0.013 A 
HETATM   10  C   UNL     1      26.727  48.689  49.298  1.00  0.00     0.015 A 
HETATM   11  C   UNL     1      24.463  48.856  48.566  1.00  0.00     0.075 A 
HETATM   12  C   UNL     1      26.984  49.905  48.646  1.00  0.00     0.001 A 
HETATM   13  C   UNL     1      25.966  50.583  47.958  1.00  0.00     0.002 A 
HETATM   14  C   UNL     1      24.675  50.061  47.919  1.00  0.00     0.025 A 
HETATM   15  S   UNL     1      22.934  48.039  48.722  1.00  0.00     0.200 S 
HETATM   16  O   UNL     1      22.560  47.524  47.423  1.00  0.00    -0.218 OA
HETATM   17  O   UNL     1      22.061  48.856  49.537  1.00  0.00    -0.218 OA
HETATM   18  C   UNL     1      23.611  46.766  49.685  1.00  0.00     0.144 A 
ENDBRANCH   1   8
BRANCH   4  19
HETATM   19  C   UNL     1      27.626  42.835  52.853  1.00  0.00     0.188 C 
HETATM   20  C   UNL     1      28.932  42.127  52.447  1.00  0.00     0.033 C 
HETATM   21  C   UNL     1      30.182  42.867  52.921  1.00  0.00     0.002 C 
HETATM   22  C   UNL     1      30.154  43.107  54.429  1.00  0.00     0.000 C 
HETATM   23  C   UNL     1      28.861  43.779  54.882  1.00  0.00     0.002 C 
HETATM   24  C   UNL     1      27.633  43.018  54.381  1.00  0.00     0.033 C 
ENDBRANCH   4  19
TORSDOF 2
ENDMDL
MODEL 2
REMARK VINA RESULT:      -8.6      1.413      2.657
REMARK  2 active torsions:
REMARK  status: ('A' for Active; 'I' for Inactive)
REMARK    1  A    between atoms: C_9  and  N_10 
REMARK    2  A    between atoms: N_13  and  C_15 
ROOT
HETATM    1  N   UNL     1      25.715  46.473  50.494  1.00  0.00    -0.376 N 
HETATM    2  C   UNL     1      26.763  45.704  49.797  1.00  0.00     0.150 C 
HETATM    3  C   UNL     1      26.965  44.338  50.484  1.00  0.00     0.255 C 
HETATM    4  N   UNL     1      27.284  44.475  51.989  1.00  0.00    -0.064 N 
HETATM    5  H   UNL     1      28.194  44.946  52.062  1.00  0.00     0.280 HD
HETATM    6  C   UNL     1      26.249  45.401  52.661  1.00  0.00     0.255 C 
HETATM    7  C   UNL     1      26.076  46.730  51.904  1.00  0.00     0.150 C 
ENDROOT
BRANCH   1   8
HETATM    8  C   UNL     1      24.911  47.376  49.803  1.00  0.00     0.053 A 
HETATM    9  C   UNL     1      23.652  46.931  49.159  1.00  0.00     0.013 A 
HETATM   10  C   UNL     1      23.117  45.651  49.068  1.00  0.00     0.015 A 
HETATM   11  C   UNL     1      22.972  47.969  48.522  1.00  0.00     0.075 A 
HETATM   12  C   UNL     1      21.910  45.456  48.381  1.00  0.00     0.001 A 
HETATM   13  C   UNL     1      21.246  46.531  47.769  1.00  0.00     0.002 A 
HETATM   14  C   UNL     1      21.784  47.814  47.828  1.00  0.00     0.025 A 
HETATM   15  S   UNL     1      23.877  49.448  48.676  1.00  0.00     0.200 S 
HETATM   16  O   UNL     1      23.138  50.343  49.539  1.00  0.00    -0.218 OA
HETATM   17  O   UNL     1      24.364  49.824  47.367  1.00  0.00    -0.218 OA
HETATM   18  C   UNL     1      25.146  48.681  49.575  1.00  0.00     0.144 A 
ENDBRANCH   1   8
BRANCH   4  19
HETATM   19  C   UNL     1      27.377  43.100  52.680  1.00  0.00     0.188 C 
HETATM   20  C   UNL     1      28.637  42.334  52.236  1.00  0.00     0.033 C 
HETATM   21  C   UNL     1      29.932  42.986  52.718  1.00  0.00     0.002 C 
HETATM   22  C   UNL     1      29.933  43.177  54.233  1.00  0.00     0.000 C 
HETATM   23  C   UNL     1      28.684  43.904  54.724  1.00  0.00     0.002 C 
HETATM   24  C   UNL     1      27.410  43.231  54.213  1.00  0.00     0.033 C 
ENDBRANCH   4  19
TORSDOF 2
ENDMDL
MODEL 3
REMARK VINA RESULT:      -8.1      4.561      8.794
REMARK  2 active torsions:
REMARK  status: ('A' for Active; 'I' for Inactive)
REMARK    1  A    between atoms: C_9  and  N_10 
REMARK    2  A    between atoms: N_13  and  C_15 
ROOT
HETATM    1  N   UNL     1      22.542  48.648  49.172  1.00  0.00    -0.376 N 
HETATM    2  C   UNL     1      21.352  47.909  48.713  1.00  0.00     0.150 C 
HETATM    3  C   UNL     1      20.485  48.807  47.807  1.00  0.00     0.255 C 
HETATM    4  N   UNL     1      20.085  50.132  48.496  1.00  0.00    -0.064 N 
HETATM    5  H   UNL     1      19.478  49.888  49.287  1.00  0.00     0.280 HD
HETATM    6  C   UNL     1      21.337  50.810  49.089  1.00  0.00     0.255 C 
HETATM    7  C   UNL     1      22.171  49.846  49.954  1.00  0.00     0.150 C 
ENDROOT
BRANCH   1   8
HETATM    8  C   UNL     1      23.738  47.985  49.436  1.00  0.00     0.053 A 
HETATM    9  C   UNL     1      25.042  48.639  49.170  1.00  0.00     0.013 A 
HETATM   10  C   UNL     1      25.301  49.882  48.602  1.00  0.00     0.015 A 
HETATM   11  C   UNL     1      26.131  47.835  49.503  1.00  0.00     0.075 A 
HETATM   12  C   UNL     1      26.630  50.293  48.420  1.00  0.00     0.001 A 
HETATM   13  C   UNL     1      27.698  49.461  48.786  1.00  0.00     0.002 A 
HETATM   14  C   UNL     1      27.454  48.202  49.330  1.00  0.00     0.025 A 
HETATM   15  S   UNL     1      25.569  46.296  50.090  1.00  0.00     0.200 S 
HETATM   16  O   UNL     1      25.882  46.207  51.500  1.00  0.00    -0.218 OA
HETATM   17  O   UNL     1      25.931  45.279  49.128  1.00  0.00    -0.218 OA
HETATM   18  C   UNL     1      23.901  46.728  49.887  1.00  0.00     0.144 A 
ENDBRANCH   1   8
BRANCH   4  19
HETATM   19  C   UNL     1      19.311  51.061  47.540  1.00  0.00     0.188 C 
HETATM   20  C   UNL     1      17.954  50.452  47.144  1.00  0.00     0.033 C 
HETATM   21  C   UNL     1      16.976  50.366  48.315  1.00  0.00     0.002 C 
HETATM   22  C   UNL     1      16.775  51.725  48.981  1.00  0.00     0.000 C 
HETATM   23  C   UNL     1      18.099  52.383  49.361  1.00  0.00     0.002 C 
HETATM   24  C   UNL     1      19.055  52.442  48.169  1.00  0.00     0.033 C 
ENDBRANCH   4  19
TORSDOF 2
ENDMDL
MODEL 4
REMARK VINA RESULT:      -7.9      4.529      6.829
REMARK  2 active torsions:
REMARK  status: ('A' for Active; 'I' for Inactive)
REMARK    1  A    between atoms: C_9  and  N_10 
REMARK    2  A    between atoms: N_13  and  C_15 
ROOT
HETATM    1  N   UNL     1      27.508  42.474  52.162  1.00  0.00    -0.376 N 
HETATM    2  C   UNL     1      27.859  41.231  52.874  1.00  0.00     0.150 C 
HETATM    3  C   UNL     1      28.713  40.322  51.967  1.00  0.00     0.255 C 
HETATM    4  N   UNL     1      28.022  40.014  50.620  1.00  0.00    -0.064 N 
HETATM    5  H   UNL     1      27.182  39.463  50.832  1.00  0.00     0.280 HD
HETATM    6  C   UNL     1      27.540  41.326  49.967  1.00  0.00     0.255 C 
HETATM    7  C   UNL     1      26.723  42.197  50.940  1.00  0.00     0.150 C 
ENDROOT
BRANCH   1   8
HETATM    8  C   UNL     1      27.323  43.668  52.854  1.00  0.00     0.053 A 
HETATM    9  C   UNL     1      28.301  44.109  53.878  1.00  0.00     0.013 A 
HETATM   10  C   UNL     1      29.436  43.456  54.347  1.00  0.00     0.015 A 
HETATM   11  C   UNL     1      27.964  45.329  54.461  1.00  0.00     0.075 A 
HETATM   12  C   UNL     1      30.211  44.056  55.350  1.00  0.00     0.001 A 
HETATM   13  C   UNL     1      29.847  45.296  55.898  1.00  0.00     0.002 A 
HETATM   14  C   UNL     1      28.698  45.948  55.458  1.00  0.00     0.025 A 
HETATM   15  S   UNL     1      26.460  45.903  53.798  1.00  0.00     0.200 S 
HETATM   16  O   UNL     1      26.734  47.080  53.004  1.00  0.00    -0.218 OA
HETATM   17  O   UNL     1      25.455  45.859  54.838  1.00  0.00    -0.218 OA
HETATM   18  C   UNL     1      26.289  44.524  52.761  1.00  0.00     0.144 A 
ENDBRANCH   1   8
BRANCH   4  19
HETATM   19  C   UNL     1      28.933  39.194  49.685  1.00  0.00     0.188 C 
HETATM   20  C   UNL     1      29.011  37.722  50.129  1.00  0.00     0.033 C 
HETATM   21  C   UNL     1      27.687  36.979  49.962  1.00  0.00     0.002 C 
HETATM   22  C   UNL     1      27.165  37.076  48.530  1.00  0.00     0.000 C 
HETATM   23  C   UNL     1      27.102  38.518  48.035  1.00  0.00     0.002 C 
HETATM   24  C   UNL     1      28.440  39.232  48.228  1.00  0.00     0.033 C 
ENDBRANCH   4  19
TORSDOF 2
ENDMDL
MODEL 5
REMARK VINA RESULT:      -7.6      3.789      7.744
REMARK  2 active torsions:
REMARK  status: ('A' for Active; 'I' for Inactive)
REMARK    1  A    between atoms: C_9  and  N_10 
REMARK    2  A    between atoms: N_13  and  C_15 
ROOT
HETATM    1  N   UNL     1      25.925  45.850  51.355  1.00  0.00    -0.376 N 
HETATM    2  C   UNL     1      24.505  45.471  51.233  1.00  0.00     0.150 C 
HETATM    3  C   UNL     1      23.924  46.003  49.907  1.00  0.00     0.255 C 
HETATM    4  N   UNL     1      24.107  47.529  49.751  1.00  0.00    -0.064 N 
HETATM    5  H   UNL     1      23.545  47.976  50.485  1.00  0.00     0.280 HD
HETATM    6  C   UNL     1      25.577  47.909  50.024  1.00  0.00     0.255 C 
HETATM    7  C   UNL     1      26.099  47.318  51.347  1.00  0.00     0.150 C 
ENDROOT
BRANCH   1   8
HETATM    8  C   UNL     1      26.824  45.044  52.049  1.00  0.00     0.053 A 
HETATM    9  C   UNL     1      27.315  45.439  53.391  1.00  0.00     0.013 A 
HETATM   10  C   UNL     1      27.057  46.599  54.114  1.00  0.00     0.015 A 
HETATM   11  C   UNL     1      28.198  44.511  53.941  1.00  0.00     0.075 A 
HETATM   12  C   UNL     1      27.656  46.775  55.370  1.00  0.00     0.001 A 
HETATM   13  C   UNL     1      28.525  45.807  55.897  1.00  0.00     0.002 A 
HETATM   14  C   UNL     1      28.815  44.654  55.172  1.00  0.00     0.025 A 
HETATM   15  S   UNL     1      28.451  43.204  52.820  1.00  0.00     0.200 S 
HETATM   16  O   UNL     1      27.850  42.010  53.373  1.00  0.00    -0.218 OA
HETATM   17  O   UNL     1      29.818  43.263  52.349  1.00  0.00    -0.218 OA
HETATM   18  C   UNL     1      27.392  43.897  51.635  1.00  0.00     0.144 A 
ENDBRANCH   1   8
BRANCH   4  19
HETATM   19  C   UNL     1      23.618  48.025  48.376  1.00  0.00     0.188 C 
HETATM   20  C   UNL     1      22.101  47.819  48.214  1.00  0.00     0.033 C 
HETATM   21  C   UNL     1      21.276  48.703  49.148  1.00  0.00     0.002 C 
HETATM   22  C   UNL     1      21.633  50.179  48.984  1.00  0.00     0.000 C 
HETATM   23  C   UNL     1      23.134  50.426  49.104  1.00  0.00     0.002 C 
HETATM   24  C   UNL     1      23.926  49.517  48.164  1.00  0.00     0.033 C 
ENDBRANCH   4  19
TORSDOF 2
ENDMDL
MODEL 6
REMARK VINA RESULT:      -7.2      4.074      5.791
REMARK  2 active torsions:
REMARK  status: ('A' for Active; 'I' for Inactive)
REMARK    1  A    between atoms: C_9  and  N_10 
REMARK    2  A    between atoms: N_13  and  C_15 
ROOT
HETATM    1  N   UNL     1      27.355  42.256  52.091  1.00  0.00    -0.376 N 
HETATM    2  C   UNL     1      28.216  41.335  52.855  1.00  0.00     0.150 C 
HETATM    3  C   UNL     1      29.035  40.451  51.893  1.00  0.00     0.255 C 
HETATM    4  N   UNL     1      28.142  39.678  50.897  1.00  0.00    -0.064 N 
HETATM    5  H   UNL     1      27.577  39.020  51.447  1.00  0.00     0.280 HD
HETATM    6  C   UNL     1      27.155  40.650  50.217  1.00  0.00     0.255 C 
HETATM    7  C   UNL     1      26.399  41.523  51.235  1.00  0.00     0.150 C 
ENDROOT
BRANCH   1   8
HETATM    8  C   UNL     1      27.019  43.509  52.597  1.00  0.00     0.053 A 
HETATM    9  C   UNL     1      26.755  44.649  51.687  1.00  0.00     0.013 A 
HETATM   10  C   UNL     1      26.848  44.705  50.300  1.00  0.00     0.015 A 
HETATM   11  C   UNL     1      26.424  45.821  52.366  1.00  0.00     0.075 A 
HETATM   12  C   UNL     1      26.572  45.911  49.639  1.00  0.00     0.001 A 
HETATM   13  C   UNL     1      26.223  47.064  50.359  1.00  0.00     0.002 A 
HETATM   14  C   UNL     1      26.154  47.031  51.749  1.00  0.00     0.025 A 
HETATM   15  S   UNL     1      26.475  45.541  54.083  1.00  0.00     0.200 S 
HETATM   16  O   UNL     1      25.124  45.615  54.594  1.00  0.00    -0.218 OA
HETATM   17  O   UNL     1      27.579  46.294  54.636  1.00  0.00    -0.218 OA
HETATM   18  C   UNL     1      26.937  43.881  53.888  1.00  0.00     0.144 A 
ENDBRANCH   1   8
BRANCH   4  19
HETATM   19  C   UNL     1      28.981  38.883  49.876  1.00  0.00     0.188 C 
HETATM   20  C   UNL     1      30.172  38.183  50.555  1.00  0.00     0.033 C 
HETATM   21  C   UNL     1      29.743  37.066  51.506  1.00  0.00     0.002 C 
HETATM   22  C   UNL     1      28.854  36.042  50.804  1.00  0.00     0.000 C 
HETATM   23  C   UNL     1      27.676  36.696  50.088  1.00  0.00     0.002 C 
HETATM   24  C   UNL     1      28.141  37.814  49.155  1.00  0.00     0.033 C 
ENDBRANCH   4  19
TORSDOF 2
ENDMDL
MODEL 7
REMARK VINA RESULT:      -7.1     12.367     13.643
REMARK  2 active torsions:
REMARK  status: ('A' for Active; 'I' for Inactive)
REMARK    1  A    between atoms: C_9  and  N_10 
REMARK    2  A    between atoms: N_13  and  C_15 
ROOT
HETATM    1  N   UNL     1      31.944  51.591  40.566  1.00  0.00    -0.376 N 
HETATM    2  C   UNL     1      32.815  52.491  39.787  1.00  0.00     0.150 C 
HETATM    3  C   UNL     1      34.295  52.113  39.998  1.00  0.00     0.255 C 
HETATM    4  N   UNL     1      34.696  52.105  41.490  1.00  0.00    -0.064 N 
HETATM    5  H   UNL     1      34.619  53.072  41.827  1.00  0.00     0.280 HD
HETATM    6  C   UNL     1      33.683  51.269  42.300  1.00  0.00     0.255 C 
HETATM    7  C   UNL     1      32.226  51.680  42.014  1.00  0.00     0.150 C 
ENDROOT
BRANCH   1   8
HETATM    8  C   UNL     1      30.662  51.275  40.123  1.00  0.00     0.053 A 
HETATM    9  C   UNL     1      30.350  49.919  39.612  1.00  0.00     0.013 A 
HETATM   10  C   UNL     1      31.199  48.832  39.430  1.00  0.00     0.015 A 
HETATM   11  C   UNL     1      29.019  49.778  39.222  1.00  0.00     0.075 A 
HETATM   12  C   UNL     1      30.686  47.638  38.902  1.00  0.00     0.001 A 
HETATM   13  C   UNL     1      29.335  47.531  38.540  1.00  0.00     0.002 A 
HETATM   14  C   UNL     1      28.479  48.620  38.691  1.00  0.00     0.025 A 
HETATM   15  S   UNL     1      28.179  51.287  39.439  1.00  0.00     0.200 S 
HETATM   16  O   UNL     1      27.221  51.123  40.510  1.00  0.00    -0.218 OA
HETATM   17  O   UNL     1      27.835  51.811  38.136  1.00  0.00    -0.218 OA
HETATM   18  C   UNL     1      29.595  52.090  40.039  1.00  0.00     0.144 A 
ENDBRANCH   1   8
BRANCH   4  19
HETATM   19  C   UNL     1      36.147  51.622  41.688  1.00  0.00     0.188 C 
HETATM   20  C   UNL     1      37.138  52.480  40.882  1.00  0.00     0.033 C 
HETATM   21  C   UNL     1      37.240  53.915  41.398  1.00  0.00     0.002 C 
HETATM   22  C   UNL     1      37.590  53.953  42.884  1.00  0.00     0.000 C 
HETATM   23  C   UNL     1      36.651  53.087  43.720  1.00  0.00     0.002 C 
HETATM   24  C   UNL     1      36.566  51.664  43.168  1.00  0.00     0.033 C 
ENDBRANCH   4  19
TORSDOF 2
ENDMDL
MODEL 8
REMARK VINA RESULT:      -7.1     10.871     12.181
REMARK  2 active torsions:
REMARK  status: ('A' for Active; 'I' for Inactive)
REMARK    1  A    between atoms: C_9  and  N_10 
REMARK    2  A    between atoms: N_13  and  C_15 
ROOT
HETATM    1  N   UNL     1      30.284  48.790  40.789  1.00  0.00    -0.376 N 
HETATM    2  C   UNL     1      30.914  47.692  40.032  1.00  0.00     0.150 C 
HETATM    3  C   UNL     1      29.845  46.909  39.243  1.00  0.00     0.255 C 
HETATM    4  N   UNL     1      28.710  46.380  40.149  1.00  0.00    -0.064 N 
HETATM    5  H   UNL     1      29.129  45.691  40.784  1.00  0.00     0.280 HD
HETATM    6  C   UNL     1      28.169  47.525  41.030  1.00  0.00     0.255 C 
HETATM    7  C   UNL     1      29.293  48.283  41.761  1.00  0.00     0.150 C 
ENDROOT
BRANCH   1   8
HETATM    8  C   UNL     1      30.978  49.969  41.050  1.00  0.00     0.053 A 
HETATM    9  C   UNL     1      30.400  51.285  40.687  1.00  0.00     0.013 A 
HETATM   10  C   UNL     1      29.211  51.568  40.022  1.00  0.00     0.015 A 
HETATM   11  C   UNL     1      31.226  52.354  41.031  1.00  0.00     0.075 A 
HETATM   12  C   UNL     1      28.871  52.904  39.759  1.00  0.00     0.001 A 
HETATM   13  C   UNL     1      29.721  53.953  40.139  1.00  0.00     0.002 A 
HETATM   14  C   UNL     1      30.928  53.683  40.780  1.00  0.00     0.025 A 
HETATM   15  S   UNL     1      32.695  51.757  41.748  1.00  0.00     0.200 S 
HETATM   16  O   UNL     1      32.700  52.127  43.146  1.00  0.00    -0.218 OA
HETATM   17  O   UNL     1      33.790  52.036  40.845  1.00  0.00    -0.218 OA
HETATM   18  C   UNL     1      32.207  50.101  41.582  1.00  0.00     0.144 A 
ENDBRANCH   1   8
BRANCH   4  19
HETATM   19  C   UNL     1      27.599  45.694  39.329  1.00  0.00     0.188 C 
HETATM   20  C   UNL     1      28.185  44.675  38.335  1.00  0.00     0.033 C 
HETATM   21  C   UNL     1      28.821  43.469  39.024  1.00  0.00     0.002 C 
HETATM   22  C   UNL     1      27.840  42.783  39.972  1.00  0.00     0.000 C 
HETATM   23  C   UNL     1      27.208  43.763  40.957  1.00  0.00     0.002 C 
HETATM   24  C   UNL     1      26.593  44.961  40.233  1.00  0.00     0.033 C 
ENDBRANCH   4  19
TORSDOF 2
ENDMDL
MODEL 9
REMARK VINA RESULT:      -7.0     18.901     20.864
REMARK  2 active torsions:
REMARK  status: ('A' for Active; 'I' for Inactive)
REMARK    1  A    between atoms: C_9  and  N_10 
REMARK    2  A    between atoms: N_13  and  C_15 
ROOT
HETATM    1  N   UNL     1      39.301  43.445  65.720  1.00  0.00    -0.376 N 
HETATM    2  C   UNL     1      38.538  43.882  66.904  1.00  0.00     0.150 C 
HETATM    3  C   UNL     1      37.415  44.852  66.484  1.00  0.00     0.255 C 
HETATM    4  N   UNL     1      37.948  46.064  65.687  1.00  0.00    -0.064 N 
HETATM    5  H   UNL     1      38.541  46.606  66.326  1.00  0.00     0.280 HD
HETATM    6  C   UNL     1      38.858  45.576  64.541  1.00  0.00     0.255 C 
HETATM    7  C   UNL     1      39.933  44.587  65.028  1.00  0.00     0.150 C 
ENDROOT
BRANCH   1   8
HETATM    8  C   UNL     1      39.897  42.186  65.678  1.00  0.00     0.053 A 
HETATM    9  C   UNL     1      39.743  41.315  64.488  1.00  0.00     0.013 A 
HETATM   10  C   UNL     1      38.998  41.530  63.333  1.00  0.00     0.015 A 
HETATM   11  C   UNL     1      40.413  40.099  64.615  1.00  0.00     0.075 A 
HETATM   12  C   UNL     1      38.977  40.545  62.334  1.00  0.00     0.001 A 
HETATM   13  C   UNL     1      39.682  39.342  62.493  1.00  0.00     0.002 A 
HETATM   14  C   UNL     1      40.409  39.102  63.656  1.00  0.00     0.025 A 
HETATM   15  S   UNL     1      41.181  40.011  66.174  1.00  0.00     0.200 S 
HETATM   16  O   UNL     1      42.614  40.055  65.977  1.00  0.00    -0.218 OA
HETATM   17  O   UNL     1      40.516  38.991  66.955  1.00  0.00    -0.218 OA
HETATM   18  C   UNL     1      40.606  41.577  66.645  1.00  0.00     0.144 A 
ENDBRANCH   1   8
BRANCH   4  19
HETATM   19  C   UNL     1      36.802  46.965  65.185  1.00  0.00     0.188 C 
HETATM   20  C   UNL     1      36.054  47.625  66.357  1.00  0.00     0.033 C 
HETATM   21  C   UNL     1      36.908  48.642  67.112  1.00  0.00     0.002 C 
HETATM   22  C   UNL     1      37.473  49.707  66.174  1.00  0.00     0.000 C 
HETATM   23  C   UNL     1      38.196  49.096  64.977  1.00  0.00     0.002 C 
HETATM   24  C   UNL     1      37.316  48.077  64.254  1.00  0.00     0.033 C 
ENDBRANCH   4  19
TORSDOF 2
ENDMDL
MODEL 10
REMARK VINA RESULT:      -7.0      4.878      9.249
REMARK  2 active torsions:
REMARK  status: ('A' for Active; 'I' for Inactive)
REMARK    1  A    between atoms: C_9  and  N_10 
REMARK    2  A    between atoms: N_13  and  C_15 
ROOT
HETATM    1  N   UNL     1      21.031  47.394  48.495  1.00  0.00    -0.376 N 
HETATM    2  C   UNL     1      21.165  48.446  47.471  1.00  0.00     0.150 C 
HETATM    3  C   UNL     1      20.780  49.817  48.064  1.00  0.00     0.255 C 
HETATM    4  N   UNL     1      19.362  49.818  48.679  1.00  0.00    -0.064 N 
HETATM    5  H   UNL     1      18.700  49.666  47.909  1.00  0.00     0.280 HD
HETATM    6  C   UNL     1      19.209  48.621  49.640  1.00  0.00     0.255 C 
HETATM    7  C   UNL     1      19.643  47.292  48.992  1.00  0.00     0.150 C 
ENDROOT
BRANCH   1   8
HETATM    8  C   UNL     1      21.849  46.267  48.475  1.00  0.00     0.053 A 
HETATM    9  C   UNL     1      23.219  46.316  49.041  1.00  0.00     0.013 A 
HETATM   10  C   UNL     1      23.908  47.397  49.582  1.00  0.00     0.015 A 
HETATM   11  C   UNL     1      23.890  45.098  48.944  1.00  0.00     0.075 A 
HETATM   12  C   UNL     1      25.222  47.217  50.039  1.00  0.00     0.001 A 
HETATM   13  C   UNL     1      25.855  45.968  49.942  1.00  0.00     0.002 A 
HETATM   14  C   UNL     1      25.187  44.884  49.377  1.00  0.00     0.025 A 
HETATM   15  S   UNL     1      22.878  43.930  48.143  1.00  0.00     0.200 S 
HETATM   16  O   UNL     1      22.498  42.922  49.107  1.00  0.00    -0.218 OA
HETATM   17  O   UNL     1      23.465  43.622  46.857  1.00  0.00    -0.218 OA
HETATM   18  C   UNL     1      21.581  45.063  47.938  1.00  0.00     0.144 A 
ENDBRANCH   1   8
BRANCH   4  19
HETATM   19  C   UNL     1      19.037  51.162  49.360  1.00  0.00     0.188 C 
HETATM   20  C   UNL     1      19.150  52.334  48.368  1.00  0.00     0.033 C 
HETATM   21  C   UNL     1      18.079  52.298  47.279  1.00  0.00     0.002 C 
HETATM   22  C   UNL     1      16.675  52.239  47.874  1.00  0.00     0.000 C 
HETATM   23  C   UNL     1      16.526  51.110  48.890  1.00  0.00     0.002 C 
HETATM   24  C   UNL     1      17.619  51.172  49.957  1.00  0.00     0.033 C 
ENDBRANCH   4  19
TORSDOF 2
ENDMDL
