MODEL 1
REMARK VINA RESULT:      -9.9      0.000      0.000
REMARK  6 active torsions:
REMARK  status: ('A' for Active; 'I' for Inactive)
REMARK    1  A    between atoms: C_2  and  N_3 
REMARK    2  A    between atoms: C_2  and  C_16 
REMARK    3  A    between atoms: N_3  and  C_5 
REMARK    4  A    between atoms: C_5  and  C_6 
REMARK       I    between atoms: C_16  and  N_17 
REMARK    5  A    between atoms: N_17  and  C_18 
REMARK    6  A    between atoms: C_19  and  C_20 
ROOT
HETATM    1  C   UNL     1      27.293  42.983  53.884  1.00  0.00     0.253 C 
HETATM    2  N   UNL     1      27.951  44.172  53.679  1.00  0.00    -0.325 N 
HETATM    3  O   UNL     1      26.486  42.747  54.785  1.00  0.00    -0.271 OA
HETATM    4  H   UNL     1      28.851  44.162  53.212  1.00  0.00     0.169 HD
ENDROOT
BRANCH   1   5
HETATM    5  C   UNL     1      27.711  41.806  52.979  1.00  0.00     0.275 C 
HETATM    6  C   UNL     1      29.202  41.707  52.698  1.00  0.00     0.050 C 
BRANCH   5   7
HETATM    7  N   UNL     1      26.869  41.847  51.673  1.00  0.00    -0.059 N 
HETATM    8  H   UNL     1      25.967  42.228  52.013  1.00  0.00     0.280 HD
HETATM    9  C   UNL     1      26.579  40.475  51.142  1.00  0.00     0.271 C 
BRANCH   7  10
HETATM   10  C   UNL     1      27.286  42.797  50.570  1.00  0.00     0.274 C 
BRANCH  10  11
HETATM   11  C   UNL     1      26.485  44.065  50.429  1.00  0.00    -0.030 A 
HETATM   12  C   UNL     1      27.057  45.225  49.879  1.00  0.00     0.048 A 
HETATM   13  C   UNL     1      26.279  46.361  49.786  1.00  0.00     0.105 A 
HETATM   14  C   UNL     1      24.986  46.395  50.243  1.00  0.00     0.105 A 
HETATM   15  O   UNL     1      26.673  47.547  49.252  1.00  0.00    -0.323 OA
HETATM   16  O   UNL     1      24.402  47.607  50.057  1.00  0.00    -0.323 OA
HETATM   17  C   UNL     1      24.399  45.296  50.824  1.00  0.00     0.040 A 
HETATM   18  C   UNL     1      25.474  48.336  49.421  1.00  0.00     0.352 A 
HETATM   19  C   UNL     1      25.157  44.123  50.920  1.00  0.00     0.012 A 
ENDBRANCH  10  11
ENDBRANCH   7  10
ENDBRANCH   5   7
ENDBRANCH   1   5
BRANCH   2  20
HETATM   20  C   UNL     1      27.584  45.428  54.232  1.00  0.00     0.045 A 
HETATM   21  C   UNL     1      28.360  45.966  55.287  1.00  0.00     0.001 A 
HETATM   22  C   UNL     1      28.048  47.251  55.768  1.00  0.00     0.014 A 
HETATM   23  C   UNL     1      26.992  47.985  55.229  1.00  0.00     0.001 A 
HETATM   24  C   UNL     1      26.227  47.444  54.203  1.00  0.00     0.002 A 
HETATM   25  C   UNL     1      26.519  46.172  53.706  1.00  0.00     0.030 A 
BRANCH  21  26
HETATM   26  C   UNL     1      29.434  45.206  55.947  1.00  0.00    -0.024 A 
HETATM   27  C   UNL     1      30.091  44.157  55.288  1.00  0.00     0.012 A 
HETATM   28  C   UNL     1      31.116  43.449  55.923  1.00  0.00     0.001 A 
HETATM   29  C   UNL     1      31.497  43.783  57.222  1.00  0.00     0.000 A 
HETATM   30  C   UNL     1      30.857  44.826  57.888  1.00  0.00     0.001 A 
HETATM   31  C   UNL     1      29.834  45.532  57.254  1.00  0.00     0.012 A 
ENDBRANCH  21  26
ENDBRANCH   2  20
TORSDOF 6
ENDMDL
MODEL 2
REMARK VINA RESULT:      -8.9      2.712      5.204
REMARK  6 active torsions:
REMARK  status: ('A' for Active; 'I' for Inactive)
REMARK    1  A    between atoms: C_2  and  N_3 
REMARK    2  A    between atoms: C_2  and  C_16 
REMARK    3  A    between atoms: N_3  and  C_5 
REMARK    4  A    between atoms: C_5  and  C_6 
REMARK       I    between atoms: C_16  and  N_17 
REMARK    5  A    between atoms: N_17  and  C_18 
REMARK    6  A    between atoms: C_19  and  C_20 
ROOT
HETATM    1  C   UNL     1      25.293  45.018  51.888  1.00  0.00     0.253 C 
HETATM    2  N   UNL     1      26.565  45.430  52.205  1.00  0.00    -0.325 N 
HETATM    3  O   UNL     1      24.420  44.677  52.688  1.00  0.00    -0.271 OA
HETATM    4  H   UNL     1      27.308  45.297  51.528  1.00  0.00     0.169 HD
ENDROOT
BRANCH   1   5
HETATM    5  C   UNL     1      24.985  44.845  50.386  1.00  0.00     0.275 C 
HETATM    6  C   UNL     1      23.943  45.802  49.828  1.00  0.00     0.050 C 
BRANCH   5   7
HETATM    7  N   UNL     1      24.627  43.359  50.108  1.00  0.00    -0.059 N 
HETATM    8  H   UNL     1      24.919  43.250  49.120  1.00  0.00     0.280 HD
HETATM    9  C   UNL     1      23.148  43.115  50.145  1.00  0.00     0.271 C 
BRANCH   7  10
HETATM   10  C   UNL     1      25.390  42.278  50.846  1.00  0.00     0.274 C 
BRANCH  10  11
HETATM   11  C   UNL     1      26.284  41.394  50.016  1.00  0.00    -0.030 A 
HETATM   12  C   UNL     1      26.522  40.059  50.382  1.00  0.00     0.048 A 
HETATM   13  C   UNL     1      27.360  39.299  49.592  1.00  0.00     0.105 A 
HETATM   14  C   UNL     1      27.986  39.820  48.488  1.00  0.00     0.105 A 
HETATM   15  O   UNL     1      27.664  37.990  49.792  1.00  0.00    -0.323 OA
HETATM   16  O   UNL     1      28.766  38.906  47.854  1.00  0.00    -0.323 OA
HETATM   17  C   UNL     1      27.813  41.132  48.115  1.00  0.00     0.040 A 
HETATM   18  C   UNL     1      28.554  37.741  48.681  1.00  0.00     0.352 A 
HETATM   19  C   UNL     1      26.957  41.925  48.889  1.00  0.00     0.012 A 
ENDBRANCH  10  11
ENDBRANCH   7  10
ENDBRANCH   5   7
ENDBRANCH   1   5
BRANCH   2  20
HETATM   20  C   UNL     1      26.999  45.863  53.486  1.00  0.00     0.045 A 
HETATM   21  C   UNL     1      27.895  45.047  54.219  1.00  0.00     0.001 A 
HETATM   22  C   UNL     1      28.395  45.525  55.445  1.00  0.00     0.014 A 
HETATM   23  C   UNL     1      28.015  46.771  55.941  1.00  0.00     0.001 A 
HETATM   24  C   UNL     1      27.125  47.560  55.222  1.00  0.00     0.002 A 
HETATM   25  C   UNL     1      26.618  47.110  54.001  1.00  0.00     0.030 A 
BRANCH  21  26
HETATM   26  C   UNL     1      28.268  43.692  53.783  1.00  0.00    -0.024 A 
HETATM   27  C   UNL     1      27.450  42.588  54.064  1.00  0.00     0.012 A 
HETATM   28  C   UNL     1      27.811  41.308  53.635  1.00  0.00     0.001 A 
HETATM   29  C   UNL     1      28.993  41.117  52.920  1.00  0.00     0.000 A 
HETATM   30  C   UNL     1      29.814  42.204  52.629  1.00  0.00     0.001 A 
HETATM   31  C   UNL     1      29.453  43.482  53.056  1.00  0.00     0.012 A 
ENDBRANCH  21  26
ENDBRANCH   2  20
TORSDOF 6
ENDMDL
MODEL 3
REMARK VINA RESULT:      -8.8      2.782      4.443
REMARK  6 active torsions:
REMARK  status: ('A' for Active; 'I' for Inactive)
REMARK    1  A    between atoms: C_2  and  N_3 
REMARK    2  A    between atoms: C_2  and  C_16 
REMARK    3  A    between atoms: N_3  and  C_5 
REMARK    4  A    between atoms: C_5  and  C_6 
REMARK       I    between atoms: C_16  and  N_17 
REMARK    5  A    between atoms: N_17  and  C_18 
REMARK    6  A    between atoms: C_19  and  C_20 
ROOT
HETATM    1  C   UNL     1      25.133  44.926  51.820  1.00  0.00     0.253 C 
HETATM    2  N   UNL     1      26.369  45.428  52.151  1.00  0.00    -0.325 N 
HETATM    3  O   UNL     1      24.244  44.607  52.613  1.00  0.00    -0.271 OA
HETATM    4  H   UNL     1      27.146  45.278  51.517  1.00  0.00     0.169 HD
ENDROOT
BRANCH   1   5
HETATM    5  C   UNL     1      24.898  44.615  50.328  1.00  0.00     0.275 C 
HETATM    6  C   UNL     1      25.910  45.231  49.375  1.00  0.00     0.050 C 
BRANCH   5   7
HETATM    7  N   UNL     1      23.437  44.988  49.954  1.00  0.00    -0.059 N 
HETATM    8  H   UNL     1      23.172  45.616  50.735  1.00  0.00     0.280 HD
HETATM    9  C   UNL     1      22.515  43.809  50.023  1.00  0.00     0.271 C 
BRANCH   7  10
HETATM   10  C   UNL     1      23.195  45.816  48.710  1.00  0.00     0.274 C 
BRANCH  10  11
HETATM   11  C   UNL     1      22.718  47.229  48.918  1.00  0.00    -0.030 A 
HETATM   12  C   UNL     1      21.351  47.549  48.848  1.00  0.00     0.048 A 
HETATM   13  C   UNL     1      20.972  48.863  49.035  1.00  0.00     0.105 A 
HETATM   14  C   UNL     1      21.891  49.859  49.251  1.00  0.00     0.105 A 
HETATM   15  O   UNL     1      19.695  49.326  49.030  1.00  0.00    -0.323 OA
HETATM   16  O   UNL     1      21.309  51.076  49.408  1.00  0.00    -0.323 OA
HETATM   17  C   UNL     1      23.241  49.598  49.288  1.00  0.00     0.040 A 
HETATM   18  C   UNL     1      19.913  50.734  49.273  1.00  0.00     0.352 A 
HETATM   19  C   UNL     1      23.655  48.272  49.116  1.00  0.00     0.012 A 
ENDBRANCH  10  11
ENDBRANCH   7  10
ENDBRANCH   5   7
ENDBRANCH   1   5
BRANCH   2  20
HETATM   20  C   UNL     1      26.727  45.986  53.406  1.00  0.00     0.045 A 
HETATM   21  C   UNL     1      27.666  45.305  54.218  1.00  0.00     0.001 A 
HETATM   22  C   UNL     1      28.087  45.909  55.417  1.00  0.00     0.014 A 
HETATM   23  C   UNL     1      27.589  47.151  55.811  1.00  0.00     0.001 A 
HETATM   24  C   UNL     1      26.657  47.806  55.016  1.00  0.00     0.002 A 
HETATM   25  C   UNL     1      26.227  47.230  53.820  1.00  0.00     0.030 A 
BRANCH  21  26
HETATM   26  C   UNL     1      28.164  43.959  53.892  1.00  0.00    -0.024 A 
HETATM   27  C   UNL     1      27.374  42.821  54.105  1.00  0.00     0.012 A 
HETATM   28  C   UNL     1      27.856  41.550  53.781  1.00  0.00     0.001 A 
HETATM   29  C   UNL     1      29.132  41.402  53.239  1.00  0.00     0.000 A 
HETATM   30  C   UNL     1      29.927  42.523  53.017  1.00  0.00     0.001 A 
HETATM   31  C   UNL     1      29.446  43.792  53.340  1.00  0.00     0.012 A 
ENDBRANCH  21  26
ENDBRANCH   2  20
TORSDOF 6
ENDMDL
MODEL 4
REMARK VINA RESULT:      -8.6     12.641     15.348
REMARK  6 active torsions:
REMARK  status: ('A' for Active; 'I' for Inactive)
REMARK    1  A    between atoms: C_2  and  N_3 
REMARK    2  A    between atoms: C_2  and  C_16 
REMARK    3  A    between atoms: N_3  and  C_5 
REMARK    4  A    between atoms: C_5  and  C_6 
REMARK       I    between atoms: C_16  and  N_17 
REMARK    5  A    between atoms: N_17  and  C_18 
REMARK    6  A    between atoms: C_19  and  C_20 
ROOT
HETATM    1  C   UNL     1      32.121  52.370  39.370  1.00  0.00     0.253 C 
HETATM    2  N   UNL     1      33.205  52.759  40.120  1.00  0.00    -0.325 N 
HETATM    3  O   UNL     1      32.151  51.648  38.372  1.00  0.00    -0.271 OA
HETATM    4  H   UNL     1      33.159  53.632  40.634  1.00  0.00     0.169 HD
ENDROOT
BRANCH   1   5
HETATM    5  C   UNL     1      30.767  53.008  39.743  1.00  0.00     0.275 C 
HETATM    6  C   UNL     1      30.622  53.401  41.205  1.00  0.00     0.050 C 
BRANCH   5   7
HETATM    7  N   UNL     1      29.618  52.076  39.269  1.00  0.00    -0.059 N 
HETATM    8  H   UNL     1      30.141  51.320  38.791  1.00  0.00     0.280 HD
HETATM    9  C   UNL     1      28.756  52.723  38.227  1.00  0.00     0.271 C 
BRANCH   7  10
HETATM   10  C   UNL     1      28.790  51.356  40.312  1.00  0.00     0.274 C 
BRANCH  10  11
HETATM   11  C   UNL     1      28.838  49.851  40.296  1.00  0.00    -0.030 A 
HETATM   12  C   UNL     1      29.440  49.158  39.232  1.00  0.00     0.048 A 
HETATM   13  C   UNL     1      29.445  47.778  39.263  1.00  0.00     0.105 A 
HETATM   14  C   UNL     1      28.853  47.074  40.281  1.00  0.00     0.105 A 
HETATM   15  O   UNL     1      30.012  46.968  38.332  1.00  0.00    -0.323 OA
HETATM   16  O   UNL     1      28.970  45.730  40.119  1.00  0.00    -0.323 OA
HETATM   17  C   UNL     1      28.219  47.710  41.323  1.00  0.00     0.040 A 
HETATM   18  C   UNL     1      29.713  45.665  38.882  1.00  0.00     0.352 A 
HETATM   19  C   UNL     1      28.210  49.109  41.326  1.00  0.00     0.012 A 
ENDBRANCH  10  11
ENDBRANCH   7  10
ENDBRANCH   5   7
ENDBRANCH   1   5
BRANCH   2  20
HETATM   20  C   UNL     1      34.486  52.148  40.102  1.00  0.00     0.045 A 
HETATM   21  C   UNL     1      34.645  50.870  40.691  1.00  0.00     0.001 A 
HETATM   22  C   UNL     1      35.893  50.229  40.589  1.00  0.00     0.014 A 
HETATM   23  C   UNL     1      36.962  50.835  39.930  1.00  0.00     0.001 A 
HETATM   24  C   UNL     1      36.802  52.095  39.367  1.00  0.00     0.002 A 
HETATM   25  C   UNL     1      35.572  52.750  39.451  1.00  0.00     0.030 A 
BRANCH  21  26
HETATM   26  C   UNL     1      33.577  50.218  41.466  1.00  0.00    -0.024 A 
HETATM   27  C   UNL     1      33.013  50.838  42.590  1.00  0.00     0.012 A 
HETATM   28  C   UNL     1      31.992  50.213  43.311  1.00  0.00     0.001 A 
HETATM   29  C   UNL     1      31.522  48.961  42.916  1.00  0.00     0.000 A 
HETATM   30  C   UNL     1      32.069  48.333  41.799  1.00  0.00     0.001 A 
HETATM   31  C   UNL     1      33.088  48.958  41.079  1.00  0.00     0.012 A 
ENDBRANCH  21  26
ENDBRANCH   2  20
TORSDOF 6
ENDMDL
MODEL 5
REMARK VINA RESULT:      -8.5     12.775     15.220
REMARK  6 active torsions:
REMARK  status: ('A' for Active; 'I' for Inactive)
REMARK    1  A    between atoms: C_2  and  N_3 
REMARK    2  A    between atoms: C_2  and  C_16 
REMARK    3  A    between atoms: N_3  and  C_5 
REMARK    4  A    between atoms: C_5  and  C_6 
REMARK       I    between atoms: C_16  and  N_17 
REMARK    5  A    between atoms: N_17  and  C_18 
REMARK    6  A    between atoms: C_19  and  C_20 
ROOT
HETATM    1  C   UNL     1      27.652  50.527  38.748  1.00  0.00     0.253 C 
HETATM    2  N   UNL     1      28.477  49.454  38.511  1.00  0.00    -0.325 N 
HETATM    3  O   UNL     1      26.419  50.509  38.743  1.00  0.00    -0.271 OA
HETATM    4  H   UNL     1      29.406  49.621  38.138  1.00  0.00     0.169 HD
ENDROOT
BRANCH   1   5
HETATM    5  C   UNL     1      28.341  51.898  38.902  1.00  0.00     0.275 C 
HETATM    6  C   UNL     1      29.455  52.175  37.904  1.00  0.00     0.050 C 
BRANCH   5   7
HETATM    7  N   UNL     1      28.815  52.066  40.373  1.00  0.00    -0.059 N 
HETATM    8  H   UNL     1      29.238  51.140  40.567  1.00  0.00     0.280 HD
HETATM    9  C   UNL     1      27.668  52.220  41.324  1.00  0.00     0.271 C 
BRANCH   7  10
HETATM   10  C   UNL     1      29.924  53.054  40.669  1.00  0.00     0.274 C 
BRANCH  10  11
HETATM   11  C   UNL     1      31.186  52.495  41.274  1.00  0.00    -0.030 A 
HETATM   12  C   UNL     1      32.224  52.010  40.460  1.00  0.00     0.048 A 
HETATM   13  C   UNL     1      33.353  51.498  41.069  1.00  0.00     0.105 A 
HETATM   14  C   UNL     1      33.469  51.421  42.433  1.00  0.00     0.105 A 
HETATM   15  O   UNL     1      34.451  51.023  40.426  1.00  0.00    -0.323 OA
HETATM   16  O   UNL     1      34.654  50.885  42.823  1.00  0.00    -0.323 OA
HETATM   17  C   UNL     1      32.461  51.847  43.267  1.00  0.00     0.040 A 
HETATM   18  C   UNL     1      35.280  50.639  41.545  1.00  0.00     0.352 A 
HETATM   19  C   UNL     1      31.310  52.385  42.680  1.00  0.00     0.012 A 
ENDBRANCH  10  11
ENDBRANCH   7  10
ENDBRANCH   5   7
ENDBRANCH   1   5
BRANCH   2  20
HETATM   20  C   UNL     1      28.093  48.088  38.557  1.00  0.00     0.045 A 
HETATM   21  C   UNL     1      28.645  47.253  39.558  1.00  0.00     0.001 A 
HETATM   22  C   UNL     1      28.190  45.925  39.656  1.00  0.00     0.014 A 
HETATM   23  C   UNL     1      27.221  45.429  38.785  1.00  0.00     0.001 A 
HETATM   24  C   UNL     1      26.694  46.251  37.796  1.00  0.00     0.002 A 
HETATM   25  C   UNL     1      27.126  47.574  37.680  1.00  0.00     0.030 A 
BRANCH  21  26
HETATM   26  C   UNL     1      29.726  47.698  40.452  1.00  0.00    -0.024 A 
HETATM   27  C   UNL     1      29.445  48.336  41.669  1.00  0.00     0.012 A 
HETATM   28  C   UNL     1      30.480  48.745  42.513  1.00  0.00     0.001 A 
HETATM   29  C   UNL     1      31.808  48.520  42.152  1.00  0.00     0.000 A 
HETATM   30  C   UNL     1      32.104  47.884  40.949  1.00  0.00     0.001 A 
HETATM   31  C   UNL     1      31.070  47.475  40.106  1.00  0.00     0.012 A 
ENDBRANCH  21  26
ENDBRANCH   2  20
TORSDOF 6
ENDMDL
MODEL 6
REMARK VINA RESULT:      -8.4      2.607      6.441
REMARK  6 active torsions:
REMARK  status: ('A' for Active; 'I' for Inactive)
REMARK    1  A    between atoms: C_2  and  N_3 
REMARK    2  A    between atoms: C_2  and  C_16 
REMARK    3  A    between atoms: N_3  and  C_5 
REMARK    4  A    between atoms: C_5  and  C_6 
REMARK       I    between atoms: C_16  and  N_17 
REMARK    5  A    between atoms: N_17  and  C_18 
REMARK    6  A    between atoms: C_19  and  C_20 
ROOT
HETATM    1  C   UNL     1      26.865  41.479  50.826  1.00  0.00     0.253 C 
HETATM    2  N   UNL     1      26.507  42.756  50.466  1.00  0.00    -0.325 N 
HETATM    3  O   UNL     1      26.094  40.538  51.022  1.00  0.00    -0.271 OA
HETATM    4  H   UNL     1      27.116  43.527  50.719  1.00  0.00     0.169 HD
ENDROOT
BRANCH   1   5
HETATM    5  C   UNL     1      28.358  41.249  51.136  1.00  0.00     0.275 C 
HETATM    6  C   UNL     1      28.843  39.820  50.948  1.00  0.00     0.050 C 
BRANCH   5   7
HETATM    7  N   UNL     1      28.672  41.794  52.557  1.00  0.00    -0.059 N 
HETATM    8  H   UNL     1      29.543  41.284  52.792  1.00  0.00     0.280 HD
HETATM    9  C   UNL     1      27.646  41.372  53.565  1.00  0.00     0.271 C 
BRANCH   7  10
HETATM   10  C   UNL     1      29.039  43.255  52.710  1.00  0.00     0.274 C 
BRANCH  10  11
HETATM   11  C   UNL     1      29.532  43.692  54.064  1.00  0.00    -0.030 A 
HETATM   12  C   UNL     1      28.951  44.786  54.727  1.00  0.00     0.048 A 
HETATM   13  C   UNL     1      29.451  45.150  55.961  1.00  0.00     0.105 A 
HETATM   14  C   UNL     1      30.513  44.496  56.534  1.00  0.00     0.105 A 
HETATM   15  O   UNL     1      28.980  46.159  56.739  1.00  0.00    -0.323 OA
HETATM   16  O   UNL     1      30.847  45.012  57.745  1.00  0.00    -0.323 OA
HETATM   17  C   UNL     1      31.137  43.445  55.904  1.00  0.00     0.040 A 
HETATM   18  C   UNL     1      29.867  46.065  57.877  1.00  0.00     0.352 A 
HETATM   19  C   UNL     1      30.643  43.044  54.657  1.00  0.00     0.012 A 
ENDBRANCH  10  11
ENDBRANCH   7  10
ENDBRANCH   5   7
ENDBRANCH   1   5
BRANCH   2  20
HETATM   20  C   UNL     1      25.251  43.144  49.930  1.00  0.00     0.045 A 
HETATM   21  C   UNL     1      24.575  44.251  50.497  1.00  0.00     0.001 A 
HETATM   22  C   UNL     1      23.377  44.688  49.902  1.00  0.00     0.014 A 
HETATM   23  C   UNL     1      22.853  44.046  48.781  1.00  0.00     0.001 A 
HETATM   24  C   UNL     1      23.516  42.952  48.238  1.00  0.00     0.002 A 
HETATM   25  C   UNL     1      24.709  42.501  48.808  1.00  0.00     0.030 A 
BRANCH  21  26
HETATM   26  C   UNL     1      25.038  44.916  51.726  1.00  0.00    -0.024 A 
HETATM   27  C   UNL     1      25.562  46.216  51.694  1.00  0.00     0.012 A 
HETATM   28  C   UNL     1      25.989  46.840  52.869  1.00  0.00     0.001 A 
HETATM   29  C   UNL     1      25.897  46.172  54.090  1.00  0.00     0.000 A 
HETATM   30  C   UNL     1      25.374  44.881  54.139  1.00  0.00     0.001 A 
HETATM   31  C   UNL     1      24.947  44.259  52.965  1.00  0.00     0.012 A 
ENDBRANCH  21  26
ENDBRANCH   2  20
TORSDOF 6
ENDMDL
MODEL 7
REMARK VINA RESULT:      -8.3      2.791      5.877
REMARK  6 active torsions:
REMARK  status: ('A' for Active; 'I' for Inactive)
REMARK    1  A    between atoms: C_2  and  N_3 
REMARK    2  A    between atoms: C_2  and  C_16 
REMARK    3  A    between atoms: N_3  and  C_5 
REMARK    4  A    between atoms: C_5  and  C_6 
REMARK       I    between atoms: C_16  and  N_17 
REMARK    5  A    between atoms: N_17  and  C_18 
REMARK    6  A    between atoms: C_19  and  C_20 
ROOT
HETATM    1  C   UNL     1      26.668  44.411  50.491  1.00  0.00     0.253 C 
HETATM    2  N   UNL     1      26.717  44.027  51.810  1.00  0.00    -0.325 N 
HETATM    3  O   UNL     1      27.624  44.784  49.808  1.00  0.00    -0.271 OA
HETATM    4  H   UNL     1      25.887  44.133  52.384  1.00  0.00     0.169 HD
ENDROOT
BRANCH   1   5
HETATM    5  C   UNL     1      25.264  44.504  49.858  1.00  0.00     0.275 C 
HETATM    6  C   UNL     1      24.119  44.638  50.848  1.00  0.00     0.050 C 
BRANCH   5   7
HETATM    7  N   UNL     1      25.064  43.307  48.887  1.00  0.00    -0.059 N 
HETATM    8  H   UNL     1      25.925  43.354  48.312  1.00  0.00     0.280 HD
HETATM    9  C   UNL     1      23.913  43.522  47.951  1.00  0.00     0.271 C 
BRANCH   7  10
HETATM   10  C   UNL     1      25.069  41.903  49.455  1.00  0.00     0.274 C 
BRANCH  10  11
HETATM   11  C   UNL     1      26.297  41.071  49.195  1.00  0.00    -0.030 A 
HETATM   12  C   UNL     1      26.591  39.947  49.986  1.00  0.00     0.048 A 
HETATM   13  C   UNL     1      27.736  39.229  49.710  1.00  0.00     0.105 A 
HETATM   14  C   UNL     1      28.603  39.601  48.714  1.00  0.00     0.105 A 
HETATM   15  O   UNL     1      28.141  38.106  50.359  1.00  0.00    -0.323 OA
HETATM   16  O   UNL     1      29.666  38.761  48.611  1.00  0.00    -0.323 OA
HETATM   17  C   UNL     1      28.377  40.716  47.941  1.00  0.00     0.040 A 
HETATM   18  C   UNL     1      29.366  37.807  49.653  1.00  0.00     0.352 A 
HETATM   19  C   UNL     1      27.215  41.457  48.188  1.00  0.00     0.012 A 
ENDBRANCH  10  11
ENDBRANCH   7  10
ENDBRANCH   5   7
ENDBRANCH   1   5
BRANCH   2  20
HETATM   20  C   UNL     1      27.889  43.664  52.523  1.00  0.00     0.045 A 
HETATM   21  C   UNL     1      28.257  44.414  53.667  1.00  0.00     0.001 A 
HETATM   22  C   UNL     1      29.366  43.992  54.423  1.00  0.00     0.014 A 
HETATM   23  C   UNL     1      30.101  42.865  54.058  1.00  0.00     0.001 A 
HETATM   24  C   UNL     1      29.742  42.142  52.926  1.00  0.00     0.002 A 
HETATM   25  C   UNL     1      28.643  42.538  52.161  1.00  0.00     0.030 A 
BRANCH  21  26
HETATM   26  C   UNL     1      27.568  45.655  54.053  1.00  0.00    -0.024 A 
HETATM   27  C   UNL     1      28.108  46.515  55.021  1.00  0.00     0.012 A 
HETATM   28  C   UNL     1      27.448  47.696  55.371  1.00  0.00     0.001 A 
HETATM   29  C   UNL     1      26.242  48.031  54.759  1.00  0.00     0.000 A 
HETATM   30  C   UNL     1      25.694  47.190  53.793  1.00  0.00     0.001 A 
HETATM   31  C   UNL     1      26.353  46.012  53.443  1.00  0.00     0.012 A 
ENDBRANCH  21  26
ENDBRANCH   2  20
TORSDOF 6
ENDMDL
MODEL 8
REMARK VINA RESULT:      -8.3      3.068      8.402
REMARK  6 active torsions:
REMARK  status: ('A' for Active; 'I' for Inactive)
REMARK    1  A    between atoms: C_2  and  N_3 
REMARK    2  A    between atoms: C_2  and  C_16 
REMARK    3  A    between atoms: N_3  and  C_5 
REMARK    4  A    between atoms: C_5  and  C_6 
REMARK       I    between atoms: C_16  and  N_17 
REMARK    5  A    between atoms: N_17  and  C_18 
REMARK    6  A    between atoms: C_19  and  C_20 
ROOT
HETATM    1  C   UNL     1      24.457  45.439  50.965  1.00  0.00     0.253 C 
HETATM    2  N   UNL     1      24.029  46.232  49.927  1.00  0.00    -0.325 N 
HETATM    3  O   UNL     1      23.898  44.420  51.377  1.00  0.00    -0.271 OA
HETATM    4  H   UNL     1      24.285  47.213  49.920  1.00  0.00     0.169 HD
ENDROOT
BRANCH   1   5
HETATM    5  C   UNL     1      25.672  45.954  51.763  1.00  0.00     0.275 C 
HETATM    6  C   UNL     1      26.080  47.387  51.460  1.00  0.00     0.050 C 
BRANCH   5   7
HETATM    7  N   UNL     1      26.853  44.958  51.589  1.00  0.00    -0.059 N 
HETATM    8  H   UNL     1      27.673  45.587  51.659  1.00  0.00     0.280 HD
HETATM    9  C   UNL     1      26.891  44.357  50.217  1.00  0.00     0.271 C 
BRANCH   7  10
HETATM   10  C   UNL     1      27.086  43.917  52.663  1.00  0.00     0.274 C 
BRANCH  10  11
HETATM   11  C   UNL     1      28.040  44.286  53.769  1.00  0.00    -0.030 A 
HETATM   12  C   UNL     1      29.069  43.412  54.159  1.00  0.00     0.048 A 
HETATM   13  C   UNL     1      29.906  43.797  55.187  1.00  0.00     0.105 A 
HETATM   14  C   UNL     1      29.739  44.985  55.851  1.00  0.00     0.105 A 
HETATM   15  O   UNL     1      30.962  43.082  55.657  1.00  0.00    -0.323 OA
HETATM   16  O   UNL     1      30.667  45.169  56.826  1.00  0.00    -0.323 OA
HETATM   17  C   UNL     1      28.722  45.854  55.529  1.00  0.00     0.040 A 
HETATM   18  C   UNL     1      31.447  43.961  56.697  1.00  0.00     0.352 A 
HETATM   19  C   UNL     1      27.865  45.497  54.482  1.00  0.00     0.012 A 
ENDBRANCH  10  11
ENDBRANCH   7  10
ENDBRANCH   5   7
ENDBRANCH   1   5
BRANCH   2  20
HETATM   20  C   UNL     1      23.087  45.857  48.933  1.00  0.00     0.045 A 
HETATM   21  C   UNL     1      22.423  46.871  48.200  1.00  0.00     0.001 A 
HETATM   22  C   UNL     1      21.560  46.494  47.154  1.00  0.00     0.014 A 
HETATM   23  C   UNL     1      21.350  45.151  46.842  1.00  0.00     0.001 A 
HETATM   24  C   UNL     1      21.995  44.162  47.576  1.00  0.00     0.002 A 
HETATM   25  C   UNL     1      22.859  44.510  48.616  1.00  0.00     0.030 A 
BRANCH  21  26
HETATM   26  C   UNL     1      22.545  48.298  48.536  1.00  0.00    -0.024 A 
HETATM   27  C   UNL     1      23.714  49.016  48.244  1.00  0.00     0.012 A 
HETATM   28  C   UNL     1      23.813  50.374  48.559  1.00  0.00     0.001 A 
HETATM   29  C   UNL     1      22.745  51.030  49.169  1.00  0.00     0.000 A 
HETATM   30  C   UNL     1      21.575  50.333  49.462  1.00  0.00     0.001 A 
HETATM   31  C   UNL     1      21.476  48.977  49.147  1.00  0.00     0.012 A 
ENDBRANCH  21  26
ENDBRANCH   2  20
TORSDOF 6
ENDMDL
MODEL 9
REMARK VINA RESULT:      -8.3      5.204     10.213
REMARK  6 active torsions:
REMARK  status: ('A' for Active; 'I' for Inactive)
REMARK    1  A    between atoms: C_2  and  N_3 
REMARK    2  A    between atoms: C_2  and  C_16 
REMARK    3  A    between atoms: N_3  and  C_5 
REMARK    4  A    between atoms: C_5  and  C_6 
REMARK       I    between atoms: C_16  and  N_17 
REMARK    5  A    between atoms: N_17  and  C_18 
REMARK    6  A    between atoms: C_19  and  C_20 
ROOT
HETATM    1  C   UNL     1      22.094  48.468  48.620  1.00  0.00     0.253 C 
HETATM    2  N   UNL     1      21.002  48.053  49.345  1.00  0.00    -0.325 N 
HETATM    3  O   UNL     1      22.392  48.098  47.483  1.00  0.00    -0.271 OA
HETATM    4  H   UNL     1      21.048  48.073  50.358  1.00  0.00     0.169 HD
ENDROOT
BRANCH   1   5
HETATM    5  C   UNL     1      23.098  49.377  49.358  1.00  0.00     0.275 C 
HETATM    6  C   UNL     1      23.446  50.670  48.638  1.00  0.00     0.050 C 
BRANCH   5   7
HETATM    7  N   UNL     1      24.362  48.548  49.720  1.00  0.00    -0.059 N 
HETATM    8  H   UNL     1      24.570  48.884  50.678  1.00  0.00     0.280 HD
HETATM    9  C   UNL     1      25.543  48.916  48.874  1.00  0.00     0.271 C 
BRANCH   7  10
HETATM   10  C   UNL     1      24.227  47.047  49.870  1.00  0.00     0.274 C 
BRANCH  10  11
HETATM   11  C   UNL     1      25.061  46.396  50.943  1.00  0.00    -0.030 A 
HETATM   12  C   UNL     1      25.420  45.041  50.857  1.00  0.00     0.048 A 
HETATM   13  C   UNL     1      26.175  44.493  51.875  1.00  0.00     0.105 A 
HETATM   14  C   UNL     1      26.549  45.225  52.973  1.00  0.00     0.105 A 
HETATM   15  O   UNL     1      26.628  43.213  51.923  1.00  0.00    -0.323 OA
HETATM   16  O   UNL     1      27.284  44.498  53.855  1.00  0.00    -0.323 OA
HETATM   17  C   UNL     1      26.186  46.543  53.119  1.00  0.00     0.040 A 
HETATM   18  C   UNL     1      27.338  43.221  53.182  1.00  0.00     0.352 A 
HETATM   19  C   UNL     1      25.433  47.130  52.095  1.00  0.00     0.012 A 
ENDBRANCH  10  11
ENDBRANCH   7  10
ENDBRANCH   5   7
ENDBRANCH   1   5
BRANCH   2  20
HETATM   20  C   UNL     1      19.854  47.407  48.815  1.00  0.00     0.045 A 
HETATM   21  C   UNL     1      18.764  48.197  48.374  1.00  0.00     0.001 A 
HETATM   22  C   UNL     1      17.669  47.557  47.765  1.00  0.00     0.014 A 
HETATM   23  C   UNL     1      17.643  46.172  47.601  1.00  0.00     0.001 A 
HETATM   24  C   UNL     1      18.711  45.403  48.050  1.00  0.00     0.002 A 
HETATM   25  C   UNL     1      19.811  46.015  48.653  1.00  0.00     0.030 A 
BRANCH  21  26
HETATM   26  C   UNL     1      18.702  49.651  48.592  1.00  0.00    -0.024 A 
HETATM   27  C   UNL     1      18.136  50.187  49.758  1.00  0.00     0.012 A 
HETATM   28  C   UNL     1      18.093  51.570  49.957  1.00  0.00     0.001 A 
HETATM   29  C   UNL     1      18.614  52.432  48.993  1.00  0.00     0.000 A 
HETATM   30  C   UNL     1      19.183  51.915  47.831  1.00  0.00     0.001 A 
HETATM   31  C   UNL     1      19.227  50.535  47.633  1.00  0.00     0.012 A 
ENDBRANCH  21  26
ENDBRANCH   2  20
TORSDOF 6
ENDMDL
MODEL 10
REMARK VINA RESULT:      -8.2      2.240      2.838
REMARK  6 active torsions:
REMARK  status: ('A' for Active; 'I' for Inactive)
REMARK    1  A    between atoms: C_2  and  N_3 
REMARK    2  A    between atoms: C_2  and  C_16 
REMARK    3  A    between atoms: N_3  and  C_5 
REMARK    4  A    between atoms: C_5  and  C_6 
REMARK       I    between atoms: C_16  and  N_17 
REMARK    5  A    between atoms: N_17  and  C_18 
REMARK    6  A    between atoms: C_19  and  C_20 
ROOT
HETATM    1  C   UNL     1      27.295  43.264  53.569  1.00  0.00     0.253 C 
HETATM    2  N   UNL     1      28.008  44.383  53.925  1.00  0.00    -0.325 N 
HETATM    3  O   UNL     1      26.105  43.055  53.811  1.00  0.00    -0.271 OA
HETATM    4  H   UNL     1      29.011  44.306  54.057  1.00  0.00     0.169 HD
ENDROOT
BRANCH   1   5
HETATM    5  C   UNL     1      28.100  42.117  52.925  1.00  0.00     0.275 C 
HETATM    6  C   UNL     1      29.609  42.299  52.944  1.00  0.00     0.050 C 
BRANCH   5   7
HETATM    7  N   UNL     1      27.557  41.858  51.492  1.00  0.00    -0.059 N 
HETATM    8  H   UNL     1      26.590  41.541  51.685  1.00  0.00     0.280 HD
HETATM    9  C   UNL     1      28.255  40.715  50.819  1.00  0.00     0.271 C 
BRANCH   7  10
HETATM   10  C   UNL     1      27.386  43.037  50.557  1.00  0.00     0.274 C 
BRANCH  10  11
HETATM   11  C   UNL     1      26.091  43.111  49.791  1.00  0.00    -0.030 A 
HETATM   12  C   UNL     1      25.461  41.947  49.320  1.00  0.00     0.048 A 
HETATM   13  C   UNL     1      24.281  42.076  48.614  1.00  0.00     0.105 A 
HETATM   14  C   UNL     1      23.734  43.303  48.335  1.00  0.00     0.105 A 
HETATM   15  O   UNL     1      23.538  41.051  48.122  1.00  0.00    -0.323 OA
HETATM   16  O   UNL     1      22.578  43.206  47.630  1.00  0.00    -0.323 OA
HETATM   17  C   UNL     1      24.337  44.470  48.742  1.00  0.00     0.040 A 
HETATM   18  C   UNL     1      22.451  41.773  47.501  1.00  0.00     0.352 A 
HETATM   19  C   UNL     1      25.527  44.371  49.473  1.00  0.00     0.012 A 
ENDBRANCH  10  11
ENDBRANCH   7  10
ENDBRANCH   5   7
ENDBRANCH   1   5
BRANCH   2  20
HETATM   20  C   UNL     1      27.452  45.628  54.322  1.00  0.00     0.045 A 
HETATM   21  C   UNL     1      28.032  46.323  55.410  1.00  0.00     0.001 A 
HETATM   22  C   UNL     1      27.537  47.599  55.739  1.00  0.00     0.014 A 
HETATM   23  C   UNL     1      26.490  48.173  55.018  1.00  0.00     0.001 A 
HETATM   24  C   UNL     1      25.917  47.478  53.960  1.00  0.00     0.002 A 
HETATM   25  C   UNL     1      26.394  46.213  53.611  1.00  0.00     0.030 A 
BRANCH  21  26
HETATM   26  C   UNL     1      29.084  45.734  56.255  1.00  0.00    -0.024 A 
HETATM   27  C   UNL     1      29.168  46.031  57.623  1.00  0.00     0.012 A 
HETATM   28  C   UNL     1      30.165  45.456  58.415  1.00  0.00     0.001 A 
HETATM   29  C   UNL     1      31.090  44.579  57.850  1.00  0.00     0.000 A 
HETATM   30  C   UNL     1      31.017  44.271  56.493  1.00  0.00     0.001 A 
HETATM   31  C   UNL     1      30.021  44.844  55.703  1.00  0.00     0.012 A 
ENDBRANCH  21  26
ENDBRANCH   2  20
TORSDOF 6
ENDMDL
