MODEL 1
REMARK VINA RESULT:      -8.8      0.000      0.000
REMARK  8 active torsions:
REMARK  status: ('A' for Active; 'I' for Inactive)
REMARK    1  A    between atoms: O_2  and  C_3 
REMARK    2  A    between atoms: C_5  and  O_6 
REMARK    3  A    between atoms: C_8  and  C_9 
REMARK    4  A    between atoms: N_10  and  C_12 
REMARK    5  A    between atoms: C_12  and  C_13 
REMARK       I    between atoms: C_13  and  N_14 
REMARK    6  A    between atoms: N_14  and  C_15 
REMARK    7  A    between atoms: C_16  and  C_17 
REMARK    8  A    between atoms: C_17  and  C_18 
ROOT
HETATM    1  C   UNL     1      23.568  48.604  49.499  1.00  0.00     0.338 C 
ENDROOT
BRANCH   1   2
HETATM    2  N   UNL     1      24.901  48.402  48.781  1.00  0.00    -0.054 N 
HETATM    3  C   UNL     1      26.058  47.700  49.497  1.00  0.00     0.224 C 
HETATM    4  C   UNL     1      27.033  48.849  49.757  1.00  0.00     0.040 C 
HETATM    5  C   UNL     1      26.948  49.636  48.464  1.00  0.00     0.030 C 
HETATM    6  C   UNL     1      25.460  49.682  48.171  1.00  0.00     0.236 C 
HETATM    7  H   UNL     1      24.672  47.759  48.014  1.00  0.00     0.281 HD
BRANCH   3   8
HETATM    8  C   UNL     1      25.718  46.752  50.622  1.00  0.00     0.006 A 
HETATM    9  C   UNL     1      25.123  45.500  50.341  1.00  0.00     0.079 A 
HETATM   10  C   UNL     1      24.775  44.628  51.382  1.00  0.00     0.074 A 
HETATM   11  C   UNL     1      25.051  44.969  52.706  1.00  0.00     0.070 A 
HETATM   12  C   UNL     1      25.709  46.164  52.981  1.00  0.00     0.037 A 
HETATM   13  C   UNL     1      26.039  47.050  51.955  1.00  0.00     0.015 A 
BRANCH   9  14
HETATM   14  O   UNL     1      24.891  45.247  49.009  1.00  0.00    -0.355 OA
HETATM   15  C   UNL     1      23.576  44.824  48.643  1.00  0.00     0.210 C 
ENDBRANCH   9  14
BRANCH  11  16
HETATM   16  O   UNL     1      24.744  44.226  53.810  1.00  0.00    -0.356 OA
HETATM   17  C   UNL     1      25.810  43.895  54.694  1.00  0.00     0.210 C 
ENDBRANCH  11  16
ENDBRANCH   3   8
ENDBRANCH   1   2
BRANCH   1  18
HETATM   18  C   UNL     1      22.288  48.356  48.697  1.00  0.00     0.248 C 
HETATM   19  N   UNL     1      21.315  47.674  49.392  1.00  0.00    -0.325 N 
HETATM   20  H   UNL     1      21.634  47.224  50.242  1.00  0.00     0.169 HD
HETATM   21  O   UNL     1      22.249  48.753  47.540  1.00  0.00    -0.271 OA
BRANCH  19  22
HETATM   22  C   UNL     1      19.977  47.330  49.059  1.00  0.00     0.041 A 
HETATM   23  C   UNL     1      18.768  47.912  49.490  1.00  0.00    -0.027 A 
HETATM   24  C   UNL     1      17.549  47.353  49.017  1.00  0.00     0.010 A 
HETATM   25  C   UNL     1      17.511  46.255  48.160  1.00  0.00     0.001 A 
HETATM   26  C   UNL     1      18.695  45.683  47.745  1.00  0.00     0.002 A 
HETATM   27  C   UNL     1      19.905  46.215  48.189  1.00  0.00     0.030 A 
BRANCH  23  28
HETATM   28  C   UNL     1      18.587  49.082  50.438  1.00  0.00     0.079 C 
BRANCH  28  29
HETATM   29  C   UNL     1      18.557  50.468  49.823  1.00  0.00    -0.054 A 
HETATM   30  C   UNL     1      19.707  50.950  49.175  1.00  0.00     0.007 A 
HETATM   31  C   UNL     1      19.693  52.167  48.493  1.00  0.00     0.001 A 
HETATM   32  C   UNL     1      18.521  52.915  48.435  1.00  0.00     0.000 A 
HETATM   33  C   UNL     1      17.367  52.448  49.063  1.00  0.00     0.001 A 
HETATM   34  C   UNL     1      17.383  51.230  49.748  1.00  0.00     0.007 A 
ENDBRANCH  28  29
ENDBRANCH  23  28
ENDBRANCH  19  22
ENDBRANCH   1  18
TORSDOF 8
ENDMDL
MODEL 2
REMARK VINA RESULT:      -8.6      0.673      3.299
REMARK  8 active torsions:
REMARK  status: ('A' for Active; 'I' for Inactive)
REMARK    1  A    between atoms: O_2  and  C_3 
REMARK    2  A    between atoms: C_5  and  O_6 
REMARK    3  A    between atoms: C_8  and  C_9 
REMARK    4  A    between atoms: N_10  and  C_12 
REMARK    5  A    between atoms: C_12  and  C_13 
REMARK       I    between atoms: C_13  and  N_14 
REMARK    6  A    between atoms: N_14  and  C_15 
REMARK    7  A    between atoms: C_16  and  C_17 
REMARK    8  A    between atoms: C_17  and  C_18 
ROOT
HETATM    1  C   UNL     1      23.599  48.731  49.698  1.00  0.00     0.338 C 
ENDROOT
BRANCH   1   2
HETATM    2  N   UNL     1      24.869  48.470  48.891  1.00  0.00    -0.054 N 
HETATM    3  C   UNL     1      26.027  47.686  49.516  1.00  0.00     0.224 C 
HETATM    4  C   UNL     1      27.082  48.771  49.734  1.00  0.00     0.040 C 
HETATM    5  C   UNL     1      26.961  49.591  48.464  1.00  0.00     0.030 C 
HETATM    6  C   UNL     1      25.462  49.729  48.270  1.00  0.00     0.236 C 
HETATM    7  H   UNL     1      24.554  47.859  48.128  1.00  0.00     0.281 HD
BRANCH   3   8
HETATM    8  C   UNL     1      25.704  46.733  50.642  1.00  0.00     0.006 A 
HETATM    9  C   UNL     1      25.086  45.491  50.367  1.00  0.00     0.079 A 
HETATM   10  C   UNL     1      24.755  44.615  51.410  1.00  0.00     0.074 A 
HETATM   11  C   UNL     1      25.069  44.942  52.729  1.00  0.00     0.070 A 
HETATM   12  C   UNL     1      25.750  46.127  52.996  1.00  0.00     0.037 A 
HETATM   13  C   UNL     1      26.064  47.017  51.968  1.00  0.00     0.015 A 
BRANCH   9  14
HETATM   14  O   UNL     1      24.816  45.252  49.040  1.00  0.00    -0.355 OA
HETATM   15  C   UNL     1      23.449  45.044  48.678  1.00  0.00     0.210 C 
ENDBRANCH   9  14
BRANCH  11  16
HETATM   16  O   UNL     1      24.782  44.194  53.834  1.00  0.00    -0.356 OA
HETATM   17  C   UNL     1      25.851  43.918  54.734  1.00  0.00     0.210 C 
ENDBRANCH  11  16
ENDBRANCH   3   8
ENDBRANCH   1   2
BRANCH   1  18
HETATM   18  C   UNL     1      22.329  49.091  48.923  1.00  0.00     0.248 C 
HETATM   19  N   UNL     1      21.369  49.722  49.681  1.00  0.00    -0.325 N 
HETATM   20  H   UNL     1      21.513  49.666  50.683  1.00  0.00     0.169 HD
HETATM   21  O   UNL     1      22.270  48.777  47.741  1.00  0.00    -0.271 OA
BRANCH  19  22
HETATM   22  C   UNL     1      20.115  50.294  49.338  1.00  0.00     0.041 A 
HETATM   23  C   UNL     1      18.824  49.734  49.411  1.00  0.00    -0.027 A 
HETATM   24  C   UNL     1      17.725  50.525  48.978  1.00  0.00     0.010 A 
HETATM   25  C   UNL     1      17.880  51.816  48.481  1.00  0.00     0.001 A 
HETATM   26  C   UNL     1      19.146  52.361  48.404  1.00  0.00     0.002 A 
HETATM   27  C   UNL     1      20.241  51.609  48.828  1.00  0.00     0.030 A 
BRANCH  23  28
HETATM   28  C   UNL     1      18.440  48.346  49.887  1.00  0.00     0.079 C 
BRANCH  28  29
HETATM   29  C   UNL     1      18.524  47.222  48.871  1.00  0.00    -0.054 A 
HETATM   30  C   UNL     1      19.726  46.504  48.751  1.00  0.00     0.007 A 
HETATM   31  C   UNL     1      19.817  45.388  47.918  1.00  0.00     0.001 A 
HETATM   32  C   UNL     1      18.701  44.965  47.202  1.00  0.00     0.000 A 
HETATM   33  C   UNL     1      17.498  45.659  47.317  1.00  0.00     0.001 A 
HETATM   34  C   UNL     1      17.408  46.778  48.150  1.00  0.00     0.007 A 
ENDBRANCH  28  29
ENDBRANCH  23  28
ENDBRANCH  19  22
ENDBRANCH   1  18
TORSDOF 8
ENDMDL
MODEL 3
REMARK VINA RESULT:      -8.3      4.184      6.555
REMARK  8 active torsions:
REMARK  status: ('A' for Active; 'I' for Inactive)
REMARK    1  A    between atoms: O_2  and  C_3 
REMARK    2  A    between atoms: C_5  and  O_6 
REMARK    3  A    between atoms: C_8  and  C_9 
REMARK    4  A    between atoms: N_10  and  C_12 
REMARK    5  A    between atoms: C_12  and  C_13 
REMARK       I    between atoms: C_13  and  N_14 
REMARK    6  A    between atoms: N_14  and  C_15 
REMARK    7  A    between atoms: C_16  and  C_17 
REMARK    8  A    between atoms: C_17  and  C_18 
ROOT
HETATM    1  C   UNL     1      28.008  43.997  51.200  1.00  0.00     0.338 C 
ENDROOT
BRANCH   1   2
HETATM    2  N   UNL     1      27.366  42.953  52.112  1.00  0.00    -0.054 N 
HETATM    3  C   UNL     1      27.263  43.211  53.618  1.00  0.00     0.224 C 
HETATM    4  C   UNL     1      28.292  42.235  54.192  1.00  0.00     0.040 C 
HETATM    5  C   UNL     1      28.067  41.001  53.341  1.00  0.00     0.030 C 
HETATM    6  C   UNL     1      27.945  41.555  51.933  1.00  0.00     0.236 C 
HETATM    7  H   UNL     1      26.385  42.932  51.808  1.00  0.00     0.281 HD
BRANCH   3   8
HETATM    8  C   UNL     1      27.264  44.646  54.088  1.00  0.00     0.006 A 
HETATM    9  C   UNL     1      28.419  45.195  54.692  1.00  0.00     0.079 A 
HETATM   10  C   UNL     1      28.417  46.517  55.159  1.00  0.00     0.074 A 
HETATM   11  C   UNL     1      27.288  47.319  54.994  1.00  0.00     0.070 A 
HETATM   12  C   UNL     1      26.178  46.808  54.327  1.00  0.00     0.037 A 
HETATM   13  C   UNL     1      26.161  45.487  53.879  1.00  0.00     0.015 A 
BRANCH   9  14
HETATM   14  O   UNL     1      29.485  44.334  54.811  1.00  0.00    -0.355 OA
HETATM   15  C   UNL     1      30.468  44.642  55.801  1.00  0.00     0.210 C 
ENDBRANCH   9  14
BRANCH  11  16
HETATM   16  O   UNL     1      27.146  48.608  55.422  1.00  0.00    -0.356 OA
HETATM   17  C   UNL     1      26.049  48.895  56.282  1.00  0.00     0.210 C 
ENDBRANCH  11  16
ENDBRANCH   3   8
ENDBRANCH   1   2
BRANCH   1  18
HETATM   18  C   UNL     1      27.122  44.647  50.134  1.00  0.00     0.248 C 
HETATM   19  N   UNL     1      25.807  44.243  50.178  1.00  0.00    -0.325 N 
HETATM   20  H   UNL     1      25.632  43.417  50.738  1.00  0.00     0.169 HD
HETATM   21  O   UNL     1      27.645  45.425  49.348  1.00  0.00    -0.271 OA
BRANCH  19  22
HETATM   22  C   UNL     1      24.662  44.661  49.448  1.00  0.00     0.041 A 
HETATM   23  C   UNL     1      23.985  45.898  49.472  1.00  0.00    -0.027 A 
HETATM   24  C   UNL     1      22.836  46.048  48.648  1.00  0.00     0.010 A 
HETATM   25  C   UNL     1      22.356  45.024  47.836  1.00  0.00     0.001 A 
HETATM   26  C   UNL     1      23.016  43.812  47.819  1.00  0.00     0.002 A 
HETATM   27  C   UNL     1      24.150  43.639  48.612  1.00  0.00     0.030 A 
BRANCH  23  28
HETATM   28  C   UNL     1      24.318  47.123  50.301  1.00  0.00     0.079 C 
BRANCH  28  29
HETATM   29  C   UNL     1      25.095  48.229  49.613  1.00  0.00    -0.054 A 
HETATM   30  C   UNL     1      26.494  48.254  49.733  1.00  0.00     0.007 A 
HETATM   31  C   UNL     1      27.261  49.179  49.024  1.00  0.00     0.001 A 
HETATM   32  C   UNL     1      26.640  50.086  48.172  1.00  0.00     0.000 A 
HETATM   33  C   UNL     1      25.253  50.070  48.033  1.00  0.00     0.001 A 
HETATM   34  C   UNL     1      24.485  49.145  48.745  1.00  0.00     0.007 A 
ENDBRANCH  28  29
ENDBRANCH  23  28
ENDBRANCH  19  22
ENDBRANCH   1  18
TORSDOF 8
ENDMDL
MODEL 4
REMARK VINA RESULT:      -8.1      3.686      6.796
REMARK  8 active torsions:
REMARK  status: ('A' for Active; 'I' for Inactive)
REMARK    1  A    between atoms: O_2  and  C_3 
REMARK    2  A    between atoms: C_5  and  O_6 
REMARK    3  A    between atoms: C_8  and  C_9 
REMARK    4  A    between atoms: N_10  and  C_12 
REMARK    5  A    between atoms: C_12  and  C_13 
REMARK       I    between atoms: C_13  and  N_14 
REMARK    6  A    between atoms: N_14  and  C_15 
REMARK    7  A    between atoms: C_16  and  C_17 
REMARK    8  A    between atoms: C_17  and  C_18 
ROOT
HETATM    1  C   UNL     1      27.749  44.355  50.972  1.00  0.00     0.338 C 
ENDROOT
BRANCH   1   2
HETATM    2  N   UNL     1      27.034  43.124  51.526  1.00  0.00    -0.054 N 
HETATM    3  C   UNL     1      27.468  42.525  52.867  1.00  0.00     0.224 C 
HETATM    4  C   UNL     1      28.149  41.223  52.444  1.00  0.00     0.040 C 
HETATM    5  C   UNL     1      27.230  40.728  51.344  1.00  0.00     0.030 C 
HETATM    6  C   UNL     1      26.944  41.975  50.529  1.00  0.00     0.236 C 
HETATM    7  H   UNL     1      26.081  43.457  51.713  1.00  0.00     0.281 HD
BRANCH   3   8
HETATM    8  C   UNL     1      28.162  43.435  53.852  1.00  0.00     0.006 A 
HETATM    9  C   UNL     1      27.490  44.565  54.372  1.00  0.00     0.079 A 
HETATM   10  C   UNL     1      28.139  45.432  55.262  1.00  0.00     0.074 A 
HETATM   11  C   UNL     1      29.443  45.166  55.678  1.00  0.00     0.070 A 
HETATM   12  C   UNL     1      30.080  44.011  55.231  1.00  0.00     0.037 A 
HETATM   13  C   UNL     1      29.452  43.153  54.327  1.00  0.00     0.015 A 
BRANCH   9  14
HETATM   14  O   UNL     1      26.207  44.748  53.909  1.00  0.00    -0.355 OA
HETATM   15  C   UNL     1      25.139  44.309  54.752  1.00  0.00     0.210 C 
ENDBRANCH   9  14
BRANCH  11  16
HETATM   16  O   UNL     1      30.194  45.937  56.517  1.00  0.00    -0.356 OA
HETATM   17  C   UNL     1      30.021  45.741  57.917  1.00  0.00     0.210 C 
ENDBRANCH  11  16
ENDBRANCH   3   8
ENDBRANCH   1   2
BRANCH   1  18
HETATM   18  C   UNL     1      26.982  45.231  49.977  1.00  0.00     0.248 C 
HETATM   19  N   UNL     1      26.846  46.541  50.375  1.00  0.00    -0.325 N 
HETATM   20  H   UNL     1      27.055  46.715  51.351  1.00  0.00     0.169 HD
HETATM   21  O   UNL     1      26.553  44.703  48.960  1.00  0.00    -0.271 OA
BRANCH  19  22
HETATM   22  C   UNL     1      26.300  47.678  49.722  1.00  0.00     0.041 A 
HETATM   23  C   UNL     1      24.952  48.014  49.481  1.00  0.00    -0.027 A 
HETATM   24  C   UNL     1      24.677  49.217  48.775  1.00  0.00     0.010 A 
HETATM   25  C   UNL     1      25.682  50.060  48.309  1.00  0.00     0.001 A 
HETATM   26  C   UNL     1      27.001  49.726  48.539  1.00  0.00     0.002 A 
HETATM   27  C   UNL     1      27.300  48.555  49.235  1.00  0.00     0.030 A 
BRANCH  23  28
HETATM   28  C   UNL     1      23.716  47.226  49.872  1.00  0.00     0.079 C 
BRANCH  28  29
HETATM   29  C   UNL     1      23.009  46.464  48.767  1.00  0.00    -0.054 A 
HETATM   30  C   UNL     1      22.087  47.145  47.954  1.00  0.00     0.007 A 
HETATM   31  C   UNL     1      21.500  46.520  46.853  1.00  0.00     0.001 A 
HETATM   32  C   UNL     1      21.838  45.207  46.540  1.00  0.00     0.000 A 
HETATM   33  C   UNL     1      22.758  44.520  47.329  1.00  0.00     0.001 A 
HETATM   34  C   UNL     1      23.344  45.145  48.433  1.00  0.00     0.007 A 
ENDBRANCH  28  29
ENDBRANCH  23  28
ENDBRANCH  19  22
ENDBRANCH   1  18
TORSDOF 8
ENDMDL
MODEL 5
REMARK VINA RESULT:      -8.0      2.155      8.093
REMARK  8 active torsions:
REMARK  status: ('A' for Active; 'I' for Inactive)
REMARK    1  A    between atoms: O_2  and  C_3 
REMARK    2  A    between atoms: C_5  and  O_6 
REMARK    3  A    between atoms: C_8  and  C_9 
REMARK    4  A    between atoms: N_10  and  C_12 
REMARK    5  A    between atoms: C_12  and  C_13 
REMARK       I    between atoms: C_13  and  N_14 
REMARK    6  A    between atoms: N_14  and  C_15 
REMARK    7  A    between atoms: C_16  and  C_17 
REMARK    8  A    between atoms: C_17  and  C_18 
ROOT
HETATM    1  C   UNL     1      20.984  48.802  48.309  1.00  0.00     0.338 C 
ENDROOT
BRANCH   1   2
HETATM    2  N   UNL     1      20.192  48.235  49.486  1.00  0.00    -0.054 N 
HETATM    3  C   UNL     1      19.075  47.218  49.237  1.00  0.00     0.224 C 
HETATM    4  C   UNL     1      17.815  48.032  49.531  1.00  0.00     0.040 C 
HETATM    5  C   UNL     1      18.229  48.829  50.752  1.00  0.00     0.030 C 
HETATM    6  C   UNL     1      19.628  49.307  50.409  1.00  0.00     0.236 C 
HETATM    7  H   UNL     1      20.890  47.697  50.014  1.00  0.00     0.281 HD
BRANCH   3   8
HETATM    8  C   UNL     1      19.143  46.391  47.975  1.00  0.00     0.006 A 
HETATM    9  C   UNL     1      19.903  45.199  47.946  1.00  0.00     0.079 A 
HETATM   10  C   UNL     1      19.997  44.444  46.769  1.00  0.00     0.074 A 
HETATM   11  C   UNL     1      19.307  44.839  45.624  1.00  0.00     0.070 A 
HETATM   12  C   UNL     1      18.493  45.968  45.671  1.00  0.00     0.037 A 
HETATM   13  C   UNL     1      18.410  46.740  46.831  1.00  0.00     0.015 A 
BRANCH   9  14
HETATM   14  O   UNL     1      20.547  44.886  49.121  1.00  0.00    -0.355 OA
HETATM   15  C   UNL     1      21.897  44.427  49.024  1.00  0.00     0.210 C 
ENDBRANCH   9  14
BRANCH  11  16
HETATM   16  O   UNL     1      19.331  44.211  44.412  1.00  0.00    -0.356 OA
HETATM   17  C   UNL     1      20.585  43.712  43.958  1.00  0.00     0.210 C 
ENDBRANCH  11  16
ENDBRANCH   3   8
ENDBRANCH   1   2
BRANCH   1  18
HETATM   18  C   UNL     1      22.427  48.320  48.128  1.00  0.00     0.248 C 
HETATM   19  N   UNL     1      23.351  49.035  48.855  1.00  0.00    -0.325 N 
HETATM   20  H   UNL     1      23.012  49.915  49.229  1.00  0.00     0.169 HD
HETATM   21  O   UNL     1      22.628  47.387  47.363  1.00  0.00    -0.271 OA
BRANCH  19  22
HETATM   22  C   UNL     1      24.748  48.863  49.043  1.00  0.00     0.041 A 
HETATM   23  C   UNL     1      25.439  47.895  49.800  1.00  0.00    -0.027 A 
HETATM   24  C   UNL     1      26.859  47.962  49.838  1.00  0.00     0.010 A 
HETATM   25  C   UNL     1      27.581  48.947  49.170  1.00  0.00     0.001 A 
HETATM   26  C   UNL     1      26.903  49.898  48.435  1.00  0.00     0.002 A 
HETATM   27  C   UNL     1      25.510  49.852  48.375  1.00  0.00     0.030 A 
BRANCH  23  28
HETATM   28  C   UNL     1      24.849  46.765  50.622  1.00  0.00     0.079 C 
BRANCH  28  29
HETATM   29  C   UNL     1      25.580  46.386  51.896  1.00  0.00    -0.054 A 
HETATM   30  C   UNL     1      26.351  45.211  51.913  1.00  0.00     0.007 A 
HETATM   31  C   UNL     1      27.136  44.881  53.018  1.00  0.00     0.001 A 
HETATM   32  C   UNL     1      27.173  45.730  54.120  1.00  0.00     0.000 A 
HETATM   33  C   UNL     1      26.422  46.905  54.117  1.00  0.00     0.001 A 
HETATM   34  C   UNL     1      25.635  47.234  53.010  1.00  0.00     0.007 A 
ENDBRANCH  28  29
ENDBRANCH  23  28
ENDBRANCH  19  22
ENDBRANCH   1  18
TORSDOF 8
ENDMDL
MODEL 6
REMARK VINA RESULT:      -7.9      2.419      8.672
REMARK  8 active torsions:
REMARK  status: ('A' for Active; 'I' for Inactive)
REMARK    1  A    between atoms: O_2  and  C_3 
REMARK    2  A    between atoms: C_5  and  O_6 
REMARK    3  A    between atoms: C_8  and  C_9 
REMARK    4  A    between atoms: N_10  and  C_12 
REMARK    5  A    between atoms: C_12  and  C_13 
REMARK       I    between atoms: C_13  and  N_14 
REMARK    6  A    between atoms: N_14  and  C_15 
REMARK    7  A    between atoms: C_16  and  C_17 
REMARK    8  A    between atoms: C_17  and  C_18 
ROOT
HETATM    1  C   UNL     1      20.325  48.115  49.068  1.00  0.00     0.338 C 
ENDROOT
BRANCH   1   2
HETATM    2  N   UNL     1      19.528  49.418  49.116  1.00  0.00    -0.054 N 
HETATM    3  C   UNL     1      18.773  49.900  47.874  1.00  0.00     0.224 C 
HETATM    4  C   UNL     1      19.605  51.101  47.426  1.00  0.00     0.040 C 
HETATM    5  C   UNL     1      19.943  51.764  48.747  1.00  0.00     0.030 C 
HETATM    6  C   UNL     1      20.333  50.601  49.640  1.00  0.00     0.236 C 
HETATM    7  H   UNL     1      18.777  49.222  49.789  1.00  0.00     0.281 HD
BRANCH   3   8
HETATM    8  C   UNL     1      18.362  48.864  46.855  1.00  0.00     0.006 A 
HETATM    9  C   UNL     1      17.252  48.024  47.103  1.00  0.00     0.079 A 
HETATM   10  C   UNL     1      16.883  47.039  46.175  1.00  0.00     0.074 A 
HETATM   11  C   UNL     1      17.584  46.906  44.977  1.00  0.00     0.070 A 
HETATM   12  C   UNL     1      18.626  47.784  44.693  1.00  0.00     0.037 A 
HETATM   13  C   UNL     1      19.016  48.753  45.619  1.00  0.00     0.015 A 
BRANCH   9  14
HETATM   14  O   UNL     1      16.619  48.229  48.308  1.00  0.00    -0.355 OA
HETATM   15  C   UNL     1      16.569  47.125  49.215  1.00  0.00     0.210 C 
ENDBRANCH   9  14
BRANCH  11  16
HETATM   16  O   UNL     1      17.346  45.978  44.004  1.00  0.00    -0.356 OA
HETATM   17  C   UNL     1      16.684  44.778  44.391  1.00  0.00     0.210 C 
ENDBRANCH  11  16
ENDBRANCH   3   8
ENDBRANCH   1   2
BRANCH   1  18
HETATM   18  C   UNL     1      21.753  48.179  48.519  1.00  0.00     0.248 C 
HETATM   19  N   UNL     1      22.713  48.393  49.482  1.00  0.00    -0.325 N 
HETATM   20  H   UNL     1      22.357  48.708  50.377  1.00  0.00     0.169 HD
HETATM   21  O   UNL     1      21.910  48.060  47.312  1.00  0.00    -0.271 OA
BRANCH  19  22
HETATM   22  C   UNL     1      24.132  48.425  49.415  1.00  0.00     0.041 A 
HETATM   23  C   UNL     1      25.078  47.591  50.045  1.00  0.00    -0.027 A 
HETATM   24  C   UNL     1      26.457  47.858  49.825  1.00  0.00     0.010 A 
HETATM   25  C   UNL     1      26.900  48.909  49.026  1.00  0.00     0.001 A 
HETATM   26  C   UNL     1      25.972  49.729  48.416  1.00  0.00     0.002 A 
HETATM   27  C   UNL     1      24.613  49.486  48.610  1.00  0.00     0.030 A 
BRANCH  23  28
HETATM   28  C   UNL     1      24.813  46.421  50.972  1.00  0.00     0.079 C 
BRANCH  28  29
HETATM   29  C   UNL     1      25.745  46.257  52.157  1.00  0.00    -0.054 A 
HETATM   30  C   UNL     1      25.685  47.193  53.203  1.00  0.00     0.007 A 
HETATM   31  C   UNL     1      26.436  47.020  54.367  1.00  0.00     0.001 A 
HETATM   32  C   UNL     1      27.248  45.899  54.508  1.00  0.00     0.000 A 
HETATM   33  C   UNL     1      27.312  44.955  53.485  1.00  0.00     0.001 A 
HETATM   34  C   UNL     1      26.561  45.129  52.319  1.00  0.00     0.007 A 
ENDBRANCH  28  29
ENDBRANCH  23  28
ENDBRANCH  19  22
ENDBRANCH   1  18
TORSDOF 8
ENDMDL
MODEL 7
REMARK VINA RESULT:      -7.6      2.640      5.193
REMARK  8 active torsions:
REMARK  status: ('A' for Active; 'I' for Inactive)
REMARK    1  A    between atoms: O_2  and  C_3 
REMARK    2  A    between atoms: C_5  and  O_6 
REMARK    3  A    between atoms: C_8  and  C_9 
REMARK    4  A    between atoms: N_10  and  C_12 
REMARK    5  A    between atoms: C_12  and  C_13 
REMARK       I    between atoms: C_13  and  N_14 
REMARK    6  A    between atoms: N_14  and  C_15 
REMARK    7  A    between atoms: C_16  and  C_17 
REMARK    8  A    between atoms: C_17  and  C_18 
ROOT
HETATM    1  C   UNL     1      25.254  42.502  49.310  1.00  0.00     0.338 C 
ENDROOT
BRANCH   1   2
HETATM    2  N   UNL     1      25.651  42.223  50.758  1.00  0.00    -0.054 N 
HETATM    3  C   UNL     1      26.474  43.253  51.538  1.00  0.00     0.224 C 
HETATM    4  C   UNL     1      27.841  42.575  51.641  1.00  0.00     0.040 C 
HETATM    5  C   UNL     1      27.461  41.135  51.922  1.00  0.00     0.030 C 
HETATM    6  C   UNL     1      26.323  40.870  50.952  1.00  0.00     0.236 C 
HETATM    7  H   UNL     1      24.755  42.207  51.260  1.00  0.00     0.281 HD
BRANCH   3   8
HETATM    8  C   UNL     1      26.397  44.695  51.097  1.00  0.00     0.006 A 
HETATM    9  C   UNL     1      25.698  45.642  51.882  1.00  0.00     0.079 A 
HETATM   10  C   UNL     1      25.595  46.976  51.464  1.00  0.00     0.074 A 
HETATM   11  C   UNL     1      26.217  47.393  50.288  1.00  0.00     0.070 A 
HETATM   12  C   UNL     1      26.973  46.483  49.554  1.00  0.00     0.037 A 
HETATM   13  C   UNL     1      27.064  45.148  49.949  1.00  0.00     0.015 A 
BRANCH   9  14
HETATM   14  O   UNL     1      25.120  45.142  53.026  1.00  0.00    -0.355 OA
HETATM   15  C   UNL     1      25.678  45.554  54.275  1.00  0.00     0.210 C 
ENDBRANCH   9  14
BRANCH  11  16
HETATM   16  O   UNL     1      26.175  48.650  49.757  1.00  0.00    -0.356 OA
HETATM   17  C   UNL     1      27.330  49.106  49.061  1.00  0.00     0.210 C 
ENDBRANCH  11  16
ENDBRANCH   3   8
ENDBRANCH   1   2
BRANCH   1  18
HETATM   18  C   UNL     1      23.921  43.216  49.067  1.00  0.00     0.248 C 
HETATM   19  N   UNL     1      23.914  44.026  47.955  1.00  0.00    -0.325 N 
HETATM   20  H   UNL     1      24.830  44.234  47.573  1.00  0.00     0.169 HD
HETATM   21  O   UNL     1      23.014  43.027  49.867  1.00  0.00    -0.271 OA
BRANCH  19  22
HETATM   22  C   UNL     1      22.880  44.775  47.333  1.00  0.00     0.041 A 
HETATM   23  C   UNL     1      22.386  46.057  47.649  1.00  0.00    -0.027 A 
HETATM   24  C   UNL     1      21.313  46.572  46.870  1.00  0.00     0.010 A 
HETATM   25  C   UNL     1      20.734  45.857  45.825  1.00  0.00     0.001 A 
HETATM   26  C   UNL     1      21.215  44.600  45.522  1.00  0.00     0.002 A 
HETATM   27  C   UNL     1      22.270  44.072  46.265  1.00  0.00     0.030 A 
BRANCH  23  28
HETATM   28  C   UNL     1      22.848  46.982  48.758  1.00  0.00     0.079 C 
BRANCH  28  29
HETATM   29  C   UNL     1      22.488  48.450  48.625  1.00  0.00    -0.054 A 
HETATM   30  C   UNL     1      21.282  48.907  49.183  1.00  0.00     0.007 A 
HETATM   31  C   UNL     1      20.963  50.265  49.191  1.00  0.00     0.001 A 
HETATM   32  C   UNL     1      21.852  51.190  48.653  1.00  0.00     0.000 A 
HETATM   33  C   UNL     1      23.058  50.755  48.104  1.00  0.00     0.001 A 
HETATM   34  C   UNL     1      23.376  49.395  48.094  1.00  0.00     0.007 A 
ENDBRANCH  28  29
ENDBRANCH  23  28
ENDBRANCH  19  22
ENDBRANCH   1  18
TORSDOF 8
ENDMDL
MODEL 8
REMARK VINA RESULT:      -7.6      3.762      7.224
REMARK  8 active torsions:
REMARK  status: ('A' for Active; 'I' for Inactive)
REMARK    1  A    between atoms: O_2  and  C_3 
REMARK    2  A    between atoms: C_5  and  O_6 
REMARK    3  A    between atoms: C_8  and  C_9 
REMARK    4  A    between atoms: N_10  and  C_12 
REMARK    5  A    between atoms: C_12  and  C_13 
REMARK       I    between atoms: C_13  and  N_14 
REMARK    6  A    between atoms: N_14  and  C_15 
REMARK    7  A    between atoms: C_16  and  C_17 
REMARK    8  A    between atoms: C_17  and  C_18 
ROOT
HETATM    1  C   UNL     1      27.648  44.384  51.224  1.00  0.00     0.338 C 
ENDROOT
BRANCH   1   2
HETATM    2  N   UNL     1      27.023  43.109  51.787  1.00  0.00    -0.054 N 
HETATM    3  C   UNL     1      27.576  42.488  53.073  1.00  0.00     0.224 C 
HETATM    4  C   UNL     1      28.274  41.228  52.559  1.00  0.00     0.040 C 
HETATM    5  C   UNL     1      27.297  40.729  51.512  1.00  0.00     0.030 C 
HETATM    6  C   UNL     1      26.904  41.988  50.761  1.00  0.00     0.236 C 
HETATM    7  H   UNL     1      26.073  43.397  52.053  1.00  0.00     0.281 HD
BRANCH   3   8
HETATM    8  C   UNL     1      28.305  43.395  54.035  1.00  0.00     0.006 A 
HETATM    9  C   UNL     1      27.622  44.463  54.661  1.00  0.00     0.079 A 
HETATM   10  C   UNL     1      28.299  45.329  55.531  1.00  0.00     0.074 A 
HETATM   11  C   UNL     1      29.647  45.120  55.822  1.00  0.00     0.070 A 
HETATM   12  C   UNL     1      30.303  44.022  55.271  1.00  0.00     0.037 A 
HETATM   13  C   UNL     1      29.644  43.168  54.386  1.00  0.00     0.015 A 
BRANCH   9  14
HETATM   14  O   UNL     1      26.296  44.592  54.318  1.00  0.00    -0.355 OA
HETATM   15  C   UNL     1      25.797  45.916  54.118  1.00  0.00     0.210 C 
ENDBRANCH   9  14
BRANCH  11  16
HETATM   16  O   UNL     1      30.427  45.898  56.628  1.00  0.00    -0.356 OA
HETATM   17  C   UNL     1      30.537  45.519  57.996  1.00  0.00     0.210 C 
ENDBRANCH  11  16
ENDBRANCH   3   8
ENDBRANCH   1   2
BRANCH   1  18
HETATM   18  C   UNL     1      26.831  45.181  50.203  1.00  0.00     0.248 C 
HETATM   19  N   UNL     1      25.488  45.251  50.493  1.00  0.00    -0.325 N 
HETATM   20  H   UNL     1      25.168  44.593  51.195  1.00  0.00     0.169 HD
HETATM   21  O   UNL     1      27.419  45.653  49.240  1.00  0.00    -0.271 OA
BRANCH  19  22
HETATM   22  C   UNL     1      24.419  45.953  49.874  1.00  0.00     0.041 A 
HETATM   23  C   UNL     1      23.243  45.453  49.278  1.00  0.00    -0.027 A 
HETATM   24  C   UNL     1      22.336  46.385  48.702  1.00  0.00     0.010 A 
HETATM   25  C   UNL     1      22.572  47.757  48.698  1.00  0.00     0.001 A 
HETATM   26  C   UNL     1      23.726  48.244  49.277  1.00  0.00     0.002 A 
HETATM   27  C   UNL     1      24.630  47.353  49.854  1.00  0.00     0.030 A 
BRANCH  23  28
HETATM   28  C   UNL     1      22.813  44.005  49.146  1.00  0.00     0.079 C 
BRANCH  28  29
HETATM   29  C   UNL     1      23.139  43.306  47.841  1.00  0.00    -0.054 A 
HETATM   30  C   UNL     1      23.261  41.906  47.831  1.00  0.00     0.007 A 
HETATM   31  C   UNL     1      23.442  41.208  46.637  1.00  0.00     0.001 A 
HETATM   32  C   UNL     1      23.491  41.899  45.430  1.00  0.00     0.000 A 
HETATM   33  C   UNL     1      23.362  43.287  45.419  1.00  0.00     0.001 A 
HETATM   34  C   UNL     1      23.183  43.986  46.616  1.00  0.00     0.007 A 
ENDBRANCH  28  29
ENDBRANCH  23  28
ENDBRANCH  19  22
ENDBRANCH   1  18
TORSDOF 8
ENDMDL
MODEL 9
REMARK VINA RESULT:      -7.6     21.294     23.781
REMARK  8 active torsions:
REMARK  status: ('A' for Active; 'I' for Inactive)
REMARK    1  A    between atoms: O_2  and  C_3 
REMARK    2  A    between atoms: C_5  and  O_6 
REMARK    3  A    between atoms: C_8  and  C_9 
REMARK    4  A    between atoms: N_10  and  C_12 
REMARK    5  A    between atoms: C_12  and  C_13 
REMARK       I    between atoms: C_13  and  N_14 
REMARK    6  A    between atoms: N_14  and  C_15 
REMARK    7  A    between atoms: C_16  and  C_17 
REMARK    8  A    between atoms: C_17  and  C_18 
ROOT
HETATM    1  C   UNL     1      37.493  44.673  67.765  1.00  0.00     0.338 C 
ENDROOT
BRANCH   1   2
HETATM    2  N   UNL     1      36.271  45.334  67.130  1.00  0.00    -0.054 N 
HETATM    3  C   UNL     1      36.127  45.371  65.606  1.00  0.00     0.224 C 
HETATM    4  C   UNL     1      36.369  46.846  65.286  1.00  0.00     0.040 C 
HETATM    5  C   UNL     1      35.623  47.541  66.409  1.00  0.00     0.030 C 
HETATM    6  C   UNL     1      36.011  46.745  67.641  1.00  0.00     0.236 C 
HETATM    7  H   UNL     1      35.488  44.739  67.428  1.00  0.00     0.281 HD
BRANCH   3   8
HETATM    8  C   UNL     1      36.848  44.313  64.804  1.00  0.00     0.006 A 
HETATM    9  C   UNL     1      36.559  42.945  65.011  1.00  0.00     0.079 A 
HETATM   10  C   UNL     1      37.247  41.956  64.293  1.00  0.00     0.074 A 
HETATM   11  C   UNL     1      38.195  42.314  63.337  1.00  0.00     0.070 A 
HETATM   12  C   UNL     1      38.425  43.662  63.073  1.00  0.00     0.037 A 
HETATM   13  C   UNL     1      37.763  44.654  63.797  1.00  0.00     0.015 A 
BRANCH   9  14
HETATM   14  O   UNL     1      35.608  42.685  65.971  1.00  0.00    -0.355 OA
HETATM   15  C   UNL     1      34.478  41.903  65.577  1.00  0.00     0.210 C 
ENDBRANCH   9  14
BRANCH  11  16
HETATM   16  O   UNL     1      38.950  41.456  62.590  1.00  0.00    -0.356 OA
HETATM   17  C   UNL     1      39.378  40.249  63.211  1.00  0.00     0.210 C 
ENDBRANCH  11  16
ENDBRANCH   3   8
ENDBRANCH   1   2
BRANCH   1  18
HETATM   18  C   UNL     1      38.796  45.478  67.797  1.00  0.00     0.248 C 
HETATM   19  N   UNL     1      39.667  45.173  66.776  1.00  0.00    -0.325 N 
HETATM   20  H   UNL     1      39.457  44.317  66.277  1.00  0.00     0.169 HD
HETATM   21  O   UNL     1      38.953  46.279  68.709  1.00  0.00    -0.271 OA
BRANCH  19  22
HETATM   22  C   UNL     1      40.913  45.739  66.393  1.00  0.00     0.041 A 
HETATM   23  C   UNL     1      41.177  46.857  65.577  1.00  0.00    -0.027 A 
HETATM   24  C   UNL     1      42.534  47.200  65.329  1.00  0.00     0.010 A 
HETATM   25  C   UNL     1      43.599  46.471  65.851  1.00  0.00     0.001 A 
HETATM   26  C   UNL     1      43.339  45.373  66.645  1.00  0.00     0.002 A 
HETATM   27  C   UNL     1      42.017  45.017  66.909  1.00  0.00     0.030 A 
BRANCH  23  28
HETATM   28  C   UNL     1      40.173  47.762  64.888  1.00  0.00     0.079 C 
BRANCH  28  29
HETATM   29  C   UNL     1      39.594  48.898  65.709  1.00  0.00    -0.054 A 
HETATM   30  C   UNL     1      38.573  49.687  65.152  1.00  0.00     0.007 A 
HETATM   31  C   UNL     1      37.927  50.666  65.908  1.00  0.00     0.001 A 
HETATM   32  C   UNL     1      38.283  50.861  67.239  1.00  0.00     0.000 A 
HETATM   33  C   UNL     1      39.287  50.081  67.811  1.00  0.00     0.001 A 
HETATM   34  C   UNL     1      39.935  49.102  67.053  1.00  0.00     0.007 A 
ENDBRANCH  28  29
ENDBRANCH  23  28
ENDBRANCH  19  22
ENDBRANCH   1  18
TORSDOF 8
ENDMDL
MODEL 10
REMARK VINA RESULT:      -7.6      5.388      9.548
REMARK  8 active torsions:
REMARK  status: ('A' for Active; 'I' for Inactive)
REMARK    1  A    between atoms: O_2  and  C_3 
REMARK    2  A    between atoms: C_5  and  O_6 
REMARK    3  A    between atoms: C_8  and  C_9 
REMARK    4  A    between atoms: N_10  and  C_12 
REMARK    5  A    between atoms: C_12  and  C_13 
REMARK       I    between atoms: C_13  and  N_14 
REMARK    6  A    between atoms: N_14  and  C_15 
REMARK    7  A    between atoms: C_16  and  C_17 
REMARK    8  A    between atoms: C_17  and  C_18 
ROOT
HETATM    1  C   UNL     1      26.801  41.967  48.880  1.00  0.00     0.338 C 
ENDROOT
BRANCH   1   2
HETATM    2  N   UNL     1      25.485  41.219  49.085  1.00  0.00    -0.054 N 
HETATM    3  C   UNL     1      25.027  40.181  48.056  1.00  0.00     0.224 C 
HETATM    4  C   UNL     1      23.851  40.885  47.378  1.00  0.00     0.040 C 
HETATM    5  C   UNL     1      23.157  41.547  48.551  1.00  0.00     0.030 C 
HETATM    6  C   UNL     1      24.301  42.138  49.355  1.00  0.00     0.236 C 
HETATM    7  H   UNL     1      25.651  40.658  49.929  1.00  0.00     0.281 HD
BRANCH   3   8
HETATM    8  C   UNL     1      26.084  39.520  47.204  1.00  0.00     0.006 A 
HETATM    9  C   UNL     1      26.929  38.531  47.759  1.00  0.00     0.079 A 
HETATM   10  C   UNL     1      27.933  37.936  46.983  1.00  0.00     0.074 A 
HETATM   11  C   UNL     1      28.082  38.284  45.641  1.00  0.00     0.070 A 
HETATM   12  C   UNL     1      27.201  39.197  45.069  1.00  0.00     0.037 A 
HETATM   13  C   UNL     1      26.212  39.813  45.838  1.00  0.00     0.015 A 
BRANCH   9  14
HETATM   14  O   UNL     1      26.708  38.250  49.088  1.00  0.00    -0.355 OA
HETATM   15  C   UNL     1      27.054  36.942  49.545  1.00  0.00     0.210 C 
ENDBRANCH   9  14
BRANCH  11  16
HETATM   16  O   UNL     1      29.029  37.801  44.785  1.00  0.00    -0.356 OA
HETATM   17  C   UNL     1      29.744  36.637  45.187  1.00  0.00     0.210 C 
ENDBRANCH  11  16
ENDBRANCH   3   8
ENDBRANCH   1   2
BRANCH   1  18
HETATM   18  C   UNL     1      27.237  42.945  49.975  1.00  0.00     0.248 C 
HETATM   19  N   UNL     1      27.493  42.348  51.188  1.00  0.00    -0.325 N 
HETATM   20  H   UNL     1      27.149  41.399  51.278  1.00  0.00     0.169 HD
HETATM   21  O   UNL     1      27.297  44.134  49.692  1.00  0.00    -0.271 OA
BRANCH  19  22
HETATM   22  C   UNL     1      27.999  42.865  52.411  1.00  0.00     0.041 A 
HETATM   23  C   UNL     1      27.344  43.620  53.405  1.00  0.00    -0.027 A 
HETATM   24  C   UNL     1      28.099  44.036  54.536  1.00  0.00     0.010 A 
HETATM   25  C   UNL     1      29.449  43.734  54.689  1.00  0.00     0.001 A 
HETATM   26  C   UNL     1      30.090  42.999  53.712  1.00  0.00     0.002 A 
HETATM   27  C   UNL     1      29.373  42.574  52.595  1.00  0.00     0.030 A 
BRANCH  23  28
HETATM   28  C   UNL     1      25.900  44.082  53.419  1.00  0.00     0.079 C 
BRANCH  28  29
HETATM   29  C   UNL     1      25.512  45.161  52.426  1.00  0.00    -0.054 A 
HETATM   30  C   UNL     1      26.273  46.341  52.374  1.00  0.00     0.007 A 
HETATM   31  C   UNL     1      26.030  47.311  51.400  1.00  0.00     0.001 A 
HETATM   32  C   UNL     1      25.032  47.108  50.453  1.00  0.00     0.000 A 
HETATM   33  C   UNL     1      24.274  45.938  50.483  1.00  0.00     0.001 A 
HETATM   34  C   UNL     1      24.516  44.968  51.460  1.00  0.00     0.007 A 
ENDBRANCH  28  29
ENDBRANCH  23  28
ENDBRANCH  19  22
ENDBRANCH   1  18
TORSDOF 8
ENDMDL
