MODEL 1
REMARK VINA RESULT:      -6.7      0.000      0.000
REMARK  11 active torsions:
REMARK  status: ('A' for Active; 'I' for Inactive)
REMARK    1  A    between atoms: C_1  and  C_17 
REMARK    2  A    between atoms: C_1  and  S_18 
REMARK    3  A    between atoms: C_2  and  N_23 
REMARK    4  A    between atoms: C_3  and  C_13 
REMARK    5  A    between atoms: C_6  and  S_18 
REMARK    6  A    between atoms: C_6  and  S_19 
REMARK    7  A    between atoms: C_7  and  C_20 
REMARK    8  A    between atoms: C_7  and  C_21 
REMARK    9  A    between atoms: C_9  and  C_24 
REMARK   10  A    between atoms: C_16  and  C_17 
REMARK   11  A    between atoms: S_19  and  C_20 
ROOT
HETATM    1  C           1      31.851  50.717  39.431  0.00  0.00     0.092 C 
HETATM    2  C           1      29.891  50.835  40.821  0.00  0.00     0.156 C 
HETATM    3  C           1      32.323  51.014  40.826  0.00  0.00     0.127 C 
HETATM    4  C           1      31.062  51.652  41.464  0.00  0.00     0.136 C 
HETATM    5  C           1      30.943  53.091  41.074  0.00  0.00     0.079 C 
HETATM    6  N           1      31.025  54.224  40.837  0.00  0.00    -0.196 NA
HETATM    7  C           1      33.565  51.899  41.258  0.00  0.00     0.248 C 
HETATM    8  C           1      32.557  51.808  43.526  0.00  0.00     0.105 C 
HETATM    9  N           1      30.550  50.587  39.448  0.00  0.00    -0.350 N 
HETATM   10  N           1      33.817  51.789  42.796  0.00  0.00    -0.040 N 
HETATM   11  C           1      32.701  51.907  45.025  0.00  0.00     0.075 C 
HETATM   12  C           1      31.331  51.709  42.958  0.00  0.00     0.036 C 
HETATM   13  H           1      30.007  50.348  38.607  0.00  0.00     0.163 HD
HETATM   14  H           1      34.369  52.631  43.080  0.00  0.00     0.284 HD
HETATM   15  H           1      34.382  50.948  43.040  0.00  0.00     0.284 HD
ENDROOT
BRANCH   2  16
HETATM   16  S           1      28.389  51.835  40.557  0.00  0.00    -0.125 SA
BRANCH  16  17
HETATM   17  C           1      28.205  51.817  38.749  0.00  0.00     0.077 C 
BRANCH  17  18
HETATM   18  C           1      27.288  50.649  38.355  0.00  0.00     0.010 C 
BRANCH  18  19
HETATM   19  C           1      26.470  50.143  39.556  0.00  0.00    -0.004 C 
HETATM   20  C           1      25.285  49.274  39.115  0.00  0.00     0.005 C 
ENDBRANCH  18  19
ENDBRANCH  17  18
ENDBRANCH  16  17
ENDBRANCH   2  16
BRANCH   2  21
HETATM   21  S           1      29.681  49.239  41.680  0.00  0.00    -0.125 SA
BRANCH  21  22
HETATM   22  C           1      29.453  48.126  40.257  0.00  0.00     0.077 C 
BRANCH  22  23
HETATM   23  C           1      28.348  47.111  40.596  0.00  0.00     0.010 C 
BRANCH  23  24
HETATM   24  C           1      27.783  46.446  39.330  0.00  0.00    -0.004 C 
HETATM   25  C           1      28.451  46.982  38.057  0.00  0.00     0.005 C 
ENDBRANCH  23  24
ENDBRANCH  22  23
ENDBRANCH  21  22
ENDBRANCH   2  21
BRANCH   3  26
HETATM   26  C           1      32.734  49.777  41.540  0.00  0.00     0.105 C 
HETATM   27  N           1      32.942  48.672  41.262  0.00  0.00    -0.151 N 
ENDBRANCH   3  26
BRANCH   1  28
HETATM   28  N           1      32.590  50.526  38.418  0.00  0.00    -0.388 N 
HETATM   29  H           1      32.555  51.183  37.600  0.00  0.00     0.157 HD
HETATM   30  H           1      33.247  49.709  38.380  0.00  0.00     0.157 HD
ENDBRANCH   1  28
BRANCH   7  31
HETATM   31  C           1      34.819  51.598  40.452  0.00  0.00    -0.026 A 
HETATM   32  C           1      35.590  50.516  40.668  0.00  0.00     0.009 A 
HETATM   33  C           1      36.687  50.282  39.929  0.00  0.00     0.001 A 
HETATM   34  C           1      37.038  51.134  38.955  0.00  0.00     0.000 A 
HETATM   35  C           1      36.288  52.222  38.732  0.00  0.00     0.001 A 
HETATM   36  C           1      35.197  52.448  39.479  0.00  0.00     0.009 A 
ENDBRANCH   7  31
TORSDOF 11
ENDMDL
MODEL 2
REMARK VINA RESULT:      -6.1      1.588      3.422
REMARK  11 active torsions:
REMARK  status: ('A' for Active; 'I' for Inactive)
REMARK    1  A    between atoms: C_1  and  C_17 
REMARK    2  A    between atoms: C_1  and  S_18 
REMARK    3  A    between atoms: C_2  and  N_23 
REMARK    4  A    between atoms: C_3  and  C_13 
REMARK    5  A    between atoms: C_6  and  S_18 
REMARK    6  A    between atoms: C_6  and  S_19 
REMARK    7  A    between atoms: C_7  and  C_20 
REMARK    8  A    between atoms: C_7  and  C_21 
REMARK    9  A    between atoms: C_9  and  C_24 
REMARK   10  A    between atoms: C_16  and  C_17 
REMARK   11  A    between atoms: S_19  and  C_20 
ROOT
HETATM    1  C           1      32.683  48.768  41.014  0.00  0.00     0.092 C 
HETATM    2  C           1      30.377  48.891  40.338  0.00  0.00     0.156 C 
HETATM    3  C           1      32.295  50.219  41.049  0.00  0.00     0.127 C 
HETATM    4  C           1      31.096  50.257  40.068  0.00  0.00     0.136 C 
HETATM    5  C           1      31.572  50.300  38.651  0.00  0.00     0.079 C 
HETATM    6  N           1      32.043  50.482  37.606  0.00  0.00    -0.196 NA
HETATM    7  C           1      33.209  51.470  40.719  0.00  0.00     0.248 C 
HETATM    8  C           1      31.073  52.736  40.670  0.00  0.00     0.105 C 
HETATM    9  N           1      31.636  48.064  40.667  0.00  0.00    -0.350 N 
HETATM   10  N           1      32.472  52.804  41.068  0.00  0.00    -0.040 N 
HETATM   11  C           1      30.325  54.042  40.782  0.00  0.00     0.075 C 
HETATM   12  C           1      30.437  51.611  40.263  0.00  0.00     0.036 C 
HETATM   13  H           1      31.656  47.037  40.608  0.00  0.00     0.163 HD
HETATM   14  H           1      32.929  53.564  40.514  0.00  0.00     0.284 HD
HETATM   15  H           1      32.566  53.050  42.075  0.00  0.00     0.284 HD
ENDROOT
BRANCH   2  16
HETATM   16  S           1      29.608  48.185  38.843  0.00  0.00    -0.125 SA
BRANCH  16  17
HETATM   17  C           1      29.750  46.396  39.123  0.00  0.00     0.077 C 
BRANCH  17  18
HETATM   18  C           1      28.364  45.754  38.950  0.00  0.00     0.010 C 
BRANCH  18  19
HETATM   19  C           1      27.981  44.900  40.171  0.00  0.00    -0.004 C 
HETATM   20  C           1      26.612  45.296  40.739  0.00  0.00     0.005 C 
ENDBRANCH  18  19
ENDBRANCH  17  18
ENDBRANCH  16  17
ENDBRANCH   2  16
BRANCH   2  21
HETATM   21  S           1      29.332  49.007  41.830  0.00  0.00    -0.125 SA
BRANCH  21  22
HETATM   22  C           1      27.678  48.823  41.090  0.00  0.00     0.077 C 
BRANCH  22  23
HETATM   23  C           1      27.153  50.216  40.705  0.00  0.00     0.010 C 
BRANCH  23  24
HETATM   24  C           1      26.541  50.220  39.295  0.00  0.00    -0.004 C 
HETATM   25  C           1      27.358  51.079  38.320  0.00  0.00     0.005 C 
ENDBRANCH  23  24
ENDBRANCH  22  23
ENDBRANCH  21  22
ENDBRANCH   2  21
BRANCH   3  26
HETATM   26  C           1      31.901  50.647  42.416  0.00  0.00     0.105 C 
HETATM   27  N           1      31.992  50.225  43.492  0.00  0.00    -0.151 N 
ENDBRANCH   3  26
BRANCH   1  28
HETATM   28  N           1      33.805  48.286  41.354  0.00  0.00    -0.388 N 
HETATM   29  H           1      34.008  47.263  41.230  0.00  0.00     0.157 HD
HETATM   30  H           1      34.549  48.900  41.766  0.00  0.00     0.157 HD
ENDBRANCH   1  28
BRANCH   7  31
HETATM   31  C           1      34.582  51.393  41.369  0.00  0.00    -0.026 A 
HETATM   32  C           1      34.817  51.767  42.640  0.00  0.00     0.009 A 
HETATM   33  C           1      36.044  51.676  43.179  0.00  0.00     0.001 A 
HETATM   34  C           1      37.067  51.208  42.451  0.00  0.00     0.000 A 
HETATM   35  C           1      36.856  50.840  41.179  0.00  0.00     0.001 A 
HETATM   36  C           1      35.627  50.939  40.650  0.00  0.00     0.009 A 
ENDBRANCH   7  31
TORSDOF 11
ENDMDL
MODEL 3
REMARK VINA RESULT:      -6.1     25.082     27.294
REMARK  11 active torsions:
REMARK  status: ('A' for Active; 'I' for Inactive)
REMARK    1  A    between atoms: C_1  and  C_17 
REMARK    2  A    between atoms: C_1  and  S_18 
REMARK    3  A    between atoms: C_2  and  N_23 
REMARK    4  A    between atoms: C_3  and  C_13 
REMARK    5  A    between atoms: C_6  and  S_18 
REMARK    6  A    between atoms: C_6  and  S_19 
REMARK    7  A    between atoms: C_7  and  C_20 
REMARK    8  A    between atoms: C_7  and  C_21 
REMARK    9  A    between atoms: C_9  and  C_24 
REMARK   10  A    between atoms: C_16  and  C_17 
REMARK   11  A    between atoms: S_19  and  C_20 
ROOT
HETATM    1  C           1      39.742  47.735  65.106  0.00  0.00     0.092 C 
HETATM    2  C           1      39.772  45.340  64.878  0.00  0.00     0.156 C 
HETATM    3  C           1      38.692  47.194  66.036  0.00  0.00     0.127 C 
HETATM    4  C           1      38.374  45.818  65.399  0.00  0.00     0.136 C 
HETATM    5  C           1      37.436  45.973  64.245  0.00  0.00     0.079 C 
HETATM    6  N           1      36.598  46.186  63.471  0.00  0.00    -0.196 NA
HETATM    7  C           1      37.309  47.863  66.422  0.00  0.00     0.248 C 
HETATM    8  C           1      36.746  45.630  67.354  0.00  0.00     0.105 C 
HETATM    9  N           1      40.338  46.729  64.520  0.00  0.00    -0.350 N 
HETATM   10  N           1      36.607  47.064  67.568  0.00  0.00    -0.040 N 
HETATM   11  C           1      35.935  44.774  68.295  0.00  0.00     0.075 C 
HETATM   12  C           1      37.552  45.060  66.426  0.00  0.00     0.036 C 
HETATM   13  H           1      41.118  46.857  63.860  0.00  0.00     0.163 HD
HETATM   14  H           1      35.588  47.300  67.531  0.00  0.00     0.284 HD
HETATM   15  H           1      36.958  47.340  68.509  0.00  0.00     0.284 HD
ENDROOT
BRANCH   2  16
HETATM   16  S           1      39.661  44.359  63.344  0.00  0.00    -0.125 SA
BRANCH  16  17
HETATM   17  C           1      39.891  42.657  63.937  0.00  0.00     0.077 C 
BRANCH  17  18
HETATM   18  C           1      38.790  41.769  63.334  0.00  0.00     0.010 C 
BRANCH  18  19
HETATM   19  C           1      37.391  42.363  63.571  0.00  0.00    -0.004 C 
HETATM   20  C           1      36.793  41.900  64.906  0.00  0.00     0.005 C 
ENDBRANCH  18  19
ENDBRANCH  17  18
ENDBRANCH  16  17
ENDBRANCH   2  16
BRANCH   2  21
HETATM   21  S           1      40.752  44.630  66.244  0.00  0.00    -0.125 SA
BRANCH  21  22
HETATM   22  C           1      42.440  44.921  65.625  0.00  0.00     0.077 C 
BRANCH  22  23
HETATM   23  C           1      43.100  46.012  66.485  0.00  0.00     0.010 C 
BRANCH  23  24
HETATM   24  C           1      43.837  47.045  65.619  0.00  0.00    -0.004 C 
HETATM   25  C           1      44.432  46.411  64.354  0.00  0.00     0.005 C 
ENDBRANCH  23  24
ENDBRANCH  22  23
ENDBRANCH  21  22
ENDBRANCH   2  21
BRANCH   3  26
HETATM   26  C           1      39.210  47.052  67.421  0.00  0.00     0.105 C 
HETATM   27  N           1      40.090  47.481  68.042  0.00  0.00    -0.151 N 
ENDBRANCH   3  26
BRANCH   1  28
HETATM   28  N           1      40.069  48.953  64.977  0.00  0.00    -0.388 N 
HETATM   29  H           1      40.707  49.411  65.674  0.00  0.00     0.157 HD
HETATM   30  H           1      39.709  49.522  64.173  0.00  0.00     0.157 HD
ENDBRANCH   1  28
BRANCH   7  31
HETATM   31  C           1      37.433  49.342  66.754  0.00  0.00    -0.026 A 
HETATM   32  C           1      37.687  50.285  65.828  0.00  0.00     0.009 A 
HETATM   33  C           1      37.782  51.582  66.161  0.00  0.00     0.001 A 
HETATM   34  C           1      37.626  51.964  67.437  0.00  0.00     0.000 A 
HETATM   35  C           1      37.383  51.038  68.376  0.00  0.00     0.001 A 
HETATM   36  C           1      37.295  49.744  68.032  0.00  0.00     0.009 A 
ENDBRANCH   7  31
TORSDOF 11
ENDMDL
MODEL 4
REMARK VINA RESULT:      -5.9     11.882     15.610
REMARK  11 active torsions:
REMARK  status: ('A' for Active; 'I' for Inactive)
REMARK    1  A    between atoms: C_1  and  C_17 
REMARK    2  A    between atoms: C_1  and  S_18 
REMARK    3  A    between atoms: C_2  and  N_23 
REMARK    4  A    between atoms: C_3  and  C_13 
REMARK    5  A    between atoms: C_6  and  S_18 
REMARK    6  A    between atoms: C_6  and  S_19 
REMARK    7  A    between atoms: C_7  and  C_20 
REMARK    8  A    between atoms: C_7  and  C_21 
REMARK    9  A    between atoms: C_9  and  C_24 
REMARK   10  A    between atoms: C_16  and  C_17 
REMARK   11  A    between atoms: S_19  and  C_20 
ROOT
HETATM    1  C           1      19.465  48.976  49.780  0.00  0.00     0.092 C 
HETATM    2  C           1      20.619  47.311  48.482  0.00  0.00     0.156 C 
HETATM    3  C           1      18.876  49.014  48.397  0.00  0.00     0.127 C 
HETATM    4  C           1      20.020  48.412  47.543  0.00  0.00     0.136 C 
HETATM    5  C           1      21.063  49.443  47.252  0.00  0.00     0.079 C 
HETATM    6  N           1      21.730  50.348  46.961  0.00  0.00    -0.196 NA
HETATM    7  C           1      18.325  50.279  47.618  0.00  0.00     0.248 C 
HETATM    8  C           1      18.380  48.796  45.627  0.00  0.00     0.105 C 
HETATM    9  N           1      20.371  48.034  49.822  0.00  0.00    -0.350 N 
HETATM   10  N           1      17.624  49.850  46.289  0.00  0.00    -0.040 N 
HETATM   11  C           1      17.894  48.452  44.240  0.00  0.00     0.075 C 
HETATM   12  C           1      19.417  48.122  46.180  0.00  0.00     0.036 C 
HETATM   13  H           1      20.887  47.802  50.681  0.00  0.00     0.163 HD
HETATM   14  H           1      17.615  50.686  45.660  0.00  0.00     0.284 HD
HETATM   15  H           1      16.634  49.563  46.444  0.00  0.00     0.284 HD
ENDROOT
BRANCH   2  16
HETATM   16  S           1      22.419  47.102  48.274  0.00  0.00    -0.125 SA
BRANCH  16  17
HETATM   17  C           1      23.103  48.237  49.517  0.00  0.00     0.077 C 
BRANCH  17  18
HETATM   18  C           1      24.613  48.388  49.273  0.00  0.00     0.010 C 
BRANCH  18  19
HETATM   19  C           1      24.937  49.689  48.519  0.00  0.00    -0.004 C 
HETATM   20  C           1      26.444  49.852  48.281  0.00  0.00     0.005 C 
ENDBRANCH  18  19
ENDBRANCH  17  18
ENDBRANCH  16  17
ENDBRANCH   2  16
BRANCH   2  21
HETATM   21  S           1      19.599  45.799  48.422  0.00  0.00    -0.125 SA
BRANCH  21  22
HETATM   22  C           1      20.534  44.817  47.207  0.00  0.00     0.077 C 
BRANCH  22  23
HETATM   23  C           1      19.567  44.338  46.111  0.00  0.00     0.010 C 
BRANCH  23  24
HETATM   24  C           1      18.103  44.621  46.485  0.00  0.00    -0.004 C 
HETATM   25  C           1      17.248  44.933  45.249  0.00  0.00     0.005 C 
ENDBRANCH  23  24
ENDBRANCH  22  23
ENDBRANCH  21  22
ENDBRANCH   2  21
BRANCH   3  26
HETATM   26  C           1      17.636  48.200  48.308  0.00  0.00     0.105 C 
HETATM   27  N           1      16.943  47.635  49.045  0.00  0.00    -0.151 N 
ENDBRANCH   3  26
BRANCH   1  28
HETATM   28  N           1      19.086  49.668  50.772  0.00  0.00    -0.388 N 
HETATM   29  H           1      19.584  50.559  51.024  0.00  0.00     0.157 HD
HETATM   30  H           1      18.271  49.365  51.358  0.00  0.00     0.157 HD
ENDBRANCH   1  28
BRANCH   7  31
HETATM   31  C           1      17.430  51.163  48.473  0.00  0.00    -0.026 A 
HETATM   32  C           1      16.108  50.956  48.612  0.00  0.00     0.009 A 
HETATM   33  C           1      15.354  51.756  49.384  0.00  0.00     0.001 A 
HETATM   34  C           1      15.912  52.787  50.034  0.00  0.00     0.000 A 
HETATM   35  C           1      17.226  53.016  49.899  0.00  0.00     0.001 A 
HETATM   36  C           1      17.969  52.213  49.123  0.00  0.00     0.009 A 
ENDBRANCH   7  31
TORSDOF 11
ENDMDL
MODEL 5
REMARK VINA RESULT:      -5.8     13.105     15.957
REMARK  11 active torsions:
REMARK  status: ('A' for Active; 'I' for Inactive)
REMARK    1  A    between atoms: C_1  and  C_17 
REMARK    2  A    between atoms: C_1  and  S_18 
REMARK    3  A    between atoms: C_2  and  N_23 
REMARK    4  A    between atoms: C_3  and  C_13 
REMARK    5  A    between atoms: C_6  and  S_18 
REMARK    6  A    between atoms: C_6  and  S_19 
REMARK    7  A    between atoms: C_7  and  C_20 
REMARK    8  A    between atoms: C_7  and  C_21 
REMARK    9  A    between atoms: C_9  and  C_24 
REMARK   10  A    between atoms: C_16  and  C_17 
REMARK   11  A    between atoms: S_19  and  C_20 
ROOT
HETATM    1  C           1      19.019  48.104  49.633  0.00  0.00     0.092 C 
HETATM    2  C           1      20.040  46.384  48.295  0.00  0.00     0.156 C 
HETATM    3  C           1      18.684  48.409  48.201  0.00  0.00     0.127 C 
HETATM    4  C           1      19.820  47.679  47.440  0.00  0.00     0.136 C 
HETATM    5  C           1      21.070  48.499  47.443  0.00  0.00     0.079 C 
HETATM    6  N           1      21.933  49.273  47.375  0.00  0.00    -0.196 NA
HETATM    7  C           1      18.514  49.835  47.532  0.00  0.00     0.248 C 
HETATM    8  C           1      18.618  48.593  45.384  0.00  0.00     0.105 C 
HETATM    9  N           1      19.714  46.996  49.673  0.00  0.00    -0.350 N 
HETATM   10  N           1      17.973  49.703  46.072  0.00  0.00    -0.040 N 
HETATM   11  C           1      18.312  48.506  43.909  0.00  0.00     0.075 C 
HETATM   12  C           1      19.406  47.665  45.980  0.00  0.00     0.036 C 
HETATM   13  H           1      20.029  46.573  50.556  0.00  0.00     0.163 HD
HETATM   14  H           1      18.224  50.586  45.568  0.00  0.00     0.284 HD
HETATM   15  H           1      16.936  49.612  46.046  0.00  0.00     0.284 HD
ENDROOT
BRANCH   2  16
HETATM   16  S           1      21.778  45.834  48.314  0.00  0.00    -0.125 SA
BRANCH  16  17
HETATM   17  C           1      21.752  44.458  49.501  0.00  0.00     0.077 C 
BRANCH  17  18
HETATM   18  C           1      22.757  43.389  49.043  0.00  0.00     0.010 C 
BRANCH  18  19
HETATM   19  C           1      23.770  43.054  50.152  0.00  0.00    -0.004 C 
HETATM   20  C           1      24.223  44.309  50.909  0.00  0.00     0.005 C 
ENDBRANCH  18  19
ENDBRANCH  17  18
ENDBRANCH  16  17
ENDBRANCH   2  16
BRANCH   2  21
HETATM   21  S           1      18.779  45.130  47.886  0.00  0.00    -0.125 SA
BRANCH  21  22
HETATM   22  C           1      19.635  44.222  46.560  0.00  0.00     0.077 C 
BRANCH  22  23
HETATM   23  C           1      18.672  44.062  45.371  0.00  0.00     0.010 C 
BRANCH  23  24
HETATM   24  C           1      17.256  44.545  45.722  0.00  0.00    -0.004 C 
HETATM   25  C           1      16.600  45.290  44.551  0.00  0.00     0.005 C 
ENDBRANCH  23  24
ENDBRANCH  22  23
ENDBRANCH  21  22
ENDBRANCH   2  21
BRANCH   3  26
HETATM   26  C           1      17.346  47.881  47.828  0.00  0.00     0.105 C 
HETATM   27  N           1      16.437  47.419  48.379  0.00  0.00    -0.151 N 
ENDBRANCH   3  26
BRANCH   1  28
HETATM   28  N           1      18.618  48.749  50.648  0.00  0.00    -0.388 N 
HETATM   29  H           1      19.258  48.913  51.465  0.00  0.00     0.157 HD
HETATM   30  H           1      17.642  49.131  50.690  0.00  0.00     0.157 HD
ENDBRANCH   1  28
BRANCH   7  31
HETATM   31  C           1      17.671  50.788  48.366  0.00  0.00    -0.026 A 
HETATM   32  C           1      16.326  50.773  48.367  0.00  0.00     0.009 A 
HETATM   33  C           1      15.618  51.626  49.125  0.00  0.00     0.001 A 
HETATM   34  C           1      16.248  52.521  49.900  0.00  0.00     0.000 A 
HETATM   35  C           1      17.588  52.559  49.904  0.00  0.00     0.001 A 
HETATM   36  C           1      18.285  51.704  49.141  0.00  0.00     0.009 A 
ENDBRANCH   7  31
TORSDOF 11
ENDMDL
MODEL 6
REMARK VINA RESULT:      -5.7     25.578     27.381
REMARK  11 active torsions:
REMARK  status: ('A' for Active; 'I' for Inactive)
REMARK    1  A    between atoms: C_1  and  C_17 
REMARK    2  A    between atoms: C_1  and  S_18 
REMARK    3  A    between atoms: C_2  and  N_23 
REMARK    4  A    between atoms: C_3  and  C_13 
REMARK    5  A    between atoms: C_6  and  S_18 
REMARK    6  A    between atoms: C_6  and  S_19 
REMARK    7  A    between atoms: C_7  and  C_20 
REMARK    8  A    between atoms: C_7  and  C_21 
REMARK    9  A    between atoms: C_9  and  C_24 
REMARK   10  A    between atoms: C_16  and  C_17 
REMARK   11  A    between atoms: S_19  and  C_20 
ROOT
HETATM    1  C           1      38.644  44.921  64.178  0.00  0.00     0.092 C 
HETATM    2  C           1      39.294  46.891  65.398  0.00  0.00     0.156 C 
HETATM    3  C           1      39.605  44.477  65.244  0.00  0.00     0.127 C 
HETATM    4  C           1      40.391  45.781  65.534  0.00  0.00     0.136 C 
HETATM    5  C           1      41.453  45.998  64.505  0.00  0.00     0.079 C 
HETATM    6  N           1      42.335  45.993  63.750  0.00  0.00    -0.196 NA
HETATM    7  C           1      40.663  43.301  65.160  0.00  0.00     0.248 C 
HETATM    8  C           1      41.613  44.309  67.222  0.00  0.00     0.105 C 
HETATM    9  N           1      38.457  46.211  64.295  0.00  0.00    -0.350 N 
HETATM   10  N           1      41.323  43.047  66.554  0.00  0.00    -0.040 N 
HETATM   11  C           1      42.430  44.177  68.483  0.00  0.00     0.075 C 
HETATM   12  C           1      41.176  45.523  66.808  0.00  0.00     0.036 C 
HETATM   13  H           1      37.809  46.733  63.688  0.00  0.00     0.163 HD
HETATM   14  H           1      42.231  42.557  66.381  0.00  0.00     0.284 HD
HETATM   15  H           1      40.741  42.427  67.155  0.00  0.00     0.284 HD
ENDROOT
BRANCH   2  16
HETATM   16  S           1      39.947  48.457  64.731  0.00  0.00    -0.125 SA
BRANCH  16  17
HETATM   17  C           1      39.608  49.638  66.069  0.00  0.00     0.077 C 
BRANCH  17  18
HETATM   18  C           1      38.387  50.489  65.682  0.00  0.00     0.010 C 
BRANCH  18  19
HETATM   19  C           1      37.726  51.124  66.917  0.00  0.00    -0.004 C 
HETATM   20  C           1      37.680  52.655  66.817  0.00  0.00     0.005 C 
ENDBRANCH  18  19
ENDBRANCH  17  18
ENDBRANCH  16  17
ENDBRANCH   2  16
BRANCH   2  21
HETATM   21  S           1      38.298  46.994  66.924  0.00  0.00    -0.125 SA
BRANCH  21  22
HETATM   22  C           1      36.635  47.223  66.219  0.00  0.00     0.077 C 
BRANCH  22  23
HETATM   23  C           1      35.591  46.899  67.301  0.00  0.00     0.010 C 
BRANCH  23  24
HETATM   24  C           1      35.033  48.176  67.949  0.00  0.00    -0.004 C 
HETATM   25  C           1      35.741  48.503  69.270  0.00  0.00     0.005 C 
ENDBRANCH  23  24
ENDBRANCH  22  23
ENDBRANCH  21  22
ENDBRANCH   2  21
BRANCH   3  26
HETATM   26  C           1      38.893  43.985  66.451  0.00  0.00     0.105 C 
HETATM   27  N           1      37.813  43.660  66.721  0.00  0.00    -0.151 N 
ENDBRANCH   3  26
BRANCH   1  28
HETATM   28  N           1      38.035  44.168  63.360  0.00  0.00    -0.388 N 
HETATM   29  H           1      38.472  43.270  63.033  0.00  0.00     0.157 HD
HETATM   30  H           1      37.086  44.427  62.996  0.00  0.00     0.157 HD
ENDBRANCH   1  28
BRANCH   7  31
HETATM   31  C           1      40.091  42.026  64.561  0.00  0.00    -0.026 A 
HETATM   32  C           1      39.835  41.879  63.248  0.00  0.00     0.009 A 
HETATM   33  C           1      39.336  40.732  62.758  0.00  0.00     0.001 A 
HETATM   34  C           1      39.079  39.704  63.579  0.00  0.00     0.000 A 
HETATM   35  C           1      39.317  39.834  64.891  0.00  0.00     0.001 A 
HETATM   36  C           1      39.812  40.986  65.370  0.00  0.00     0.009 A 
ENDBRANCH   7  31
TORSDOF 11
ENDMDL
MODEL 7
REMARK VINA RESULT:      -5.6      2.022      3.901
REMARK  11 active torsions:
REMARK  status: ('A' for Active; 'I' for Inactive)
REMARK    1  A    between atoms: C_1  and  C_17 
REMARK    2  A    between atoms: C_1  and  S_18 
REMARK    3  A    between atoms: C_2  and  N_23 
REMARK    4  A    between atoms: C_3  and  C_13 
REMARK    5  A    between atoms: C_6  and  S_18 
REMARK    6  A    between atoms: C_6  and  S_19 
REMARK    7  A    between atoms: C_7  and  C_20 
REMARK    8  A    between atoms: C_7  and  C_21 
REMARK    9  A    between atoms: C_9  and  C_24 
REMARK   10  A    between atoms: C_16  and  C_17 
REMARK   11  A    between atoms: S_19  and  C_20 
ROOT
HETATM    1  C           1      31.615  48.486  40.353  0.00  0.00     0.092 C 
HETATM    2  C           1      29.345  48.097  39.655  0.00  0.00     0.156 C 
HETATM    3  C           1      30.812  49.676  40.796  0.00  0.00     0.127 C 
HETATM    4  C           1      29.606  49.633  39.824  0.00  0.00     0.136 C 
HETATM    5  C           1      29.971  50.226  38.501  0.00  0.00     0.079 C 
HETATM    6  N           1      30.309  50.837  37.574  0.00  0.00    -0.196 NA
HETATM    7  C           1      31.290  51.184  40.883  0.00  0.00     0.248 C 
HETATM    8  C           1      28.873  51.702  41.124  0.00  0.00     0.105 C 
HETATM    9  N           1      30.811  47.631  39.776  0.00  0.00    -0.350 N 
HETATM   10  N           1      30.207  52.071  41.578  0.00  0.00    -0.040 N 
HETATM   11  C           1      27.775  52.629  41.584  0.00  0.00     0.075 C 
HETATM   12  C           1      28.583  50.606  40.381  0.00  0.00     0.036 C 
HETATM   13  H           1      31.135  46.721  39.420  0.00  0.00     0.163 HD
HETATM   14  H           1      30.384  53.061  41.288  0.00  0.00     0.284 HD
HETATM   15  H           1      30.276  52.031  42.616  0.00  0.00     0.284 HD
ENDROOT
BRANCH   2  16
HETATM   16  S           1      28.745  47.657  37.991  0.00  0.00    -0.125 SA
BRANCH  16  17
HETATM   17  C           1      29.325  45.947  37.791  0.00  0.00     0.077 C 
BRANCH  17  18
HETATM   18  C           1      28.456  45.249  36.733  0.00  0.00     0.010 C 
BRANCH  18  19
HETATM   19  C           1      27.052  44.931  37.275  0.00  0.00    -0.004 C 
HETATM   20  C           1      25.949  45.449  36.343  0.00  0.00     0.005 C 
ENDBRANCH  18  19
ENDBRANCH  17  18
ENDBRANCH  16  17
ENDBRANCH   2  16
BRANCH   2  21
HETATM   21  S           1      28.396  47.453  41.074  0.00  0.00    -0.125 SA
BRANCH  21  22
HETATM   22  C           1      26.847  46.973  40.245  0.00  0.00     0.077 C 
BRANCH  22  23
HETATM   23  C           1      25.805  48.082  40.465  0.00  0.00     0.010 C 
BRANCH  23  24
HETATM   24  C           1      25.040  48.404  39.171  0.00  0.00    -0.004 C 
HETATM   25  C           1      25.537  49.702  38.520  0.00  0.00     0.005 C 
ENDBRANCH  23  24
ENDBRANCH  22  23
ENDBRANCH  21  22
ENDBRANCH   2  21
BRANCH   3  26
HETATM   26  C           1      30.381  49.548  42.213  0.00  0.00     0.105 C 
HETATM   27  N           1      30.621  48.853  43.108  0.00  0.00    -0.151 N 
ENDBRANCH   3  26
BRANCH   1  28
HETATM   28  N           1      32.847  48.289  40.581  0.00  0.00    -0.388 N 
HETATM   29  H           1      33.254  48.489  41.528  0.00  0.00     0.157 HD
HETATM   30  H           1      33.480  47.923  39.829  0.00  0.00     0.157 HD
ENDBRANCH   1  28
BRANCH   7  31
HETATM   31  C           1      32.656  51.341  41.534  0.00  0.00    -0.026 A 
HETATM   32  C           1      33.807  51.344  40.837  0.00  0.00     0.009 A 
HETATM   33  C           1      34.993  51.493  41.450  0.00  0.00     0.001 A 
HETATM   34  C           1      35.051  51.639  42.781  0.00  0.00     0.000 A 
HETATM   35  C           1      33.915  51.627  43.494  0.00  0.00     0.001 A 
HETATM   36  C           1      32.736  51.474  42.872  0.00  0.00     0.009 A 
ENDBRANCH   7  31
TORSDOF 11
ENDMDL
MODEL 8
REMARK VINA RESULT:      -5.6     12.366     16.217
REMARK  11 active torsions:
REMARK  status: ('A' for Active; 'I' for Inactive)
REMARK    1  A    between atoms: C_1  and  C_17 
REMARK    2  A    between atoms: C_1  and  S_18 
REMARK    3  A    between atoms: C_2  and  N_23 
REMARK    4  A    between atoms: C_3  and  C_13 
REMARK    5  A    between atoms: C_6  and  S_18 
REMARK    6  A    between atoms: C_6  and  S_19 
REMARK    7  A    between atoms: C_7  and  C_20 
REMARK    8  A    between atoms: C_7  and  C_21 
REMARK    9  A    between atoms: C_9  and  C_24 
REMARK   10  A    between atoms: C_16  and  C_17 
REMARK   11  A    between atoms: S_19  and  C_20 
ROOT
HETATM    1  C           1      18.362  50.041  46.493  0.00  0.00     0.092 C 
HETATM    2  C           1      18.212  49.509  48.835  0.00  0.00     0.156 C 
HETATM    3  C           1      17.364  50.991  47.094  0.00  0.00     0.127 C 
HETATM    4  C           1      16.900  50.217  48.354  0.00  0.00     0.136 C 
HETATM    5  C           1      15.877  49.187  47.997  0.00  0.00     0.079 C 
HETATM    6  N           1      14.991  48.529  47.638  0.00  0.00    -0.196 NA
HETATM    7  C           1      16.066  51.589  46.408  0.00  0.00     0.248 C 
HETATM    8  C           1      15.439  52.279  48.710  0.00  0.00     0.105 C 
HETATM    9  N           1      18.836  49.278  47.444  0.00  0.00    -0.350 N 
HETATM   10  N           1      15.416  52.686  47.311  0.00  0.00    -0.040 N 
HETATM   11  C           1      14.658  53.177  49.637  0.00  0.00     0.075 C 
HETATM   12  C           1      16.122  51.214  49.196  0.00  0.00     0.036 C 
HETATM   13  H           1      19.562  48.570  47.273  0.00  0.00     0.163 HD
HETATM   14  H           1      14.415  52.775  47.017  0.00  0.00     0.284 HD
HETATM   15  H           1      15.865  53.616  47.181  0.00  0.00     0.284 HD
ENDROOT
BRANCH   2  16
HETATM   16  S           1      17.903  47.882  49.597  0.00  0.00    -0.125 SA
BRANCH  16  17
HETATM   17  C           1      18.611  46.728  48.385  0.00  0.00     0.077 C 
BRANCH  17  18
HETATM   18  C           1      17.529  45.720  47.968  0.00  0.00     0.010 C 
BRANCH  18  19
HETATM   19  C           1      17.632  45.365  46.475  0.00  0.00    -0.004 C 
HETATM   20  C           1      17.258  46.553  45.578  0.00  0.00     0.005 C 
ENDBRANCH  18  19
ENDBRANCH  17  18
ENDBRANCH  16  17
ENDBRANCH   2  16
BRANCH   2  21
HETATM   21  S           1      19.258  50.675  49.772  0.00  0.00    -0.125 SA
BRANCH  21  22
HETATM   22  C           1      20.910  49.997  49.415  0.00  0.00     0.077 C 
BRANCH  22  23
HETATM   23  C           1      21.724  51.057  48.654  0.00  0.00     0.010 C 
BRANCH  23  24
HETATM   24  C           1      23.221  50.970  48.992  0.00  0.00    -0.004 C 
HETATM   25  C           1      24.001  50.177  47.934  0.00  0.00     0.005 C 
ENDBRANCH  23  24
ENDBRANCH  22  23
ENDBRANCH  21  22
ENDBRANCH   2  21
BRANCH   3  26
HETATM   26  C           1      17.989  52.292  47.446  0.00  0.00     0.105 C 
HETATM   27  N           1      19.056  52.745  47.439  0.00  0.00    -0.151 N 
ENDBRANCH   3  26
BRANCH   1  28
HETATM   28  N           1      18.757  50.037  45.289  0.00  0.00    -0.388 N 
HETATM   29  H           1      19.672  50.481  45.025  0.00  0.00     0.157 HD
HETATM   30  H           1      18.179  49.591  44.536  0.00  0.00     0.157 HD
ENDBRANCH   1  28
BRANCH   7  31
HETATM   31  C           1      16.318  52.091  44.995  0.00  0.00    -0.026 A 
HETATM   32  C           1      16.835  53.304  44.726  0.00  0.00     0.009 A 
HETATM   33  C           1      17.049  53.708  43.463  0.00  0.00     0.001 A 
HETATM   34  C           1      16.744  52.901  42.437  0.00  0.00     0.000 A 
HETATM   35  C           1      16.218  51.693  42.683  0.00  0.00     0.001 A 
HETATM   36  C           1      16.005  51.302  43.949  0.00  0.00     0.009 A 
ENDBRANCH   7  31
TORSDOF 11
ENDMDL
MODEL 9
REMARK VINA RESULT:      -5.5     12.321     15.866
REMARK  11 active torsions:
REMARK  status: ('A' for Active; 'I' for Inactive)
REMARK    1  A    between atoms: C_1  and  C_17 
REMARK    2  A    between atoms: C_1  and  S_18 
REMARK    3  A    between atoms: C_2  and  N_23 
REMARK    4  A    between atoms: C_3  and  C_13 
REMARK    5  A    between atoms: C_6  and  S_18 
REMARK    6  A    between atoms: C_6  and  S_19 
REMARK    7  A    between atoms: C_7  and  C_20 
REMARK    8  A    between atoms: C_7  and  C_21 
REMARK    9  A    between atoms: C_9  and  C_24 
REMARK   10  A    between atoms: C_16  and  C_17 
REMARK   11  A    between atoms: S_19  and  C_20 
ROOT
HETATM    1  C           1      26.338  38.394  49.762  0.00  0.00     0.092 C 
HETATM    2  C           1      26.749  40.756  49.967  0.00  0.00     0.156 C 
HETATM    3  C           1      26.827  38.870  48.423  0.00  0.00     0.127 C 
HETATM    4  C           1      26.479  40.380  48.471  0.00  0.00     0.136 C 
HETATM    5  C           1      25.035  40.601  48.152  0.00  0.00     0.079 C 
HETATM    6  N           1      23.949  40.673  47.748  0.00  0.00    -0.196 NA
HETATM    7  C           1      26.399  38.336  46.994  0.00  0.00     0.248 C 
HETATM    8  C           1      27.519  40.382  46.141  0.00  0.00     0.105 C 
HETATM    9  N           1      26.337  39.407  50.590  0.00  0.00    -0.350 N 
HETATM   10  N           1      27.288  38.969  45.875  0.00  0.00    -0.040 N 
HETATM   11  C           1      28.198  41.128  45.019  0.00  0.00     0.075 C 
HETATM   12  C           1      27.204  41.015  47.297  0.00  0.00     0.036 C 
HETATM   13  H           1      26.070  39.311  51.579  0.00  0.00     0.163 HD
HETATM   14  H           1      26.758  38.890  44.977  0.00  0.00     0.284 HD
HETATM   15  H           1      28.187  38.456  45.754  0.00  0.00     0.284 HD
ENDROOT
BRANCH   2  16
HETATM   16  S           1      25.615  42.040  50.592  0.00  0.00    -0.125 SA
BRANCH  16  17
HETATM   17  C           1      26.343  43.573  49.942  0.00  0.00     0.077 C 
BRANCH  17  18
HETATM   18  C           1      26.996  44.342  51.101  0.00  0.00     0.010 C 
BRANCH  18  19
HETATM   19  C           1      25.951  44.813  52.127  0.00  0.00    -0.004 C 
HETATM   20  C           1      26.364  44.469  53.564  0.00  0.00     0.005 C 
ENDBRANCH  18  19
ENDBRANCH  17  18
ENDBRANCH  16  17
ENDBRANCH   2  16
BRANCH   2  21
HETATM   21  S           1      28.533  41.022  50.245  0.00  0.00    -0.125 SA
BRANCH  21  22
HETATM   22  C           1      28.707  40.357  51.931  0.00  0.00     0.077 C 
BRANCH  22  23
HETATM   23  C           1      28.548  41.512  52.936  0.00  0.00     0.010 C 
BRANCH  23  24
HETATM   24  C           1      29.772  42.441  52.926  0.00  0.00    -0.004 C 
HETATM   25  C           1      30.014  43.082  54.300  0.00  0.00     0.005 C 
ENDBRANCH  23  24
ENDBRANCH  22  23
ENDBRANCH  21  22
ENDBRANCH   2  21
BRANCH   3  26
HETATM   26  C           1      28.287  38.647  48.262  0.00  0.00     0.105 C 
HETATM   27  N           1      29.111  38.035  48.799  0.00  0.00    -0.151 N 
ENDBRANCH   3  26
BRANCH   1  28
HETATM   28  N           1      26.065  37.196  50.074  0.00  0.00    -0.388 N 
HETATM   29  H           1      26.517  36.745  50.908  0.00  0.00     0.157 HD
HETATM   30  H           1      25.383  36.636  49.506  0.00  0.00     0.157 HD
ENDBRANCH   1  28
BRANCH   7  31
HETATM   31  C           1      26.372  36.818  46.909  0.00  0.00    -0.026 A 
HETATM   32  C           1      27.434  36.083  46.528  0.00  0.00     0.009 A 
HETATM   33  C           1      27.372  34.743  46.474  0.00  0.00     0.001 A 
HETATM   34  C           1      26.237  34.107  46.798  0.00  0.00     0.000 A 
HETATM   35  C           1      25.165  34.821  47.169  0.00  0.00     0.001 A 
HETATM   36  C           1      25.238  36.160  47.217  0.00  0.00     0.009 A 
ENDBRANCH   7  31
TORSDOF 11
ENDMDL
MODEL 10
REMARK VINA RESULT:      -5.5     12.121     15.743
REMARK  11 active torsions:
REMARK  status: ('A' for Active; 'I' for Inactive)
REMARK    1  A    between atoms: C_1  and  C_17 
REMARK    2  A    between atoms: C_1  and  S_18 
REMARK    3  A    between atoms: C_2  and  N_23 
REMARK    4  A    between atoms: C_3  and  C_13 
REMARK    5  A    between atoms: C_6  and  S_18 
REMARK    6  A    between atoms: C_6  and  S_19 
REMARK    7  A    between atoms: C_7  and  C_20 
REMARK    8  A    between atoms: C_7  and  C_21 
REMARK    9  A    between atoms: C_9  and  C_24 
REMARK   10  A    between atoms: C_16  and  C_17 
REMARK   11  A    between atoms: S_19  and  C_20 
ROOT
HETATM    1  C           1      18.429  45.745  47.293  0.00  0.00     0.092 C 
HETATM    2  C           1      19.094  47.713  48.508  0.00  0.00     0.156 C 
HETATM    3  C           1      18.345  46.899  46.335  0.00  0.00     0.127 C 
HETATM    4  C           1      18.184  48.105  47.294  0.00  0.00     0.136 C 
HETATM    5  C           1      16.767  48.233  47.752  0.00  0.00     0.079 C 
HETATM    6  N           1      15.623  48.331  47.924  0.00  0.00    -0.196 NA
HETATM    7  C           1      17.307  47.099  45.154  0.00  0.00     0.248 C 
HETATM    8  C           1      18.137  49.439  45.120  0.00  0.00     0.105 C 
HETATM    9  N           1      18.867  46.189  48.443  0.00  0.00    -0.350 N 
HETATM   10  N           1      17.692  48.336  44.280  0.00  0.00    -0.040 N 
HETATM   11  C           1      18.341  50.743  44.387  0.00  0.00     0.075 C 
HETATM   12  C           1      18.398  49.347  46.447  0.00  0.00     0.036 C 
HETATM   13  H           1      19.036  45.568  49.247  0.00  0.00     0.163 HD
HETATM   14  H           1      16.826  48.641  43.777  0.00  0.00     0.284 HD
HETATM   15  H           1      18.405  48.099  43.559  0.00  0.00     0.284 HD
ENDROOT
BRANCH   2  16
HETATM   16  S           1      18.450  48.316  50.103  0.00  0.00    -0.125 SA
BRANCH  16  17
HETATM   17  C           1      19.243  49.943  50.269  0.00  0.00     0.077 C 
BRANCH  17  18
HETATM   18  C           1      18.200  51.035  49.980  0.00  0.00     0.010 C 
BRANCH  18  19
HETATM   19  C           1      18.725  52.063  48.963  0.00  0.00    -0.004 C 
HETATM   20  C           1      20.188  51.796  48.584  0.00  0.00     0.005 C 
ENDBRANCH  18  19
ENDBRANCH  17  18
ENDBRANCH  16  17
ENDBRANCH   2  16
BRANCH   2  21
HETATM   21  S           1      20.844  48.072  48.134  0.00  0.00    -0.125 SA
BRANCH  21  22
HETATM   22  C           1      21.622  46.514  48.668  0.00  0.00     0.077 C 
BRANCH  22  23
HETATM   23  C           1      23.113  46.776  48.940  0.00  0.00     0.010 C 
BRANCH  23  24
HETATM   24  C           1      23.420  48.280  49.010  0.00  0.00    -0.004 C 
HETATM   25  C           1      24.906  48.548  49.284  0.00  0.00     0.005 C 
ENDBRANCH  23  24
ENDBRANCH  22  23
ENDBRANCH  21  22
ENDBRANCH   2  21
BRANCH   3  26
HETATM   26  C           1      19.574  47.014  45.508  0.00  0.00     0.105 C 
HETATM   27  N           1      20.505  46.361  45.285  0.00  0.00    -0.151 N 
ENDBRANCH   3  26
BRANCH   1  28
HETATM   28  N           1      18.208  44.527  47.018  0.00  0.00    -0.388 N 
HETATM   29  H           1      18.855  43.775  47.364  0.00  0.00     0.157 HD
HETATM   30  H           1      17.378  44.250  46.439  0.00  0.00     0.157 HD
ENDBRANCH   1  28
BRANCH   7  31
HETATM   31  C           1      17.113  45.847  44.313  0.00  0.00    -0.026 A 
HETATM   32  C           1      17.967  45.471  43.343  0.00  0.00     0.009 A 
HETATM   33  C           1      17.764  44.353  42.628  0.00  0.00     0.001 A 
HETATM   34  C           1      16.692  43.585  42.868  0.00  0.00     0.000 A 
HETATM   35  C           1      15.823  43.948  43.822  0.00  0.00     0.001 A 
HETATM   36  C           1      16.035  45.069  44.528  0.00  0.00     0.009 A 
ENDBRANCH   7  31
TORSDOF 11
ENDMDL
