MODEL 1
REMARK VINA RESULT:     -11.1      0.000      0.000
REMARK  7 active torsions:
REMARK  status: ('A' for Active; 'I' for Inactive)
REMARK    1  A    between atoms: C_2  and  C_3 
REMARK    2  A    between atoms: C_7  and  N_8 
REMARK    3  A    between atoms: C_10  and  C_11 
REMARK    4  A    between atoms: C_17  and  N_18 
REMARK       I    between atoms: N_18  and  C_19 
REMARK    5  A    between atoms: C_19  and  C_20 
REMARK    6  A    between atoms: C_20  and  O_21 
REMARK    7  A    between atoms: O_21  and  C_22 
ROOT
HETATM    1  N   UNL     1      26.096  44.634  50.380  1.00  0.00    -0.044 N 
HETATM    2  N   UNL     1      26.323  45.604  49.443  1.00  0.00    -0.148 NA
HETATM    3  C   UNL     1      25.720  46.690  49.936  1.00  0.00     0.115 A 
HETATM    4  C   UNL     1      25.119  46.445  51.186  1.00  0.00     0.087 A 
HETATM    5  C   UNL     1      25.315  45.106  51.430  1.00  0.00     0.152 A 
ENDROOT
BRANCH   5   6
HETATM    6  N   UNL     1      24.900  44.499  52.604  1.00  0.00    -0.309 N 
HETATM    7  C   UNL     1      25.201  44.929  53.940  1.00  0.00     0.247 C 
HETATM    8  O   UNL     1      24.456  44.488  54.804  1.00  0.00    -0.271 OA
HETATM    9  H   UNL     1      24.365  43.640  52.552  1.00  0.00     0.170 HD
BRANCH   7  10
HETATM   10  C   UNL     1      26.480  45.692  54.230  1.00  0.00     0.278 C 
BRANCH  10  11
HETATM   11  O   UNL     1      27.533  45.025  53.538  1.00  0.00    -0.342 OA
BRANCH  11  12
HETATM   12  C   UNL     1      28.596  44.607  54.291  1.00  0.00     0.070 A 
HETATM   13  C   UNL     1      28.764  45.291  55.498  1.00  0.00     0.049 A 
HETATM   14  C   UNL     1      29.815  44.972  56.377  1.00  0.00    -0.023 A 
HETATM   15  C   UNL     1      30.710  43.937  56.030  1.00  0.00    -0.026 A 
HETATM   16  C   UNL     1      29.996  45.658  57.589  1.00  0.00     0.012 A 
HETATM   17  C   UNL     1      30.529  43.253  54.819  1.00  0.00     0.015 A 
HETATM   18  C   UNL     1      31.762  43.614  56.904  1.00  0.00     0.012 A 
HETATM   19  C   UNL     1      29.479  43.583  53.955  1.00  0.00     0.037 A 
HETATM   20  C   UNL     1      31.928  44.304  58.105  1.00  0.00     0.001 A 
HETATM   21  C   UNL     1      31.046  45.326  58.447  1.00  0.00     0.001 A 
ENDBRANCH  11  12
ENDBRANCH  10  11
ENDBRANCH   7  10
ENDBRANCH   5   6
BRANCH   1  22
HETATM   22  C   UNL     1      26.727  43.386  50.222  1.00  0.00     0.732 A 
HETATM   23  N   UNL     1      26.663  42.948  48.932  1.00  0.00    -0.152 N 
HETATM   24  C   UNL     1      27.264  41.796  48.540  1.00  0.00     0.268 A 
HETATM   25  H   UNL     1      26.232  43.530  48.220  1.00  0.00     0.188 HD
HETATM   26  C   UNL     1      27.877  40.993  49.636  1.00  0.00     0.035 A 
HETATM   27  O   UNL     1      27.293  41.451  47.366  1.00  0.00    -0.267 OA
HETATM   28  C   UNL     1      27.850  41.517  50.881  1.00  0.00     0.061 A 
HETATM   29  N   UNL     1      27.295  42.746  51.189  1.00  0.00    -0.067 NA
HETATM   30  C   UNL     1      28.434  40.814  52.081  1.00  0.00     0.072 C 
BRANCH  26  31
HETATM   31  C   UNL     1      28.426  39.648  49.230  1.00  0.00     0.042 C 
HETATM   32  C   UNL     1      27.394  38.540  49.375  1.00  0.00     0.010 C 
ENDBRANCH  26  31
ENDBRANCH   1  22
BRANCH   3  33
HETATM   33  C   UNL     1      25.702  47.999  49.222  1.00  0.00     0.105 A 
HETATM   34  O   UNL     1      26.815  48.616  48.721  1.00  0.00    -0.320 OA
HETATM   35  C   UNL     1      26.411  49.788  48.168  1.00  0.00     0.142 A 
HETATM   36  C   UNL     1      25.049  49.932  48.285  1.00  0.00     0.027 A 
HETATM   37  C   UNL     1      24.590  48.779  48.967  1.00  0.00     0.041 A 
ENDBRANCH   3  33
TORSDOF 7
ENDMDL
MODEL 2
REMARK VINA RESULT:     -11.0      2.092      8.458
REMARK  7 active torsions:
REMARK  status: ('A' for Active; 'I' for Inactive)
REMARK    1  A    between atoms: C_2  and  C_3 
REMARK    2  A    between atoms: C_7  and  N_8 
REMARK    3  A    between atoms: C_10  and  C_11 
REMARK    4  A    between atoms: C_17  and  N_18 
REMARK       I    between atoms: N_18  and  C_19 
REMARK    5  A    between atoms: C_19  and  C_20 
REMARK    6  A    between atoms: C_20  and  O_21 
REMARK    7  A    between atoms: O_21  and  C_22 
ROOT
HETATM    1  N   UNL     1      27.936  42.433  52.702  1.00  0.00    -0.044 N 
HETATM    2  N   UNL     1      28.814  41.506  52.211  1.00  0.00    -0.148 NA
HETATM    3  C   UNL     1      28.116  40.849  51.278  1.00  0.00     0.115 A 
HETATM    4  C   UNL     1      26.805  41.345  51.145  1.00  0.00     0.087 A 
HETATM    5  C   UNL     1      26.683  42.320  52.107  1.00  0.00     0.152 A 
ENDROOT
BRANCH   5   6
HETATM    6  N   UNL     1      25.533  43.078  52.251  1.00  0.00    -0.309 N 
HETATM    7  C   UNL     1      25.075  44.112  51.367  1.00  0.00     0.247 C 
HETATM    8  O   UNL     1      23.888  44.391  51.469  1.00  0.00    -0.271 OA
HETATM    9  H   UNL     1      24.955  42.946  53.074  1.00  0.00     0.170 HD
BRANCH   7  10
HETATM   10  C   UNL     1      26.067  44.913  50.544  1.00  0.00     0.278 C 
BRANCH  10  11
HETATM   11  O   UNL     1      26.137  46.214  51.124  1.00  0.00    -0.342 OA
BRANCH  11  12
HETATM   12  C   UNL     1      25.813  47.266  50.312  1.00  0.00     0.070 A 
HETATM   13  C   UNL     1      24.442  47.483  50.152  1.00  0.00     0.049 A 
HETATM   14  C   UNL     1      23.959  48.529  49.345  1.00  0.00    -0.023 A 
HETATM   15  C   UNL     1      24.880  49.375  48.691  1.00  0.00    -0.026 A 
HETATM   16  C   UNL     1      22.582  48.750  49.172  1.00  0.00     0.012 A 
HETATM   17  C   UNL     1      26.254  49.152  48.863  1.00  0.00     0.015 A 
HETATM   18  C   UNL     1      24.403  50.421  47.884  1.00  0.00     0.012 A 
HETATM   19  C   UNL     1      26.720  48.107  49.668  1.00  0.00     0.037 A 
HETATM   20  C   UNL     1      23.032  50.628  47.723  1.00  0.00     0.001 A 
HETATM   21  C   UNL     1      22.123  49.793  48.367  1.00  0.00     0.001 A 
ENDBRANCH  11  12
ENDBRANCH  10  11
ENDBRANCH   7  10
ENDBRANCH   5   6
BRANCH   1  22
HETATM   22  C   UNL     1      28.412  43.390  53.617  1.00  0.00     0.732 A 
HETATM   23  N   UNL     1      29.463  42.915  54.343  1.00  0.00    -0.152 N 
HETATM   24  C   UNL     1      30.119  43.693  55.241  1.00  0.00     0.268 A 
HETATM   25  H   UNL     1      29.830  41.986  54.156  1.00  0.00     0.188 HD
HETATM   26  C   UNL     1      29.530  45.043  55.464  1.00  0.00     0.035 A 
HETATM   27  O   UNL     1      31.124  43.302  55.821  1.00  0.00    -0.267 OA
HETATM   28  C   UNL     1      28.465  45.389  54.707  1.00  0.00     0.061 A 
HETATM   29  N   UNL     1      27.905  44.571  53.743  1.00  0.00    -0.067 NA
HETATM   30  C   UNL     1      27.771  46.723  54.827  1.00  0.00     0.072 C 
BRANCH  26  31
HETATM   31  C   UNL     1      30.169  45.861  56.557  1.00  0.00     0.042 C 
HETATM   32  C   UNL     1      29.337  45.869  57.831  1.00  0.00     0.010 C 
ENDBRANCH  26  31
ENDBRANCH   1  22
BRANCH   3  33
HETATM   33  C   UNL     1      28.688  39.723  50.486  1.00  0.00     0.105 A 
HETATM   34  O   UNL     1      29.468  38.731  51.014  1.00  0.00    -0.320 OA
HETATM   35  C   UNL     1      29.818  37.908  49.993  1.00  0.00     0.142 A 
HETATM   36  C   UNL     1      29.261  38.340  48.813  1.00  0.00     0.027 A 
HETATM   37  C   UNL     1      28.534  39.512  49.129  1.00  0.00     0.041 A 
ENDBRANCH   3  33
TORSDOF 7
ENDMDL
MODEL 3
REMARK VINA RESULT:     -10.9      0.947      1.488
REMARK  7 active torsions:
REMARK  status: ('A' for Active; 'I' for Inactive)
REMARK    1  A    between atoms: C_2  and  C_3 
REMARK    2  A    between atoms: C_7  and  N_8 
REMARK    3  A    between atoms: C_10  and  C_11 
REMARK    4  A    between atoms: C_17  and  N_18 
REMARK       I    between atoms: N_18  and  C_19 
REMARK    5  A    between atoms: C_19  and  C_20 
REMARK    6  A    between atoms: C_20  and  O_21 
REMARK    7  A    between atoms: O_21  and  C_22 
ROOT
HETATM    1  N   UNL     1      26.409  44.539  50.170  1.00  0.00    -0.044 N 
HETATM    2  N   UNL     1      26.773  45.565  49.344  1.00  0.00    -0.148 NA
HETATM    3  C   UNL     1      26.256  46.655  49.920  1.00  0.00     0.115 A 
HETATM    4  C   UNL     1      25.575  46.354  51.116  1.00  0.00     0.087 A 
HETATM    5  C   UNL     1      25.629  44.985  51.232  1.00  0.00     0.152 A 
ENDROOT
BRANCH   5   6
HETATM    6  N   UNL     1      25.102  44.314  52.324  1.00  0.00    -0.309 N 
HETATM    7  C   UNL     1      25.272  44.665  53.705  1.00  0.00     0.247 C 
HETATM    8  O   UNL     1      24.446  44.179  54.466  1.00  0.00    -0.271 OA
HETATM    9  H   UNL     1      24.575  43.461  52.171  1.00  0.00     0.170 HD
BRANCH   7  10
HETATM   10  C   UNL     1      26.515  45.404  54.162  1.00  0.00     0.278 C 
BRANCH  10  11
HETATM   11  O   UNL     1      27.624  44.816  53.485  1.00  0.00    -0.342 OA
BRANCH  11  12
HETATM   12  C   UNL     1      28.681  44.424  54.262  1.00  0.00     0.070 A 
HETATM   13  C   UNL     1      28.848  45.160  55.439  1.00  0.00     0.049 A 
HETATM   14  C   UNL     1      29.892  44.872  56.335  1.00  0.00    -0.023 A 
HETATM   15  C   UNL     1      30.782  43.817  56.039  1.00  0.00    -0.026 A 
HETATM   16  C   UNL     1      30.072  45.610  57.517  1.00  0.00     0.012 A 
HETATM   17  C   UNL     1      30.602  43.082  54.859  1.00  0.00     0.015 A 
HETATM   18  C   UNL     1      31.827  43.526  56.932  1.00  0.00     0.012 A 
HETATM   19  C   UNL     1      29.559  43.380  53.976  1.00  0.00     0.037 A 
HETATM   20  C   UNL     1      31.992  44.267  58.102  1.00  0.00     0.001 A 
HETATM   21  C   UNL     1      31.115  45.308  58.394  1.00  0.00     0.001 A 
ENDBRANCH  11  12
ENDBRANCH  10  11
ENDBRANCH   7  10
ENDBRANCH   5   6
BRANCH   1  22
HETATM   22  C   UNL     1      26.923  43.254  49.913  1.00  0.00     0.732 A 
HETATM   23  N   UNL     1      27.437  42.682  51.038  1.00  0.00    -0.152 N 
HETATM   24  C   UNL     1      27.929  41.417  51.034  1.00  0.00     0.268 A 
HETATM   25  H   UNL     1      27.380  43.170  51.927  1.00  0.00     0.188 HD
HETATM   26  C   UNL     1      27.983  40.759  49.697  1.00  0.00     0.035 A 
HETATM   27  O   UNL     1      28.299  40.865  52.062  1.00  0.00    -0.267 OA
HETATM   28  C   UNL     1      27.472  41.441  48.648  1.00  0.00     0.061 A 
HETATM   29  N   UNL     1      26.903  42.697  48.748  1.00  0.00    -0.067 NA
HETATM   30  C   UNL     1      27.461  40.895  47.242  1.00  0.00     0.072 C 
BRANCH  26  31
HETATM   31  C   UNL     1      28.653  39.409  49.662  1.00  0.00     0.042 C 
HETATM   32  C   UNL     1      27.648  38.268  49.704  1.00  0.00     0.010 C 
ENDBRANCH  26  31
ENDBRANCH   1  22
BRANCH   3  33
HETATM   33  C   UNL     1      26.398  48.021  49.339  1.00  0.00     0.105 A 
HETATM   34  O   UNL     1      27.592  48.673  49.193  1.00  0.00    -0.320 OA
HETATM   35  C   UNL     1      27.323  49.891  48.658  1.00  0.00     0.142 A 
HETATM   36  C   UNL     1      25.974  50.032  48.437  1.00  0.00     0.027 A 
HETATM   37  C   UNL     1      25.376  48.828  48.879  1.00  0.00     0.041 A 
ENDBRANCH   3  33
TORSDOF 7
ENDMDL
MODEL 4
REMARK VINA RESULT:     -10.5      3.606      5.250
REMARK  7 active torsions:
REMARK  status: ('A' for Active; 'I' for Inactive)
REMARK    1  A    between atoms: C_2  and  C_3 
REMARK    2  A    between atoms: C_7  and  N_8 
REMARK    3  A    between atoms: C_10  and  C_11 
REMARK    4  A    between atoms: C_17  and  N_18 
REMARK       I    between atoms: N_18  and  C_19 
REMARK    5  A    between atoms: C_19  and  C_20 
REMARK    6  A    between atoms: C_20  and  O_21 
REMARK    7  A    between atoms: O_21  and  C_22 
ROOT
HETATM    1  N   UNL     1      22.549  47.388  48.947  1.00  0.00    -0.044 N 
HETATM    2  N   UNL     1      21.313  47.971  48.941  1.00  0.00    -0.148 NA
HETATM    3  C   UNL     1      21.559  49.275  49.108  1.00  0.00     0.115 A 
HETATM    4  C   UNL     1      22.937  49.549  49.205  1.00  0.00     0.087 A 
HETATM    5  C   UNL     1      23.558  48.322  49.162  1.00  0.00     0.152 A 
ENDROOT
BRANCH   5   6
HETATM    6  N   UNL     1      24.937  48.189  49.183  1.00  0.00    -0.309 N 
HETATM    7  C   UNL     1      25.702  47.388  50.094  1.00  0.00     0.247 C 
HETATM    8  O   UNL     1      26.837  47.123  49.720  1.00  0.00    -0.271 OA
HETATM    9  H   UNL     1      25.494  48.730  48.531  1.00  0.00     0.170 HD
BRANCH   7  10
HETATM   10  C   UNL     1      25.180  47.100  51.489  1.00  0.00     0.278 C 
BRANCH  10  11
HETATM   11  O   UNL     1      25.387  45.711  51.736  1.00  0.00    -0.342 OA
BRANCH  11  12
HETATM   12  C   UNL     1      26.368  45.387  52.634  1.00  0.00     0.070 A 
HETATM   13  C   UNL     1      27.298  44.450  52.173  1.00  0.00     0.049 A 
HETATM   14  C   UNL     1      28.361  44.019  52.986  1.00  0.00    -0.023 A 
HETATM   15  C   UNL     1      28.491  44.549  54.287  1.00  0.00    -0.026 A 
HETATM   16  C   UNL     1      29.297  43.073  52.534  1.00  0.00     0.012 A 
HETATM   17  C   UNL     1      27.556  45.492  54.738  1.00  0.00     0.015 A 
HETATM   18  C   UNL     1      29.552  44.121  55.103  1.00  0.00     0.012 A 
HETATM   19  C   UNL     1      26.503  45.911  53.918  1.00  0.00     0.037 A 
HETATM   20  C   UNL     1      30.473  43.182  54.640  1.00  0.00     0.001 A 
HETATM   21  C   UNL     1      30.345  42.658  53.356  1.00  0.00     0.001 A 
ENDBRANCH  11  12
ENDBRANCH  10  11
ENDBRANCH   7  10
ENDBRANCH   5   6
BRANCH   1  22
HETATM   22  C   UNL     1      22.647  46.015  48.652  1.00  0.00     0.732 A 
HETATM   23  N   UNL     1      22.744  45.262  49.784  1.00  0.00    -0.152 N 
HETATM   24  C   UNL     1      22.784  43.906  49.737  1.00  0.00     0.268 A 
HETATM   25  H   UNL     1      22.702  45.708  50.696  1.00  0.00     0.188 HD
HETATM   26  C   UNL     1      22.844  43.318  48.368  1.00  0.00     0.035 A 
HETATM   27  O   UNL     1      22.772  43.224  50.753  1.00  0.00    -0.267 OA
HETATM   28  C   UNL     1      22.772  44.170  47.322  1.00  0.00     0.061 A 
HETATM   29  N   UNL     1      22.641  45.541  47.451  1.00  0.00    -0.067 NA
HETATM   30  C   UNL     1      22.819  43.713  45.885  1.00  0.00     0.072 C 
BRANCH  26  31
HETATM   31  C   UNL     1      23.026  41.823  48.308  1.00  0.00     0.042 C 
HETATM   32  C   UNL     1      24.488  41.418  48.415  1.00  0.00     0.010 C 
ENDBRANCH  26  31
ENDBRANCH   1  22
BRANCH   3  33
HETATM   33  C   UNL     1      20.478  50.298  49.179  1.00  0.00     0.105 A 
HETATM   34  O   UNL     1      19.341  50.164  49.927  1.00  0.00    -0.320 OA
HETATM   35  C   UNL     1      18.589  51.275  49.720  1.00  0.00     0.142 A 
HETATM   36  C   UNL     1      19.230  52.138  48.864  1.00  0.00     0.027 A 
HETATM   37  C   UNL     1      20.447  51.508  48.511  1.00  0.00     0.041 A 
ENDBRANCH   3  33
TORSDOF 7
ENDMDL
MODEL 5
REMARK VINA RESULT:     -10.5      1.980      7.502
REMARK  7 active torsions:
REMARK  status: ('A' for Active; 'I' for Inactive)
REMARK    1  A    between atoms: C_2  and  C_3 
REMARK    2  A    between atoms: C_7  and  N_8 
REMARK    3  A    between atoms: C_10  and  C_11 
REMARK    4  A    between atoms: C_17  and  N_18 
REMARK       I    between atoms: N_18  and  C_19 
REMARK    5  A    between atoms: C_19  and  C_20 
REMARK    6  A    between atoms: C_20  and  O_21 
REMARK    7  A    between atoms: O_21  and  C_22 
ROOT
HETATM    1  N   UNL     1      27.781  42.340  52.507  1.00  0.00    -0.044 N 
HETATM    2  N   UNL     1      28.940  42.462  53.221  1.00  0.00    -0.148 NA
HETATM    3  C   UNL     1      28.660  43.374  54.158  1.00  0.00     0.115 A 
HETATM    4  C   UNL     1      27.332  43.834  54.074  1.00  0.00     0.087 A 
HETATM    5  C   UNL     1      26.797  43.207  52.972  1.00  0.00     0.152 A 
ENDROOT
BRANCH   5   6
HETATM    6  N   UNL     1      25.475  43.375  52.594  1.00  0.00    -0.309 N 
HETATM    7  C   UNL     1      24.937  44.467  51.834  1.00  0.00     0.247 C 
HETATM    8  O   UNL     1      23.856  44.246  51.306  1.00  0.00    -0.271 OA
HETATM    9  H   UNL     1      24.784  42.701  52.904  1.00  0.00     0.170 HD
BRANCH   7  10
HETATM   10  C   UNL     1      25.588  45.837  51.892  1.00  0.00     0.278 C 
BRANCH  10  11
HETATM   11  O   UNL     1      26.161  46.082  50.609  1.00  0.00    -0.342 OA
BRANCH  11  12
HETATM   12  C   UNL     1      25.747  47.212  49.958  1.00  0.00     0.070 A 
HETATM   13  C   UNL     1      24.361  47.345  49.836  1.00  0.00     0.049 A 
HETATM   14  C   UNL     1      23.789  48.455  49.189  1.00  0.00    -0.023 A 
HETATM   15  C   UNL     1      24.635  49.453  48.660  1.00  0.00    -0.026 A 
HETATM   16  C   UNL     1      22.397  48.593  49.057  1.00  0.00     0.012 A 
HETATM   17  C   UNL     1      26.024  49.313  48.792  1.00  0.00     0.015 A 
HETATM   18  C   UNL     1      24.068  50.564  48.012  1.00  0.00     0.012 A 
HETATM   19  C   UNL     1      26.578  48.203  49.437  1.00  0.00     0.037 A 
HETATM   20  C   UNL     1      22.684  50.687  47.889  1.00  0.00     0.001 A 
HETATM   21  C   UNL     1      21.849  49.702  48.411  1.00  0.00     0.001 A 
ENDBRANCH  11  12
ENDBRANCH  10  11
ENDBRANCH   7  10
ENDBRANCH   5   6
BRANCH   1  22
HETATM   22  C   UNL     1      27.702  41.341  51.519  1.00  0.00     0.732 A 
HETATM   23  N   UNL     1      28.719  40.441  51.630  1.00  0.00    -0.152 N 
HETATM   24  C   UNL     1      28.803  39.356  50.818  1.00  0.00     0.268 A 
HETATM   25  H   UNL     1      29.390  40.524  52.388  1.00  0.00     0.188 HD
HETATM   26  C   UNL     1      27.788  39.296  49.729  1.00  0.00     0.035 A 
HETATM   27  O   UNL     1      29.657  38.495  50.979  1.00  0.00    -0.267 OA
HETATM   28  C   UNL     1      26.847  40.266  49.702  1.00  0.00     0.061 A 
HETATM   29  N   UNL     1      26.773  41.295  50.623  1.00  0.00    -0.067 NA
HETATM   30  C   UNL     1      25.760  40.327  48.658  1.00  0.00     0.072 C 
BRANCH  26  31
HETATM   31  C   UNL     1      27.956  38.170  48.741  1.00  0.00     0.042 C 
HETATM   32  C   UNL     1      27.095  36.966  49.091  1.00  0.00     0.010 C 
ENDBRANCH  26  31
ENDBRANCH   1  22
BRANCH   3  33
HETATM   33  C   UNL     1      29.660  43.833  55.164  1.00  0.00     0.105 A 
HETATM   34  O   UNL     1      29.653  45.072  55.744  1.00  0.00    -0.320 OA
HETATM   35  C   UNL     1      30.722  45.131  56.579  1.00  0.00     0.142 A 
HETATM   36  C   UNL     1      31.412  43.943  56.564  1.00  0.00     0.027 A 
HETATM   37  C   UNL     1      30.729  43.105  55.649  1.00  0.00     0.041 A 
ENDBRANCH   3  33
TORSDOF 7
ENDMDL
MODEL 6
REMARK VINA RESULT:     -10.0      2.700      5.669
REMARK  7 active torsions:
REMARK  status: ('A' for Active; 'I' for Inactive)
REMARK    1  A    between atoms: C_2  and  C_3 
REMARK    2  A    between atoms: C_7  and  N_8 
REMARK    3  A    between atoms: C_10  and  C_11 
REMARK    4  A    between atoms: C_17  and  N_18 
REMARK       I    between atoms: N_18  and  C_19 
REMARK    5  A    between atoms: C_19  and  C_20 
REMARK    6  A    between atoms: C_20  and  O_21 
REMARK    7  A    between atoms: O_21  and  C_22 
ROOT
HETATM    1  N   UNL     1      25.841  41.749  49.356  1.00  0.00    -0.044 N 
HETATM    2  N   UNL     1      26.748  40.844  48.878  1.00  0.00    -0.148 NA
HETATM    3  C   UNL     1      27.409  40.431  49.964  1.00  0.00     0.115 A 
HETATM    4  C   UNL     1      26.935  41.041  51.141  1.00  0.00     0.087 A 
HETATM    5  C   UNL     1      25.970  41.930  50.729  1.00  0.00     0.152 A 
ENDROOT
BRANCH   5   6
HETATM    6  N   UNL     1      25.233  42.690  51.623  1.00  0.00    -0.309 N 
HETATM    7  C   UNL     1      25.448  44.071  51.948  1.00  0.00     0.247 C 
HETATM    8  O   UNL     1      24.491  44.636  52.460  1.00  0.00    -0.271 OA
HETATM    9  H   UNL     1      24.488  42.248  52.149  1.00  0.00     0.170 HD
BRANCH   7  10
HETATM   10  C   UNL     1      26.836  44.677  51.846  1.00  0.00     0.278 C 
BRANCH  10  11
HETATM   11  O   UNL     1      27.128  45.269  53.110  1.00  0.00    -0.342 OA
BRANCH  11  12
HETATM   12  C   UNL     1      28.151  44.712  53.828  1.00  0.00     0.070 A 
HETATM   13  C   UNL     1      28.463  45.377  55.018  1.00  0.00     0.049 A 
HETATM   14  C   UNL     1      29.492  44.920  55.859  1.00  0.00    -0.023 A 
HETATM   15  C   UNL     1      30.218  43.766  55.494  1.00  0.00    -0.026 A 
HETATM   16  C   UNL     1      29.817  45.586  57.053  1.00  0.00     0.012 A 
HETATM   17  C   UNL     1      29.893  43.103  54.302  1.00  0.00     0.015 A 
HETATM   18  C   UNL     1      31.248  43.306  56.332  1.00  0.00     0.012 A 
HETATM   19  C   UNL     1      28.867  43.570  53.474  1.00  0.00     0.037 A 
HETATM   20  C   UNL     1      31.558  43.977  57.514  1.00  0.00     0.001 A 
HETATM   21  C   UNL     1      30.843  45.117  57.875  1.00  0.00     0.001 A 
ENDBRANCH  11  12
ENDBRANCH  10  11
ENDBRANCH   7  10
ENDBRANCH   5   6
BRANCH   1  22
HETATM   22  C   UNL     1      24.884  42.274  48.467  1.00  0.00     0.732 A 
HETATM   23  N   UNL     1      24.963  41.691  47.238  1.00  0.00    -0.152 N 
HETATM   24  C   UNL     1      24.091  42.000  46.244  1.00  0.00     0.268 A 
HETATM   25  H   UNL     1      25.631  40.943  47.073  1.00  0.00     0.188 HD
HETATM   26  C   UNL     1      23.139  43.103  46.554  1.00  0.00     0.035 A 
HETATM   27  O   UNL     1      24.097  41.407  45.174  1.00  0.00    -0.267 OA
HETATM   28  C   UNL     1      23.177  43.627  47.799  1.00  0.00     0.061 A 
HETATM   29  N   UNL     1      24.039  43.196  48.791  1.00  0.00    -0.067 NA
HETATM   30  C   UNL     1      22.271  44.746  48.248  1.00  0.00     0.072 C 
BRANCH  26  31
HETATM   31  C   UNL     1      22.260  43.546  45.412  1.00  0.00     0.042 C 
HETATM   32  C   UNL     1      22.896  44.661  44.596  1.00  0.00     0.010 C 
ENDBRANCH  26  31
ENDBRANCH   1  22
BRANCH   3  33
HETATM   33  C   UNL     1      28.519  39.437  49.904  1.00  0.00     0.105 A 
HETATM   34  O   UNL     1      29.135  38.907  51.005  1.00  0.00    -0.320 OA
HETATM   35  C   UNL     1      30.103  38.067  50.559  1.00  0.00     0.142 A 
HETATM   36  C   UNL     1      30.112  38.029  49.185  1.00  0.00     0.027 A 
HETATM   37  C   UNL     1      29.092  38.914  48.761  1.00  0.00     0.041 A 
ENDBRANCH   3  33
TORSDOF 7
ENDMDL
MODEL 7
REMARK VINA RESULT:      -9.9      1.432      5.714
REMARK  7 active torsions:
REMARK  status: ('A' for Active; 'I' for Inactive)
REMARK    1  A    between atoms: C_2  and  C_3 
REMARK    2  A    between atoms: C_7  and  N_8 
REMARK    3  A    between atoms: C_10  and  C_11 
REMARK    4  A    between atoms: C_17  and  N_18 
REMARK       I    between atoms: N_18  and  C_19 
REMARK    5  A    between atoms: C_19  and  C_20 
REMARK    6  A    between atoms: C_20  and  O_21 
REMARK    7  A    between atoms: O_21  and  C_22 
ROOT
HETATM    1  N   UNL     1      25.658  43.720  49.848  1.00  0.00    -0.044 N 
HETATM    2  N   UNL     1      26.204  43.086  48.767  1.00  0.00    -0.148 NA
HETATM    3  C   UNL     1      26.590  41.896  49.238  1.00  0.00     0.115 A 
HETATM    4  C   UNL     1      26.287  41.740  50.605  1.00  0.00     0.087 A 
HETATM    5  C   UNL     1      25.745  42.941  50.998  1.00  0.00     0.152 A 
ENDROOT
BRANCH   5   6
HETATM    6  N   UNL     1      25.273  43.156  52.283  1.00  0.00    -0.309 N 
HETATM    7  C   UNL     1      25.727  44.160  53.202  1.00  0.00     0.247 C 
HETATM    8  O   UNL     1      24.952  44.413  54.114  1.00  0.00    -0.271 OA
HETATM    9  H   UNL     1      24.568  42.533  52.660  1.00  0.00     0.170 HD
BRANCH   7  10
HETATM   10  C   UNL     1      27.151  44.680  53.129  1.00  0.00     0.278 C 
BRANCH  10  11
HETATM   11  O   UNL     1      27.221  45.829  53.971  1.00  0.00    -0.342 OA
BRANCH  11  12
HETATM   12  C   UNL     1      28.050  45.745  55.056  1.00  0.00     0.070 A 
HETATM   13  C   UNL     1      29.053  44.777  54.955  1.00  0.00     0.049 A 
HETATM   14  C   UNL     1      29.979  44.576  55.994  1.00  0.00    -0.023 A 
HETATM   15  C   UNL     1      29.894  45.373  57.155  1.00  0.00    -0.026 A 
HETATM   16  C   UNL     1      30.986  43.600  55.904  1.00  0.00     0.012 A 
HETATM   17  C   UNL     1      28.888  46.346  57.244  1.00  0.00     0.015 A 
HETATM   18  C   UNL     1      30.817  45.176  58.196  1.00  0.00     0.012 A 
HETATM   19  C   UNL     1      27.973  46.534  56.203  1.00  0.00     0.037 A 
HETATM   20  C   UNL     1      31.812  44.204  58.091  1.00  0.00     0.001 A 
HETATM   21  C   UNL     1      31.896  43.416  56.946  1.00  0.00     0.001 A 
ENDBRANCH  11  12
ENDBRANCH  10  11
ENDBRANCH   7  10
ENDBRANCH   5   6
BRANCH   1  22
HETATM   22  C   UNL     1      25.024  44.961  49.650  1.00  0.00     0.732 A 
HETATM   23  N   UNL     1      25.774  45.992  50.133  1.00  0.00    -0.152 N 
HETATM   24  C   UNL     1      25.384  47.285  49.992  1.00  0.00     0.268 A 
HETATM   25  H   UNL     1      26.689  45.810  50.535  1.00  0.00     0.188 HD
HETATM   26  C   UNL     1      24.032  47.480  49.394  1.00  0.00     0.035 A 
HETATM   27  O   UNL     1      26.100  48.216  50.334  1.00  0.00    -0.267 OA
HETATM   28  C   UNL     1      23.370  46.377  48.982  1.00  0.00     0.061 A 
HETATM   29  N   UNL     1      23.874  45.092  49.079  1.00  0.00    -0.067 NA
HETATM   30  C   UNL     1      21.996  46.428  48.360  1.00  0.00     0.072 C 
BRANCH  26  31
HETATM   31  C   UNL     1      23.534  48.902  49.359  1.00  0.00     0.042 C 
HETATM   32  C   UNL     1      23.913  49.611  48.067  1.00  0.00     0.010 C 
ENDBRANCH  26  31
ENDBRANCH   1  22
BRANCH   3  33
HETATM   33  C   UNL     1      27.262  40.870  48.390  1.00  0.00     0.105 A 
HETATM   34  O   UNL     1      27.088  40.758  47.038  1.00  0.00    -0.320 OA
HETATM   35  C   UNL     1      27.834  39.702  46.623  1.00  0.00     0.142 A 
HETATM   36  C   UNL     1      28.505  39.140  47.682  1.00  0.00     0.027 A 
HETATM   37  C   UNL     1      28.134  39.890  48.824  1.00  0.00     0.041 A 
ENDBRANCH   3  33
TORSDOF 7
ENDMDL
MODEL 8
REMARK VINA RESULT:      -9.7      3.375      6.965
REMARK  7 active torsions:
REMARK  status: ('A' for Active; 'I' for Inactive)
REMARK    1  A    between atoms: C_2  and  C_3 
REMARK    2  A    between atoms: C_7  and  N_8 
REMARK    3  A    between atoms: C_10  and  C_11 
REMARK    4  A    between atoms: C_17  and  N_18 
REMARK       I    between atoms: N_18  and  C_19 
REMARK    5  A    between atoms: C_19  and  C_20 
REMARK    6  A    between atoms: C_20  and  O_21 
REMARK    7  A    between atoms: O_21  and  C_22 
ROOT
HETATM    1  N   UNL     1      22.885  46.422  48.833  1.00  0.00    -0.044 N 
HETATM    2  N   UNL     1      22.516  45.369  48.043  1.00  0.00    -0.148 NA
HETATM    3  C   UNL     1      23.199  44.330  48.534  1.00  0.00     0.115 A 
HETATM    4  C   UNL     1      23.992  44.688  49.641  1.00  0.00     0.087 A 
HETATM    5  C   UNL     1      23.828  46.046  49.784  1.00  0.00     0.152 A 
ENDROOT
BRANCH   5   6
HETATM    6  N   UNL     1      24.423  46.760  50.812  1.00  0.00    -0.309 N 
HETATM    7  C   UNL     1      25.785  46.650  51.250  1.00  0.00     0.247 C 
HETATM    8  O   UNL     1      26.196  47.601  51.901  1.00  0.00    -0.271 OA
HETATM    9  H   UNL     1      23.858  47.400  51.359  1.00  0.00     0.170 HD
BRANCH   7  10
HETATM   10  C   UNL     1      26.543  45.347  51.081  1.00  0.00     0.278 C 
BRANCH  10  11
HETATM   11  O   UNL     1      26.315  44.574  52.258  1.00  0.00    -0.342 OA
BRANCH  11  12
HETATM   12  C   UNL     1      27.423  44.186  52.962  1.00  0.00     0.070 A 
HETATM   13  C   UNL     1      27.757  45.017  54.036  1.00  0.00     0.049 A 
HETATM   14  C   UNL     1      28.871  44.745  54.849  1.00  0.00    -0.023 A 
HETATM   15  C   UNL     1      29.661  43.607  54.575  1.00  0.00    -0.026 A 
HETATM   16  C   UNL     1      29.218  45.577  55.926  1.00  0.00     0.012 A 
HETATM   17  C   UNL     1      29.314  42.778  53.499  1.00  0.00     0.015 A 
HETATM   18  C   UNL     1      30.775  43.331  55.384  1.00  0.00     0.012 A 
HETATM   19  C   UNL     1      28.203  43.062  52.698  1.00  0.00     0.037 A 
HETATM   20  C   UNL     1      31.106  44.167  56.451  1.00  0.00     0.001 A 
HETATM   21  C   UNL     1      30.328  45.289  56.721  1.00  0.00     0.001 A 
ENDBRANCH  11  12
ENDBRANCH  10  11
ENDBRANCH   7  10
ENDBRANCH   5   6
BRANCH   1  22
HETATM   22  C   UNL     1      22.227  47.655  48.661  1.00  0.00     0.732 A 
HETATM   23  N   UNL     1      22.765  48.628  49.448  1.00  0.00    -0.152 N 
HETATM   24  C   UNL     1      22.326  49.911  49.396  1.00  0.00     0.268 A 
HETATM   25  H   UNL     1      23.571  48.421  50.031  1.00  0.00     0.188 HD
HETATM   26  C   UNL     1      21.143  50.144  48.520  1.00  0.00     0.035 A 
HETATM   27  O   UNL     1      22.872  50.806  50.027  1.00  0.00    -0.267 OA
HETATM   28  C   UNL     1      20.677  49.092  47.812  1.00  0.00     0.061 A 
HETATM   29  N   UNL     1      21.236  47.828  47.850  1.00  0.00    -0.067 NA
HETATM   30  C   UNL     1      19.489  49.185  46.887  1.00  0.00     0.072 C 
BRANCH  26  31
HETATM   31  C   UNL     1      20.565  51.536  48.561  1.00  0.00     0.042 C 
HETATM   32  C   UNL     1      19.462  51.670  49.600  1.00  0.00     0.010 C 
ENDBRANCH  26  31
ENDBRANCH   1  22
BRANCH   3  33
HETATM   33  C   UNL     1      23.111  42.959  47.955  1.00  0.00     0.105 A 
HETATM   34  O   UNL     1      22.465  41.912  48.553  1.00  0.00    -0.320 OA
HETATM   35  C   UNL     1      22.621  40.830  47.748  1.00  0.00     0.142 A 
HETATM   36  C   UNL     1      23.341  41.163  46.627  1.00  0.00     0.027 A 
HETATM   37  C   UNL     1      23.661  42.536  46.760  1.00  0.00     0.041 A 
ENDBRANCH   3  33
TORSDOF 7
ENDMDL
MODEL 9
REMARK VINA RESULT:      -9.6      3.641      8.685
REMARK  7 active torsions:
REMARK  status: ('A' for Active; 'I' for Inactive)
REMARK    1  A    between atoms: C_2  and  C_3 
REMARK    2  A    between atoms: C_7  and  N_8 
REMARK    3  A    between atoms: C_10  and  C_11 
REMARK    4  A    between atoms: C_17  and  N_18 
REMARK       I    between atoms: N_18  and  C_19 
REMARK    5  A    between atoms: C_19  and  C_20 
REMARK    6  A    between atoms: C_20  and  O_21 
REMARK    7  A    between atoms: O_21  and  C_22 
ROOT
HETATM    1  N   UNL     1      25.120  46.534  50.713  1.00  0.00    -0.044 N 
HETATM    2  N   UNL     1      24.698  47.827  50.578  1.00  0.00    -0.148 NA
HETATM    3  C   UNL     1      23.937  47.815  49.479  1.00  0.00     0.115 A 
HETATM    4  C   UNL     1      23.845  46.532  48.907  1.00  0.00     0.087 A 
HETATM    5  C   UNL     1      24.659  45.731  49.674  1.00  0.00     0.152 A 
ENDROOT
BRANCH   5   6
HETATM    6  N   UNL     1      24.789  44.371  49.445  1.00  0.00    -0.309 N 
HETATM    7  C   UNL     1      23.736  43.460  49.097  1.00  0.00     0.247 C 
HETATM    8  O   UNL     1      24.108  42.411  48.589  1.00  0.00    -0.271 OA
HETATM    9  H   UNL     1      25.696  43.935  49.568  1.00  0.00     0.170 HD
BRANCH   7  10
HETATM   10  C   UNL     1      22.310  43.729  49.541  1.00  0.00     0.278 C 
BRANCH  10  11
HETATM   11  O   UNL     1      21.495  43.702  48.371  1.00  0.00    -0.342 OA
BRANCH  11  12
HETATM   12  C   UNL     1      21.058  44.910  47.899  1.00  0.00     0.070 A 
HETATM   13  C   UNL     1      20.356  45.683  48.828  1.00  0.00     0.049 A 
HETATM   14  C   UNL     1      19.845  46.948  48.485  1.00  0.00    -0.023 A 
HETATM   15  C   UNL     1      20.052  47.442  47.179  1.00  0.00    -0.026 A 
HETATM   16  C   UNL     1      19.133  47.729  49.410  1.00  0.00     0.012 A 
HETATM   17  C   UNL     1      20.762  46.660  46.257  1.00  0.00     0.015 A 
HETATM   18  C   UNL     1      19.543  48.705  46.832  1.00  0.00     0.012 A 
HETATM   19  C   UNL     1      21.264  45.404  46.612  1.00  0.00     0.037 A 
HETATM   20  C   UNL     1      18.838  49.469  47.762  1.00  0.00     0.001 A 
HETATM   21  C   UNL     1      18.633  48.982  49.050  1.00  0.00     0.001 A 
ENDBRANCH  11  12
ENDBRANCH  10  11
ENDBRANCH   7  10
ENDBRANCH   5   6
BRANCH   1  22
HETATM   22  C   UNL     1      25.840  46.179  51.869  1.00  0.00     0.732 A 
HETATM   23  N   UNL     1      25.630  47.063  52.885  1.00  0.00    -0.152 N 
HETATM   24  C   UNL     1      26.176  46.880  54.114  1.00  0.00     0.268 A 
HETATM   25  H   UNL     1      24.984  47.837  52.759  1.00  0.00     0.188 HD
HETATM   26  C   UNL     1      27.113  45.727  54.229  1.00  0.00     0.035 A 
HETATM   27  O   UNL     1      25.910  47.617  55.055  1.00  0.00    -0.267 OA
HETATM   28  C   UNL     1      27.265  44.939  53.142  1.00  0.00     0.061 A 
HETATM   29  N   UNL     1      26.602  45.139  51.945  1.00  0.00    -0.067 NA
HETATM   30  C   UNL     1      28.179  43.739  53.119  1.00  0.00     0.072 C 
BRANCH  26  31
HETATM   31  C   UNL     1      27.828  45.597  55.550  1.00  0.00     0.042 C 
HETATM   32  C   UNL     1      29.185  46.283  55.538  1.00  0.00     0.010 C 
ENDBRANCH  26  31
ENDBRANCH   1  22
BRANCH   3  33
HETATM   33  C   UNL     1      23.273  49.038  48.943  1.00  0.00     0.105 A 
HETATM   34  O   UNL     1      23.525  49.570  47.708  1.00  0.00    -0.320 OA
HETATM   35  C   UNL     1      22.759  50.684  47.586  1.00  0.00     0.142 A 
HETATM   36  C   UNL     1      21.999  50.872  48.714  1.00  0.00     0.027 A 
HETATM   37  C   UNL     1      22.331  49.812  49.592  1.00  0.00     0.041 A 
ENDBRANCH   3  33
TORSDOF 7
ENDMDL
MODEL 10
REMARK VINA RESULT:      -9.6      2.538      3.215
REMARK  7 active torsions:
REMARK  status: ('A' for Active; 'I' for Inactive)
REMARK    1  A    between atoms: C_2  and  C_3 
REMARK    2  A    between atoms: C_7  and  N_8 
REMARK    3  A    between atoms: C_10  and  C_11 
REMARK    4  A    between atoms: C_17  and  N_18 
REMARK       I    between atoms: N_18  and  C_19 
REMARK    5  A    between atoms: C_19  and  C_20 
REMARK    6  A    between atoms: C_20  and  O_21 
REMARK    7  A    between atoms: O_21  and  C_22 
ROOT
HETATM    1  N   UNL     1      25.012  42.275  49.738  1.00  0.00    -0.044 N 
HETATM    2  N   UNL     1      24.623  42.631  48.476  1.00  0.00    -0.148 NA
HETATM    3  C   UNL     1      23.824  43.687  48.660  1.00  0.00     0.115 A 
HETATM    4  C   UNL     1      23.701  44.032  50.020  1.00  0.00     0.087 A 
HETATM    5  C   UNL     1      24.420  43.081  50.705  1.00  0.00     0.152 A 
ENDROOT
BRANCH   5   6
HETATM    6  N   UNL     1      24.574  43.119  52.082  1.00  0.00    -0.309 N 
HETATM    7  C   UNL     1      25.271  44.122  52.835  1.00  0.00     0.247 C 
HETATM    8  O   UNL     1      24.982  44.169  54.023  1.00  0.00    -0.271 OA
HETATM    9  H   UNL     1      24.207  42.356  52.639  1.00  0.00     0.170 HD
BRANCH   7  10
HETATM   10  C   UNL     1      26.422  44.888  52.211  1.00  0.00     0.278 C 
BRANCH  10  11
HETATM   11  O   UNL     1      27.623  44.208  52.570  1.00  0.00    -0.342 OA
BRANCH  11  12
HETATM   12  C   UNL     1      28.238  44.614  53.723  1.00  0.00     0.070 A 
HETATM   13  C   UNL     1      29.206  43.733  54.214  1.00  0.00     0.049 A 
HETATM   14  C   UNL     1      29.921  44.018  55.391  1.00  0.00    -0.023 A 
HETATM   15  C   UNL     1      29.655  45.219  56.083  1.00  0.00    -0.026 A 
HETATM   16  C   UNL     1      30.890  43.135  55.895  1.00  0.00     0.012 A 
HETATM   17  C   UNL     1      28.687  46.099  55.579  1.00  0.00     0.015 A 
HETATM   18  C   UNL     1      30.367  45.508  57.259  1.00  0.00     0.012 A 
HETATM   19  C   UNL     1      27.983  45.802  54.407  1.00  0.00     0.037 A 
HETATM   20  C   UNL     1      31.327  44.621  57.747  1.00  0.00     0.001 A 
HETATM   21  C   UNL     1      31.588  43.436  57.066  1.00  0.00     0.001 A 
ENDBRANCH  11  12
ENDBRANCH  10  11
ENDBRANCH   7  10
ENDBRANCH   5   6
BRANCH   1  22
HETATM   22  C   UNL     1      25.983  41.266  49.883  1.00  0.00     0.732 A 
HETATM   23  N   UNL     1      27.027  41.678  50.656  1.00  0.00    -0.152 N 
HETATM   24  C   UNL     1      28.047  40.843  50.980  1.00  0.00     0.268 A 
HETATM   25  H   UNL     1      27.013  42.602  51.077  1.00  0.00     0.188 HD
HETATM   26  C   UNL     1      28.004  39.503  50.328  1.00  0.00     0.035 A 
HETATM   27  O   UNL     1      28.934  41.178  51.754  1.00  0.00    -0.267 OA
HETATM   28  C   UNL     1      26.932  39.222  49.555  1.00  0.00     0.061 A 
HETATM   29  N   UNL     1      25.883  40.097  49.343  1.00  0.00    -0.067 NA
HETATM   30  C   UNL     1      26.760  37.906  48.838  1.00  0.00     0.072 C 
BRANCH  26  31
HETATM   31  C   UNL     1      29.202  38.620  50.574  1.00  0.00     0.042 C 
HETATM   32  C   UNL     1      30.074  38.478  49.336  1.00  0.00     0.010 C 
ENDBRANCH  26  31
ENDBRANCH   1  22
BRANCH   3  33
HETATM   33  C   UNL     1      23.152  44.397  47.534  1.00  0.00     0.105 A 
HETATM   34  O   UNL     1      23.239  44.015  46.224  1.00  0.00    -0.320 OA
HETATM   35  C   UNL     1      22.524  44.910  45.495  1.00  0.00     0.142 A 
HETATM   36  C   UNL     1      21.959  45.856  46.315  1.00  0.00     0.027 A 
HETATM   37  C   UNL     1      22.365  45.529  47.631  1.00  0.00     0.041 A 
ENDBRANCH   3  33
TORSDOF 7
ENDMDL
