MODEL 1
REMARK VINA RESULT:      -8.1      0.000      0.000
REMARK  2 active torsions:
REMARK  status: ('A' for Active; 'I' for Inactive)
REMARK    1  A    between atoms: C_8  and  S_9 
REMARK    2  A    between atoms: S_9  and  C_10 
ROOT
HETATM    1  C   UNL     1      30.893  43.342  55.679  1.00  0.00     0.002 A 
HETATM    2  C   UNL     1      29.771  43.267  54.853  1.00  0.00     0.034 A 
HETATM    3  C   UNL     1      28.882  44.328  54.746  1.00  0.00     0.087 A 
HETATM    4  C   UNL     1      29.126  45.513  55.490  1.00  0.00     0.087 A 
HETATM    5  N   UNL     1      28.293  46.569  55.419  1.00  0.00    -0.232 NA
HETATM    6  C   UNL     1      27.237  46.462  54.581  1.00  0.00     0.164 A 
HETATM    7 CL   UNL     1      26.205  47.829  54.616  1.00  0.00    -0.059 Cl
HETATM    8  C   UNL     1      27.001  45.307  53.858  1.00  0.00     0.165 A 
HETATM    9  N   UNL     1      27.804  44.214  53.943  1.00  0.00    -0.234 NA
HETATM   10  C   UNL     1      30.244  45.572  56.311  1.00  0.00     0.034 A 
HETATM   11  C   UNL     1      31.129  44.498  56.412  1.00  0.00     0.002 A 
ENDROOT
BRANCH   8  12
HETATM   12  S   UNL     1      25.654  44.963  52.743  1.00  0.00     0.076 S 
HETATM   13  O   UNL     1      24.608  44.193  53.486  1.00  0.00    -0.251 OA
BRANCH  12  14
HETATM   14  C   UNL     1      26.507  43.776  51.627  1.00  0.00     0.089 C 
HETATM   15  C   UNL     1      27.281  44.502  50.520  1.00  0.00     0.045 C 
HETATM   16  C   UNL     1      26.365  45.181  49.511  1.00  0.00     0.233 C 
HETATM   17  N   UNL     1      25.394  44.185  48.971  1.00  0.00    -0.075 N 
HETATM   18  H   UNL     1      25.891  43.482  48.406  1.00  0.00     0.277 HD
HETATM   19  H   UNL     1      24.764  44.662  48.308  1.00  0.00     0.277 HD
HETATM   20  C   UNL     1      24.562  43.499  50.007  1.00  0.00     0.233 C 
HETATM   21  C   UNL     1      25.479  42.815  51.011  1.00  0.00     0.045 C 
ENDBRANCH  12  14
ENDBRANCH   8  12
TORSDOF 2
ENDMDL
MODEL 2
REMARK VINA RESULT:      -7.7      1.331      1.462
REMARK  2 active torsions:
REMARK  status: ('A' for Active; 'I' for Inactive)
REMARK    1  A    between atoms: C_8  and  S_9 
REMARK    2  A    between atoms: S_9  and  C_10 
ROOT
HETATM    1  C   UNL     1      30.585  43.053  55.037  1.00  0.00     0.002 A 
HETATM    2  C   UNL     1      29.401  43.241  54.324  1.00  0.00     0.034 A 
HETATM    3  C   UNL     1      28.648  44.399  54.470  1.00  0.00     0.087 A 
HETATM    4  C   UNL     1      29.097  45.409  55.361  1.00  0.00     0.087 A 
HETATM    5  N   UNL     1      28.401  46.549  55.536  1.00  0.00    -0.232 NA
HETATM    6  C   UNL     1      27.277  46.701  54.801  1.00  0.00     0.164 A 
HETATM    7 CL   UNL     1      26.432  48.150  55.147  1.00  0.00    -0.059 Cl
HETATM    8  C   UNL     1      26.841  45.716  53.934  1.00  0.00     0.165 A 
HETATM    9  N   UNL     1      27.504  44.541  53.769  1.00  0.00    -0.234 NA
HETATM   10  C   UNL     1      30.276  45.207  56.067  1.00  0.00     0.034 A 
HETATM   11  C   UNL     1      31.023  44.039  55.913  1.00  0.00     0.002 A 
ENDROOT
BRANCH   8  12
HETATM   12  S   UNL     1      25.378  45.713  52.917  1.00  0.00     0.076 S 
HETATM   13  O   UNL     1      24.732  44.367  53.018  1.00  0.00    -0.251 OA
BRANCH  12  14
HETATM   14  C   UNL     1      26.180  45.805  51.265  1.00  0.00     0.089 C 
HETATM   15  C   UNL     1      26.069  47.209  50.663  1.00  0.00     0.045 C 
HETATM   16  C   UNL     1      24.642  47.569  50.268  1.00  0.00     0.233 C 
HETATM   17  N   UNL     1      24.096  46.514  49.365  1.00  0.00    -0.075 N 
HETATM   18  H   UNL     1      24.601  46.524  48.467  1.00  0.00     0.277 HD
HETATM   19  H   UNL     1      23.122  46.755  49.125  1.00  0.00     0.277 HD
HETATM   20  C   UNL     1      24.116  45.132  49.935  1.00  0.00     0.233 C 
HETATM   21  C   UNL     1      25.543  44.772  50.323  1.00  0.00     0.045 C 
ENDBRANCH  12  14
ENDBRANCH   8  12
TORSDOF 2
ENDMDL
MODEL 3
REMARK VINA RESULT:      -7.3      2.130      2.746
REMARK  2 active torsions:
REMARK  status: ('A' for Active; 'I' for Inactive)
REMARK    1  A    between atoms: C_8  and  S_9 
REMARK    2  A    between atoms: S_9  and  C_10 
ROOT
HETATM    1  C   UNL     1      30.305  45.369  56.374  1.00  0.00     0.002 A 
HETATM    2  C   UNL     1      29.125  45.678  55.698  1.00  0.00     0.034 A 
HETATM    3  C   UNL     1      28.624  44.846  54.705  1.00  0.00     0.087 A 
HETATM    4  C   UNL     1      29.327  43.657  54.378  1.00  0.00     0.087 A 
HETATM    5  N   UNL     1      28.881  42.818  53.424  1.00  0.00    -0.232 NA
HETATM    6  C   UNL     1      27.717  43.143  52.817  1.00  0.00     0.164 A 
HETATM    7 CL   UNL     1      27.273  42.050  51.575  1.00  0.00    -0.059 Cl
HETATM    8  C   UNL     1      27.033  44.302  53.136  1.00  0.00     0.165 A 
HETATM    9  N   UNL     1      27.484  45.184  54.067  1.00  0.00    -0.234 NA
HETATM   10  C   UNL     1      30.503  43.363  55.057  1.00  0.00     0.034 A 
HETATM   11  C   UNL     1      30.997  44.208  56.051  1.00  0.00     0.002 A 
ENDROOT
BRANCH   8  12
HETATM   12  S   UNL     1      25.519  44.917  52.428  1.00  0.00     0.076 S 
HETATM   13  O   UNL     1      24.596  43.761  52.203  1.00  0.00    -0.251 OA
BRANCH  12  14
HETATM   14  C   UNL     1      26.161  45.424  50.781  1.00  0.00     0.089 C 
HETATM   15  C   UNL     1      26.141  46.948  50.614  1.00  0.00     0.045 C 
HETATM   16  C   UNL     1      24.729  47.510  50.515  1.00  0.00     0.233 C 
HETATM   17  N   UNL     1      23.988  46.805  49.428  1.00  0.00    -0.075 N 
HETATM   18  H   UNL     1      24.402  47.038  48.514  1.00  0.00     0.277 HD
HETATM   19  H   UNL     1      23.027  47.176  49.387  1.00  0.00     0.277 HD
HETATM   20  C   UNL     1      23.918  45.320  49.582  1.00  0.00     0.233 C 
HETATM   21  C   UNL     1      25.329  44.759  49.674  1.00  0.00     0.045 C 
ENDBRANCH  12  14
ENDBRANCH   8  12
TORSDOF 2
ENDMDL
MODEL 4
REMARK VINA RESULT:      -7.2      4.302      7.693
REMARK  2 active torsions:
REMARK  status: ('A' for Active; 'I' for Inactive)
REMARK    1  A    between atoms: C_8  and  S_9 
REMARK    2  A    between atoms: S_9  and  C_10 
ROOT
HETATM    1  C   UNL     1      21.418  49.363  48.261  1.00  0.00     0.002 A 
HETATM    2  C   UNL     1      22.179  48.365  48.870  1.00  0.00     0.034 A 
HETATM    3  C   UNL     1      23.559  48.473  48.974  1.00  0.00     0.087 A 
HETATM    4  C   UNL     1      24.204  49.626  48.455  1.00  0.00     0.087 A 
HETATM    5  N   UNL     1      25.540  49.777  48.532  1.00  0.00    -0.232 NA
HETATM    6  C   UNL     1      26.233  48.799  49.158  1.00  0.00     0.164 A 
HETATM    7 CL   UNL     1      27.927  49.053  49.143  1.00  0.00    -0.059 Cl
HETATM    8  C   UNL     1      25.603  47.676  49.663  1.00  0.00     0.165 A 
HETATM    9  N   UNL     1      24.262  47.482  49.562  1.00  0.00    -0.234 NA
HETATM   10  C   UNL     1      23.435  50.611  47.848  1.00  0.00     0.034 A 
HETATM   11  C   UNL     1      22.049  50.489  47.748  1.00  0.00     0.002 A 
ENDROOT
BRANCH   8  12
HETATM   12  S   UNL     1      26.340  46.273  50.478  1.00  0.00     0.076 S 
HETATM   13  O   UNL     1      26.161  45.070  49.606  1.00  0.00    -0.251 OA
BRANCH  12  14
HETATM   14  C   UNL     1      25.160  46.106  51.878  1.00  0.00     0.089 C 
HETATM   15  C   UNL     1      25.574  46.976  53.070  1.00  0.00     0.045 C 
HETATM   16  C   UNL     1      26.842  46.477  53.751  1.00  0.00     0.233 C 
HETATM   17  N   UNL     1      26.674  45.041  54.121  1.00  0.00    -0.075 N 
HETATM   18  H   UNL     1      25.958  44.950  54.856  1.00  0.00     0.277 HD
HETATM   19  H   UNL     1      27.547  44.707  54.558  1.00  0.00     0.277 HD
HETATM   20  C   UNL     1      26.339  44.137  52.979  1.00  0.00     0.233 C 
HETATM   21  C   UNL     1      25.068  44.633  52.305  1.00  0.00     0.045 C 
ENDBRANCH  12  14
ENDBRANCH   8  12
TORSDOF 2
ENDMDL
MODEL 5
REMARK VINA RESULT:      -6.9      1.754      2.218
REMARK  2 active torsions:
REMARK  status: ('A' for Active; 'I' for Inactive)
REMARK    1  A    between atoms: C_8  and  S_9 
REMARK    2  A    between atoms: S_9  and  C_10 
ROOT
HETATM    1  C   UNL     1      31.529  43.525  56.686  1.00  0.00     0.002 A 
HETATM    2  C   UNL     1      30.693  43.760  55.595  1.00  0.00     0.034 A 
HETATM    3  C   UNL     1      29.723  44.753  55.631  1.00  0.00     0.087 A 
HETATM    4  C   UNL     1      29.586  45.545  56.802  1.00  0.00     0.087 A 
HETATM    5  N   UNL     1      28.660  46.519  56.885  1.00  0.00    -0.232 NA
HETATM    6  C   UNL     1      27.894  46.733  55.792  1.00  0.00     0.164 A 
HETATM    7 CL   UNL     1      26.706  47.945  56.023  1.00  0.00    -0.059 Cl
HETATM    8  C   UNL     1      28.028  45.961  54.652  1.00  0.00     0.165 A 
HETATM    9  N   UNL     1      28.927  44.946  54.558  1.00  0.00    -0.234 NA
HETATM   10  C   UNL     1      30.423  45.297  57.882  1.00  0.00     0.034 A 
HETATM   11  C   UNL     1      31.392  44.295  57.834  1.00  0.00     0.002 A 
ENDROOT
BRANCH   8  12
HETATM   12  S   UNL     1      27.094  46.060  53.138  1.00  0.00     0.076 S 
HETATM   13  O   UNL     1      26.476  47.420  53.051  1.00  0.00    -0.251 OA
BRANCH  12  14
HETATM   14  C   UNL     1      25.747  44.881  53.558  1.00  0.00     0.089 C 
HETATM   15  C   UNL     1      26.302  43.503  53.934  1.00  0.00     0.045 C 
HETATM   16  C   UNL     1      26.914  42.772  52.747  1.00  0.00     0.233 C 
HETATM   17  N   UNL     1      25.918  42.704  51.638  1.00  0.00    -0.075 N 
HETATM   18  H   UNL     1      25.130  42.098  51.911  1.00  0.00     0.277 HD
HETATM   19  H   UNL     1      26.352  42.229  50.831  1.00  0.00     0.277 HD
HETATM   20  C   UNL     1      25.397  44.029  51.184  1.00  0.00     0.233 C 
HETATM   21  C   UNL     1      24.780  44.756  52.370  1.00  0.00     0.045 C 
ENDBRANCH  12  14
ENDBRANCH   8  12
TORSDOF 2
ENDMDL
MODEL 6
REMARK VINA RESULT:      -6.7     13.188     14.284
REMARK  2 active torsions:
REMARK  status: ('A' for Active; 'I' for Inactive)
REMARK    1  A    between atoms: C_8  and  S_9 
REMARK    2  A    between atoms: S_9  and  C_10 
ROOT
HETATM    1  C   UNL     1      37.196  50.896  40.721  1.00  0.00     0.002 A 
HETATM    2  C   UNL     1      35.908  50.362  40.751  1.00  0.00     0.034 A 
HETATM    3  C   UNL     1      34.997  50.732  41.731  1.00  0.00     0.087 A 
HETATM    4  C   UNL     1      35.386  51.676  42.718  1.00  0.00     0.087 A 
HETATM    5  N   UNL     1      34.537  52.066  43.688  1.00  0.00    -0.232 NA
HETATM    6  C   UNL     1      33.290  51.545  43.658  1.00  0.00     0.164 A 
HETATM    7 CL   UNL     1      32.313  52.052  44.971  1.00  0.00    -0.059 Cl
HETATM    8  C   UNL     1      32.913  50.625  42.697  1.00  0.00     0.165 A 
HETATM    9  N   UNL     1      33.762  50.186  41.732  1.00  0.00    -0.234 NA
HETATM   10  C   UNL     1      36.673  52.197  42.678  1.00  0.00     0.034 A 
HETATM   11  C   UNL     1      37.580  51.816  41.689  1.00  0.00     0.002 A 
ENDROOT
BRANCH   8  12
HETATM   12  S   UNL     1      31.342  49.804  42.516  1.00  0.00     0.076 S 
HETATM   13  O   UNL     1      31.594  48.364  42.195  1.00  0.00    -0.251 OA
BRANCH  12  14
HETATM   14  C   UNL     1      30.775  50.613  40.965  1.00  0.00     0.089 C 
HETATM   15  C   UNL     1      30.783  52.140  41.092  1.00  0.00     0.045 C 
HETATM   16  C   UNL     1      29.715  52.656  42.048  1.00  0.00     0.233 C 
HETATM   17  N   UNL     1      28.383  52.123  41.640  1.00  0.00    -0.075 N 
HETATM   18  H   UNL     1      28.106  52.526  40.733  1.00  0.00     0.277 HD
HETATM   19  H   UNL     1      27.673  52.458  42.309  1.00  0.00     0.277 HD
HETATM   20  C   UNL     1      28.302  50.632  41.570  1.00  0.00     0.233 C 
HETATM   21  C   UNL     1      29.365  50.118  40.610  1.00  0.00     0.045 C 
ENDBRANCH  12  14
ENDBRANCH   8  12
TORSDOF 2
ENDMDL
MODEL 7
REMARK VINA RESULT:      -6.7      2.347      2.889
REMARK  2 active torsions:
REMARK  status: ('A' for Active; 'I' for Inactive)
REMARK    1  A    between atoms: C_8  and  S_9 
REMARK    2  A    between atoms: S_9  and  C_10 
ROOT
HETATM    1  C   UNL     1      30.392  44.046  55.546  1.00  0.00     0.002 A 
HETATM    2  C   UNL     1      30.015  43.459  54.339  1.00  0.00     0.034 A 
HETATM    3  C   UNL     1      28.916  43.920  53.625  1.00  0.00     0.087 A 
HETATM    4  C   UNL     1      28.168  45.014  54.135  1.00  0.00     0.087 A 
HETATM    5  N   UNL     1      27.096  45.496  53.479  1.00  0.00    -0.232 NA
HETATM    6  C   UNL     1      26.787  44.917  52.298  1.00  0.00     0.164 A 
HETATM    7 CL   UNL     1      25.370  45.557  51.579  1.00  0.00    -0.059 Cl
HETATM    8  C   UNL     1      27.516  43.851  51.802  1.00  0.00     0.165 A 
HETATM    9  N   UNL     1      28.578  43.321  52.464  1.00  0.00    -0.234 NA
HETATM   10  C   UNL     1      28.553  45.586  55.341  1.00  0.00     0.034 A 
HETATM   11  C   UNL     1      29.657  45.113  56.050  1.00  0.00     0.002 A 
ENDROOT
BRANCH   8  12
HETATM   12  S   UNL     1      27.244  42.936  50.298  1.00  0.00     0.076 S 
HETATM   13  O   UNL     1      26.704  43.873  49.264  1.00  0.00    -0.251 OA
BRANCH  12  14
HETATM   14  C   UNL     1      25.845  41.882  50.856  1.00  0.00     0.089 C 
HETATM   15  C   UNL     1      26.167  40.392  50.701  1.00  0.00     0.045 C 
HETATM   16  C   UNL     1      26.243  39.955  49.244  1.00  0.00     0.233 C 
HETATM   17  N   UNL     1      24.986  40.345  48.541  1.00  0.00    -0.075 N 
HETATM   18  H   UNL     1      24.194  39.800  48.912  1.00  0.00     0.277 HD
HETATM   19  H   UNL     1      25.060  40.066  47.551  1.00  0.00     0.277 HD
HETATM   20  C   UNL     1      24.664  41.803  48.602  1.00  0.00     0.233 C 
HETATM   21  C   UNL     1      24.580  42.237  50.058  1.00  0.00     0.045 C 
ENDBRANCH  12  14
ENDBRANCH   8  12
TORSDOF 2
ENDMDL
MODEL 8
REMARK VINA RESULT:      -6.6     13.833     15.129
REMARK  2 active torsions:
REMARK  status: ('A' for Active; 'I' for Inactive)
REMARK    1  A    between atoms: C_8  and  S_9 
REMARK    2  A    between atoms: S_9  and  C_10 
ROOT
HETATM    1  C   UNL     1      36.040  52.526  40.442  1.00  0.00     0.002 A 
HETATM    2  C   UNL     1      34.842  52.189  39.813  1.00  0.00     0.034 A 
HETATM    3  C   UNL     1      33.881  51.421  40.457  1.00  0.00     0.087 A 
HETATM    4  C   UNL     1      34.125  50.977  41.783  1.00  0.00     0.087 A 
HETATM    5  N   UNL     1      33.223  50.231  42.450  1.00  0.00    -0.232 NA
HETATM    6  C   UNL     1      32.063  49.955  41.812  1.00  0.00     0.164 A 
HETATM    7 CL   UNL     1      31.016  48.946  42.718  1.00  0.00    -0.059 Cl
HETATM    8  C   UNL     1      31.827  50.389  40.520  1.00  0.00     0.165 A 
HETATM    9  N   UNL     1      32.737  51.109  39.813  1.00  0.00    -0.234 NA
HETATM   10  C   UNL     1      35.324  51.317  42.396  1.00  0.00     0.034 A 
HETATM   11  C   UNL     1      36.283  52.086  41.737  1.00  0.00     0.002 A 
ENDROOT
BRANCH   8  12
HETATM   12  S   UNL     1      30.391  50.097  39.507  1.00  0.00     0.076 S 
HETATM   13  O   UNL     1      30.804  50.163  38.070  1.00  0.00    -0.251 OA
BRANCH  12  14
HETATM   14  C   UNL     1      29.465  51.642  39.875  1.00  0.00     0.089 C 
HETATM   15  C   UNL     1      28.794  51.582  41.251  1.00  0.00     0.045 C 
HETATM   16  C   UNL     1      27.644  50.583  41.301  1.00  0.00     0.233 C 
HETATM   17  N   UNL     1      26.677  50.884  40.205  1.00  0.00    -0.075 N 
HETATM   18  H   UNL     1      26.216  51.788  40.383  1.00  0.00     0.277 HD
HETATM   19  H   UNL     1      25.917  50.187  40.234  1.00  0.00     0.277 HD
HETATM   20  C   UNL     1      27.269  50.885  38.833  1.00  0.00     0.233 C 
HETATM   21  C   UNL     1      28.413  51.888  38.782  1.00  0.00     0.045 C 
ENDBRANCH  12  14
ENDBRANCH   8  12
TORSDOF 2
ENDMDL
MODEL 9
REMARK VINA RESULT:      -6.6      2.891      3.986
REMARK  2 active torsions:
REMARK  status: ('A' for Active; 'I' for Inactive)
REMARK    1  A    between atoms: C_8  and  S_9 
REMARK    2  A    between atoms: S_9  and  C_10 
ROOT
HETATM    1  C   UNL     1      26.173  47.736  54.506  1.00  0.00     0.002 A 
HETATM    2  C   UNL     1      25.991  47.014  53.328  1.00  0.00     0.034 A 
HETATM    3  C   UNL     1      26.745  45.880  53.052  1.00  0.00     0.087 A 
HETATM    4  C   UNL     1      27.717  45.450  53.994  1.00  0.00     0.087 A 
HETATM    5  N   UNL     1      28.472  44.358  53.773  1.00  0.00    -0.232 NA
HETATM    6  C   UNL     1      28.239  43.672  52.632  1.00  0.00     0.164 A 
HETATM    7 CL   UNL     1      29.297  42.341  52.413  1.00  0.00    -0.059 Cl
HETATM    8  C   UNL     1      27.293  44.092  51.715  1.00  0.00     0.165 A 
HETATM    9  N   UNL     1      26.546  45.213  51.897  1.00  0.00    -0.234 NA
HETATM   10  C   UNL     1      27.890  46.181  55.163  1.00  0.00     0.034 A 
HETATM   11  C   UNL     1      27.127  47.319  55.426  1.00  0.00     0.002 A 
ENDROOT
BRANCH   8  12
HETATM   12  S   UNL     1      26.872  43.352  50.150  1.00  0.00     0.076 S 
HETATM   13  O   UNL     1      26.132  44.363  49.332  1.00  0.00    -0.251 OA
BRANCH  12  14
HETATM   14  C   UNL     1      25.636  42.125  50.740  1.00  0.00     0.089 C 
HETATM   15  C   UNL     1      26.275  40.752  50.977  1.00  0.00     0.045 C 
HETATM   16  C   UNL     1      26.705  40.072  49.684  1.00  0.00     0.233 C 
HETATM   17  N   UNL     1      25.546  40.009  48.747  1.00  0.00    -0.075 N 
HETATM   18  H   UNL     1      24.826  39.375  49.122  1.00  0.00     0.277 HD
HETATM   19  H   UNL     1      25.856  39.569  47.866  1.00  0.00     0.277 HD
HETATM   20  C   UNL     1      24.930  41.332  48.426  1.00  0.00     0.233 C 
HETATM   21  C   UNL     1      24.495  42.008  49.718  1.00  0.00     0.045 C 
ENDBRANCH  12  14
ENDBRANCH   8  12
TORSDOF 2
ENDMDL
MODEL 10
REMARK VINA RESULT:      -6.5     13.471     15.608
REMARK  2 active torsions:
REMARK  status: ('A' for Active; 'I' for Inactive)
REMARK    1  A    between atoms: C_8  and  S_9 
REMARK    2  A    between atoms: S_9  and  C_10 
ROOT
HETATM    1  C   UNL     1      25.009  48.302  39.571  1.00  0.00     0.002 A 
HETATM    2  C   UNL     1      26.321  48.200  40.033  1.00  0.00     0.034 A 
HETATM    3  C   UNL     1      27.331  49.004  39.519  1.00  0.00     0.087 A 
HETATM    4  C   UNL     1      27.016  49.948  38.507  1.00  0.00     0.087 A 
HETATM    5  N   UNL     1      27.960  50.749  37.978  1.00  0.00    -0.232 NA
HETATM    6  C   UNL     1      29.211  50.637  38.479  1.00  0.00     0.164 A 
HETATM    7 CL   UNL     1      30.349  51.649  37.693  1.00  0.00    -0.059 Cl
HETATM    8  C   UNL     1      29.517  49.716  39.464  1.00  0.00     0.165 A 
HETATM    9  N   UNL     1      28.590  48.870  39.986  1.00  0.00    -0.234 NA
HETATM   10  C   UNL     1      25.706  50.037  38.054  1.00  0.00     0.034 A 
HETATM   11  C   UNL     1      24.701  49.223  38.577  1.00  0.00     0.002 A 
ENDROOT
BRANCH   8  12
HETATM   12  S   UNL     1      31.099  49.393  40.217  1.00  0.00     0.076 S 
HETATM   13  O   UNL     1      31.287  47.912  40.308  1.00  0.00    -0.251 OA
BRANCH  12  14
HETATM   14  C   UNL     1      30.733  49.997  41.915  1.00  0.00     0.089 C 
HETATM   15  C   UNL     1      30.349  51.481  41.914  1.00  0.00     0.045 C 
HETATM   16  C   UNL     1      31.521  52.391  41.571  1.00  0.00     0.233 C 
HETATM   17  N   UNL     1      32.663  52.096  42.486  1.00  0.00    -0.075 N 
HETATM   18  H   UNL     1      32.421  52.371  43.449  1.00  0.00     0.277 HD
HETATM   19  H   UNL     1      33.458  52.701  42.228  1.00  0.00     0.277 HD
HETATM   20  C   UNL     1      33.124  50.675  42.471  1.00  0.00     0.233 C 
HETATM   21  C   UNL     1      31.953  49.766  42.820  1.00  0.00     0.045 C 
ENDBRANCH  12  14
ENDBRANCH   8  12
TORSDOF 2
ENDMDL
