MODEL 1
REMARK VINA RESULT:      -9.2      0.000      0.000
REMARK  5 active torsions:
REMARK  status: ('A' for Active; 'I' for Inactive)
REMARK    1  A    between atoms: C_6  and  O_7 
REMARK    2  A    between atoms: O_7  and  C_8 
REMARK    3  A    between atoms: C_8  and  C_9 
REMARK       I    between atoms: C_9  and  N_10 
REMARK    4  A    between atoms: N_10  and  N_11 
REMARK    5  A    between atoms: C_12  and  C_13 
ROOT
HETATM    1  C   UNL     1      26.153  44.505  51.048  1.00  0.00     0.261 C 
HETATM    2  N   UNL     1      26.994  45.284  50.270  1.00  0.00    -0.246 N 
HETATM    3  O   UNL     1      24.938  44.672  51.160  1.00  0.00    -0.269 OA
HETATM    4  H   UNL     1      27.994  45.100  50.259  1.00  0.00     0.192 HD
ENDROOT
BRANCH   2   5
HETATM    5  N   UNL     1      26.447  46.284  49.529  1.00  0.00    -0.184 NA
HETATM    6  C   UNL     1      26.489  47.483  50.005  1.00  0.00     0.152 C 
BRANCH   6   7
HETATM    7  C   UNL     1      25.934  48.564  49.211  1.00  0.00     0.011 A 
HETATM    8  C   UNL     1      24.556  48.901  48.979  1.00  0.00     0.004 A 
HETATM    9  C   UNL     1      24.532  50.010  48.131  1.00  0.00     0.043 A 
HETATM   10  C   UNL     1      23.321  48.367  49.408  1.00  0.00     0.014 A 
HETATM   11  C   UNL     1      23.342  50.605  47.692  1.00  0.00     0.030 A 
HETATM   12  N   UNL     1      25.840  50.340  47.861  1.00  0.00    -0.364 N 
HETATM   13  C   UNL     1      22.136  50.053  48.133  1.00  0.00     0.002 A 
HETATM   14  C   UNL     1      22.123  48.949  48.980  1.00  0.00     0.001 A 
HETATM   15  H   UNL     1      26.121  51.108  47.266  1.00  0.00     0.165 HD
HETATM   16  C   UNL     1      26.692  49.480  48.504  1.00  0.00     0.102 A 
ENDBRANCH   6   7
ENDBRANCH   2   5
BRANCH   1  17
HETATM   17  C   UNL     1      26.838  43.327  51.729  1.00  0.00     0.280 C 
BRANCH  17  18
HETATM   18  O   UNL     1      26.597  43.241  53.135  1.00  0.00    -0.340 OA
BRANCH  18  19
HETATM   19  C   UNL     1      27.768  43.472  53.822  1.00  0.00     0.092 A 
HETATM   20  C   UNL     1      27.977  44.727  54.410  1.00  0.00     0.045 A 
HETATM   21  C   UNL     1      29.120  44.963  55.178  1.00  0.00     0.028 A 
HETATM   22 BR   UNL     1      26.713  46.130  54.220  1.00  0.00    -0.048 Br
HETATM   23  C   UNL     1      30.074  43.955  55.348  1.00  0.00    -0.060 A 
HETATM   24  C   UNL     1      31.265  44.169  56.237  1.00  0.00     0.048 C 
HETATM   25  C   UNL     1      29.876  42.714  54.727  1.00  0.00     0.016 A 
HETATM   26  C   UNL     1      28.743  42.468  53.934  1.00  0.00    -0.027 A 
HETATM   27  C   UNL     1      28.593  41.122  53.284  1.00  0.00     0.051 C 
ENDBRANCH  18  19
ENDBRANCH  17  18
ENDBRANCH   1  17
TORSDOF 5
ENDMDL
MODEL 2
REMARK VINA RESULT:      -9.1      1.868      2.372
REMARK  5 active torsions:
REMARK  status: ('A' for Active; 'I' for Inactive)
REMARK    1  A    between atoms: C_6  and  O_7 
REMARK    2  A    between atoms: O_7  and  C_8 
REMARK    3  A    between atoms: C_8  and  C_9 
REMARK       I    between atoms: C_9  and  N_10 
REMARK    4  A    between atoms: N_10  and  N_11 
REMARK    5  A    between atoms: C_12  and  C_13 
ROOT
HETATM    1  C   UNL     1      25.653  44.464  53.016  1.00  0.00     0.261 C 
HETATM    2  N   UNL     1      25.837  45.226  51.873  1.00  0.00    -0.246 N 
HETATM    3  O   UNL     1      24.563  44.221  53.535  1.00  0.00    -0.269 OA
HETATM    4  H   UNL     1      26.775  45.408  51.527  1.00  0.00     0.192 HD
ENDROOT
BRANCH   2   5
HETATM    5  N   UNL     1      24.738  45.709  51.234  1.00  0.00    -0.184 NA
HETATM    6  C   UNL     1      24.917  46.381  50.147  1.00  0.00     0.152 C 
BRANCH   6   7
HETATM    7  C   UNL     1      23.751  46.878  49.440  1.00  0.00     0.011 A 
HETATM    8  C   UNL     1      23.504  48.194  48.915  1.00  0.00     0.004 A 
HETATM    9  C   UNL     1      22.232  48.184  48.339  1.00  0.00     0.043 A 
HETATM   10  C   UNL     1      24.241  49.397  48.877  1.00  0.00     0.014 A 
HETATM   11  C   UNL     1      21.664  49.312  47.733  1.00  0.00     0.030 A 
HETATM   12  N   UNL     1      21.726  46.915  48.499  1.00  0.00    -0.364 N 
HETATM   13  C   UNL     1      22.418  50.489  47.711  1.00  0.00     0.002 A 
HETATM   14  C   UNL     1      23.690  50.534  48.275  1.00  0.00     0.001 A 
HETATM   15  H   UNL     1      20.814  46.622  48.177  1.00  0.00     0.165 HD
HETATM   16  C   UNL     1      22.628  46.121  49.158  1.00  0.00     0.102 A 
ENDBRANCH   6   7
ENDBRANCH   2   5
BRANCH   1  17
HETATM   17  C   UNL     1      26.930  43.853  53.576  1.00  0.00     0.280 C 
BRANCH  17  18
HETATM   18  O   UNL     1      28.122  44.564  53.231  1.00  0.00    -0.340 OA
BRANCH  18  19
HETATM   19  C   UNL     1      29.056  44.416  54.231  1.00  0.00     0.092 A 
HETATM   20  C   UNL     1      29.112  45.366  55.260  1.00  0.00     0.045 A 
HETATM   21  C   UNL     1      29.997  45.198  56.328  1.00  0.00     0.028 A 
HETATM   22 BR   UNL     1      27.975  46.885  55.263  1.00  0.00    -0.048 Br
HETATM   23  C   UNL     1      30.849  44.089  56.368  1.00  0.00    -0.060 A 
HETATM   24  C   UNL     1      31.745  43.854  57.549  1.00  0.00     0.048 C 
HETATM   25  C   UNL     1      30.813  43.162  55.318  1.00  0.00     0.016 A 
HETATM   26  C   UNL     1      29.945  43.328  54.226  1.00  0.00    -0.027 A 
HETATM   27  C   UNL     1      29.962  42.306  53.124  1.00  0.00     0.051 C 
ENDBRANCH  18  19
ENDBRANCH  17  18
ENDBRANCH   1  17
TORSDOF 5
ENDMDL
MODEL 3
REMARK VINA RESULT:      -9.0      1.446      1.943
REMARK  5 active torsions:
REMARK  status: ('A' for Active; 'I' for Inactive)
REMARK    1  A    between atoms: C_6  and  O_7 
REMARK    2  A    between atoms: O_7  and  C_8 
REMARK    3  A    between atoms: C_8  and  C_9 
REMARK       I    between atoms: C_9  and  N_10 
REMARK    4  A    between atoms: N_10  and  N_11 
REMARK    5  A    between atoms: C_12  and  C_13 
ROOT
HETATM    1  C   UNL     1      26.647  44.199  50.131  1.00  0.00     0.261 C 
HETATM    2  N   UNL     1      27.409  45.355  50.110  1.00  0.00    -0.246 N 
HETATM    3  O   UNL     1      25.561  44.057  49.568  1.00  0.00    -0.269 OA
HETATM    4  H   UNL     1      28.281  45.402  50.630  1.00  0.00     0.192 HD
ENDROOT
BRANCH   2   5
HETATM    5  N   UNL     1      26.963  46.410  49.375  1.00  0.00    -0.184 NA
HETATM    6  C   UNL     1      26.318  47.344  49.988  1.00  0.00     0.152 C 
BRANCH   6   7
HETATM    7  C   UNL     1      25.862  48.489  49.222  1.00  0.00     0.011 A 
HETATM    8  C   UNL     1      24.519  48.957  49.006  1.00  0.00     0.004 A 
HETATM    9  C   UNL     1      24.594  50.082  48.183  1.00  0.00     0.043 A 
HETATM   10  C   UNL     1      23.243  48.529  49.432  1.00  0.00     0.014 A 
HETATM   11  C   UNL     1      23.462  50.794  47.765  1.00  0.00     0.030 A 
HETATM   12  N   UNL     1      25.925  50.296  47.912  1.00  0.00    -0.364 N 
HETATM   13  C   UNL     1      22.212  50.345  48.202  1.00  0.00     0.002 A 
HETATM   14  C   UNL     1      22.101  49.228  49.025  1.00  0.00     0.001 A 
HETATM   15  H   UNL     1      26.273  51.048  47.332  1.00  0.00     0.165 HD
HETATM   16  C   UNL     1      26.697  49.348  48.530  1.00  0.00     0.102 A 
ENDBRANCH   6   7
ENDBRANCH   2   5
BRANCH   1  17
HETATM   17  C   UNL     1      27.297  43.032  50.863  1.00  0.00     0.280 C 
BRANCH  17  18
HETATM   18  O   UNL     1      26.763  42.787  52.167  1.00  0.00    -0.340 OA
BRANCH  18  19
HETATM   19  C   UNL     1      27.690  43.142  53.121  1.00  0.00     0.092 A 
HETATM   20  C   UNL     1      28.748  42.268  53.404  1.00  0.00     0.045 A 
HETATM   21  C   UNL     1      29.745  42.638  54.311  1.00  0.00     0.028 A 
HETATM   22 BR   UNL     1      28.889  40.579  52.550  1.00  0.00    -0.048 Br
HETATM   23  C   UNL     1      29.683  43.876  54.958  1.00  0.00    -0.060 A 
HETATM   24  C   UNL     1      30.789  44.320  55.872  1.00  0.00     0.048 C 
HETATM   25  C   UNL     1      28.602  44.731  54.698  1.00  0.00     0.016 A 
HETATM   26  C   UNL     1      27.581  44.364  53.806  1.00  0.00    -0.027 A 
HETATM   27  C   UNL     1      26.442  45.317  53.577  1.00  0.00     0.051 C 
ENDBRANCH  18  19
ENDBRANCH  17  18
ENDBRANCH   1  17
TORSDOF 5
ENDMDL
MODEL 4
REMARK VINA RESULT:      -8.8      1.229      1.508
REMARK  5 active torsions:
REMARK  status: ('A' for Active; 'I' for Inactive)
REMARK    1  A    between atoms: C_6  and  O_7 
REMARK    2  A    between atoms: O_7  and  C_8 
REMARK    3  A    between atoms: C_8  and  C_9 
REMARK       I    between atoms: C_9  and  N_10 
REMARK    4  A    between atoms: N_10  and  N_11 
REMARK    5  A    between atoms: C_12  and  C_13 
ROOT
HETATM    1  C   UNL     1      25.677  45.724  51.740  1.00  0.00     0.261 C 
HETATM    2  N   UNL     1      26.165  46.968  51.375  1.00  0.00    -0.246 N 
HETATM    3  O   UNL     1      24.505  45.364  51.629  1.00  0.00    -0.269 OA
HETATM    4  H   UNL     1      27.142  47.199  51.532  1.00  0.00     0.192 HD
ENDROOT
BRANCH   2   5
HETATM    5  N   UNL     1      25.308  47.856  50.804  1.00  0.00    -0.184 NA
HETATM    6  C   UNL     1      25.338  47.986  49.520  1.00  0.00     0.152 C 
BRANCH   6   7
HETATM    7  C   UNL     1      24.409  48.908  48.894  1.00  0.00     0.011 A 
HETATM    8  C   UNL     1      23.000  48.749  48.653  1.00  0.00     0.004 A 
HETATM    9  C   UNL     1      22.553  49.903  48.006  1.00  0.00     0.043 A 
HETATM   10  C   UNL     1      22.061  47.730  48.919  1.00  0.00     0.014 A 
HETATM   11  C   UNL     1      21.220  50.085  47.614  1.00  0.00     0.030 A 
HETATM   12  N   UNL     1      23.639  50.734  47.865  1.00  0.00    -0.364 N 
HETATM   13  C   UNL     1      20.313  49.058  47.891  1.00  0.00     0.002 A 
HETATM   14  C   UNL     1      20.725  47.895  48.535  1.00  0.00     0.001 A 
HETATM   15  H   UNL     1      23.605  51.644  47.425  1.00  0.00     0.165 HD
HETATM   16  C   UNL     1      24.760  50.150  48.395  1.00  0.00     0.102 A 
ENDBRANCH   6   7
ENDBRANCH   2   5
BRANCH   1  17
HETATM   17  C   UNL     1      26.740  44.754  52.240  1.00  0.00     0.280 C 
BRANCH  17  18
HETATM   18  O   UNL     1      26.569  44.346  53.599  1.00  0.00    -0.340 OA
BRANCH  18  19
HETATM   19  C   UNL     1      27.800  44.212  54.202  1.00  0.00     0.092 A 
HETATM   20  C   UNL     1      28.340  45.301  54.900  1.00  0.00     0.045 A 
HETATM   21  C   UNL     1      29.550  45.168  55.586  1.00  0.00     0.028 A 
HETATM   22 BR   UNL     1      27.442  46.971  54.972  1.00  0.00    -0.048 Br
HETATM   23  C   UNL     1      30.242  43.953  55.564  1.00  0.00    -0.060 A 
HETATM   24  C   UNL     1      31.500  43.772  56.362  1.00  0.00     0.048 C 
HETATM   25  C   UNL     1      29.714  42.879  54.833  1.00  0.00     0.016 A 
HETATM   26  C   UNL     1      28.510  43.003  54.120  1.00  0.00    -0.027 A 
HETATM   27  C   UNL     1      28.001  41.820  53.345  1.00  0.00     0.051 C 
ENDBRANCH  18  19
ENDBRANCH  17  18
ENDBRANCH   1  17
TORSDOF 5
ENDMDL
MODEL 5
REMARK VINA RESULT:      -8.5      2.627      9.439
REMARK  5 active torsions:
REMARK  status: ('A' for Active; 'I' for Inactive)
REMARK    1  A    between atoms: C_6  and  O_7 
REMARK    2  A    between atoms: O_7  and  C_8 
REMARK    3  A    between atoms: C_8  and  C_9 
REMARK       I    between atoms: C_9  and  N_10 
REMARK    4  A    between atoms: N_10  and  N_11 
REMARK    5  A    between atoms: C_12  and  C_13 
ROOT
HETATM    1  C   UNL     1      25.215  46.433  50.291  1.00  0.00     0.261 C 
HETATM    2  N   UNL     1      25.328  46.068  51.622  1.00  0.00    -0.246 N 
HETATM    3  O   UNL     1      26.074  46.239  49.430  1.00  0.00    -0.269 OA
HETATM    4  H   UNL     1      24.585  46.294  52.278  1.00  0.00     0.192 HD
ENDROOT
BRANCH   2   5
HETATM    5  N   UNL     1      26.445  45.400  52.017  1.00  0.00    -0.184 NA
HETATM    6  C   UNL     1      26.366  44.659  53.071  1.00  0.00     0.152 C 
BRANCH   6   7
HETATM    7  C   UNL     1      27.543  43.918  53.487  1.00  0.00     0.011 A 
HETATM    8  C   UNL     1      28.572  44.302  54.414  1.00  0.00     0.004 A 
HETATM    9  C   UNL     1      29.501  43.260  54.465  1.00  0.00     0.043 A 
HETATM   10  C   UNL     1      28.807  45.440  55.215  1.00  0.00     0.014 A 
HETATM   11  C   UNL     1      30.646  43.302  55.270  1.00  0.00     0.030 A 
HETATM   12  N   UNL     1      29.054  42.279  53.611  1.00  0.00    -0.364 N 
HETATM   13  C   UNL     1      30.851  44.443  56.052  1.00  0.00     0.002 A 
HETATM   14  C   UNL     1      29.945  45.499  56.027  1.00  0.00     0.001 A 
HETATM   15  H   UNL     1      29.536  41.406  53.447  1.00  0.00     0.165 HD
HETATM   16  C   UNL     1      27.879  42.661  53.018  1.00  0.00     0.102 A 
ENDBRANCH   6   7
ENDBRANCH   2   5
BRANCH   1  17
HETATM   17  C   UNL     1      23.872  47.048  49.919  1.00  0.00     0.280 C 
BRANCH  17  18
HETATM   18  O   UNL     1      23.761  47.427  48.545  1.00  0.00    -0.340 OA
BRANCH  18  19
HETATM   19  C   UNL     1      22.910  48.503  48.429  1.00  0.00     0.092 A 
HETATM   20  C   UNL     1      21.529  48.276  48.353  1.00  0.00     0.045 A 
HETATM   21  C   UNL     1      20.639  49.352  48.313  1.00  0.00     0.028 A 
HETATM   22 BR   UNL     1      20.817  46.516  48.338  1.00  0.00    -0.048 Br
HETATM   23  C   UNL     1      21.120  50.665  48.329  1.00  0.00    -0.060 A 
HETATM   24  C   UNL     1      20.173  51.828  48.369  1.00  0.00     0.048 C 
HETATM   25  C   UNL     1      22.504  50.885  48.367  1.00  0.00     0.016 A 
HETATM   26  C   UNL     1      23.413  49.814  48.385  1.00  0.00    -0.027 A 
HETATM   27  C   UNL     1      24.885  50.113  48.415  1.00  0.00     0.051 C 
ENDBRANCH  18  19
ENDBRANCH  17  18
ENDBRANCH   1  17
TORSDOF 5
ENDMDL
MODEL 6
REMARK VINA RESULT:      -8.4      3.178      9.442
REMARK  5 active torsions:
REMARK  status: ('A' for Active; 'I' for Inactive)
REMARK    1  A    between atoms: C_6  and  O_7 
REMARK    2  A    between atoms: O_7  and  C_8 
REMARK    3  A    between atoms: C_8  and  C_9 
REMARK       I    between atoms: C_9  and  N_10 
REMARK    4  A    between atoms: N_10  and  N_11 
REMARK    5  A    between atoms: C_12  and  C_13 
ROOT
HETATM    1  C   UNL     1      23.478  46.248  49.126  1.00  0.00     0.261 C 
HETATM    2  N   UNL     1      24.124  46.845  50.195  1.00  0.00    -0.246 N 
HETATM    3  O   UNL     1      23.809  45.182  48.606  1.00  0.00    -0.269 OA
HETATM    4  H   UNL     1      23.808  47.745  50.545  1.00  0.00     0.192 HD
ENDROOT
BRANCH   2   5
HETATM    5  N   UNL     1      25.178  46.195  50.759  1.00  0.00    -0.184 NA
HETATM    6  C   UNL     1      25.139  45.967  52.029  1.00  0.00     0.152 C 
BRANCH   6   7
HETATM    7  C   UNL     1      26.243  45.248  52.638  1.00  0.00     0.011 A 
HETATM    8  C   UNL     1      27.097  45.652  53.721  1.00  0.00     0.004 A 
HETATM    9  C   UNL     1      28.023  44.628  53.930  1.00  0.00     0.043 A 
HETATM   10  C   UNL     1      27.175  46.796  54.546  1.00  0.00     0.014 A 
HETATM   11  C   UNL     1      29.017  44.692  54.915  1.00  0.00     0.030 A 
HETATM   12  N   UNL     1      27.742  43.638  53.018  1.00  0.00    -0.364 N 
HETATM   13  C   UNL     1      29.069  45.837  55.716  1.00  0.00     0.002 A 
HETATM   14  C   UNL     1      28.161  46.877  55.535  1.00  0.00     0.001 A 
HETATM   15  H   UNL     1      28.261  42.773  52.941  1.00  0.00     0.165 HD
HETATM   16  C   UNL     1      26.675  43.997  52.236  1.00  0.00     0.102 A 
ENDBRANCH   6   7
ENDBRANCH   2   5
BRANCH   1  17
HETATM   17  C   UNL     1      22.229  46.983  48.657  1.00  0.00     0.280 C 
BRANCH  17  18
HETATM   18  O   UNL     1      22.452  47.883  47.569  1.00  0.00    -0.340 OA
BRANCH  18  19
HETATM   19  C   UNL     1      21.684  49.013  47.738  1.00  0.00     0.092 A 
HETATM   20  C   UNL     1      20.333  48.982  47.367  1.00  0.00     0.045 A 
HETATM   21  C   UNL     1      19.513  50.089  47.600  1.00  0.00     0.028 A 
HETATM   22 BR   UNL     1      19.562  47.439  46.575  1.00  0.00    -0.048 Br
HETATM   23  C   UNL     1      20.038  51.244  48.186  1.00  0.00    -0.060 A 
HETATM   24  C   UNL     1      19.151  52.409  48.516  1.00  0.00     0.048 C 
HETATM   25  C   UNL     1      21.399  51.282  48.521  1.00  0.00     0.016 A 
HETATM   26  C   UNL     1      22.242  50.186  48.274  1.00  0.00    -0.027 A 
HETATM   27  C   UNL     1      23.695  50.290  48.644  1.00  0.00     0.051 C 
ENDBRANCH  18  19
ENDBRANCH  17  18
ENDBRANCH   1  17
TORSDOF 5
ENDMDL
MODEL 7
REMARK VINA RESULT:      -8.4      2.187      2.954
REMARK  5 active torsions:
REMARK  status: ('A' for Active; 'I' for Inactive)
REMARK    1  A    between atoms: C_6  and  O_7 
REMARK    2  A    between atoms: O_7  and  C_8 
REMARK    3  A    between atoms: C_8  and  C_9 
REMARK       I    between atoms: C_9  and  N_10 
REMARK    4  A    between atoms: N_10  and  N_11 
REMARK    5  A    between atoms: C_12  and  C_13 
ROOT
HETATM    1  C   UNL     1      25.572  44.864  52.880  1.00  0.00     0.261 C 
HETATM    2  N   UNL     1      25.900  45.980  52.128  1.00  0.00    -0.246 N 
HETATM    3  O   UNL     1      24.440  44.393  52.989  1.00  0.00    -0.269 OA
HETATM    4  H   UNL     1      26.855  46.327  52.118  1.00  0.00     0.192 HD
ENDROOT
BRANCH   2   5
HETATM    5  N   UNL     1      24.918  46.585  51.408  1.00  0.00    -0.184 NA
HETATM    6  C   UNL     1      25.169  46.893  50.180  1.00  0.00     0.152 C 
BRANCH   6   7
HETATM    7  C   UNL     1      24.120  47.513  49.391  1.00  0.00     0.011 A 
HETATM    8  C   UNL     1      22.979  46.902  48.764  1.00  0.00     0.004 A 
HETATM    9  C   UNL     1      22.274  47.910  48.104  1.00  0.00     0.043 A 
HETATM   10  C   UNL     1      22.478  45.584  48.692  1.00  0.00     0.014 A 
HETATM   11  C   UNL     1      21.102  47.665  47.377  1.00  0.00     0.030 A 
HETATM   12  N   UNL     1      22.951  49.087  48.323  1.00  0.00    -0.364 N 
HETATM   13  C   UNL     1      20.630  46.350  47.323  1.00  0.00     0.002 A 
HETATM   14  C   UNL     1      21.308  45.322  47.972  1.00  0.00     0.001 A 
HETATM   15  H   UNL     1      22.664  49.984  47.956  1.00  0.00     0.165 HD
HETATM   16  C   UNL     1      24.061  48.863  49.095  1.00  0.00     0.102 A 
ENDBRANCH   6   7
ENDBRANCH   2   5
BRANCH   1  17
HETATM   17  C   UNL     1      26.763  44.177  53.536  1.00  0.00     0.280 C 
BRANCH  17  18
HETATM   18  O   UNL     1      28.021  44.800  53.267  1.00  0.00    -0.340 OA
BRANCH  18  19
HETATM   19  C   UNL     1      28.911  44.503  54.274  1.00  0.00     0.092 A 
HETATM   20  C   UNL     1      29.599  43.282  54.238  1.00  0.00     0.045 A 
HETATM   21  C   UNL     1      30.564  42.989  55.205  1.00  0.00     0.028 A 
HETATM   22 BR   UNL     1      29.278  42.007  52.870  1.00  0.00    -0.048 Br
HETATM   23  C   UNL     1      30.837  43.903  56.228  1.00  0.00    -0.060 A 
HETATM   24  C   UNL     1      31.928  43.635  57.224  1.00  0.00     0.048 C 
HETATM   25  C   UNL     1      30.119  45.106  56.279  1.00  0.00     0.016 A 
HETATM   26  C   UNL     1      29.130  45.406  55.328  1.00  0.00    -0.027 A 
HETATM   27  C   UNL     1      28.385  46.706  55.442  1.00  0.00     0.051 C 
ENDBRANCH  18  19
ENDBRANCH  17  18
ENDBRANCH   1  17
TORSDOF 5
ENDMDL
MODEL 8
REMARK VINA RESULT:      -8.4      2.773      8.698
REMARK  5 active torsions:
REMARK  status: ('A' for Active; 'I' for Inactive)
REMARK    1  A    between atoms: C_6  and  O_7 
REMARK    2  A    between atoms: O_7  and  C_8 
REMARK    3  A    between atoms: C_8  and  C_9 
REMARK       I    between atoms: C_9  and  N_10 
REMARK    4  A    between atoms: N_10  and  N_11 
REMARK    5  A    between atoms: C_12  and  C_13 
ROOT
HETATM    1  C   UNL     1      25.374  43.866  52.361  1.00  0.00     0.261 C 
HETATM    2  N   UNL     1      26.673  43.493  52.665  1.00  0.00    -0.246 N 
HETATM    3  O   UNL     1      24.617  44.473  53.119  1.00  0.00    -0.269 OA
HETATM    4  H   UNL     1      27.222  42.963  51.994  1.00  0.00     0.192 HD
ENDROOT
BRANCH   2   5
HETATM    5  N   UNL     1      27.185  43.860  53.871  1.00  0.00    -0.184 NA
HETATM    6  C   UNL     1      28.057  44.811  53.894  1.00  0.00     0.152 C 
BRANCH   6   7
HETATM    7  C   UNL     1      28.590  45.231  55.177  1.00  0.00     0.011 A 
HETATM    8  C   UNL     1      29.706  44.699  55.911  1.00  0.00     0.004 A 
HETATM    9  C   UNL     1      29.811  45.426  57.099  1.00  0.00     0.043 A 
HETATM   10  C   UNL     1      30.637  43.663  55.681  1.00  0.00     0.014 A 
HETATM   11  C   UNL     1      30.795  45.167  58.062  1.00  0.00     0.030 A 
HETATM   12  N   UNL     1      28.808  46.366  57.087  1.00  0.00    -0.364 N 
HETATM   13  C   UNL     1      31.703  44.136  57.807  1.00  0.00     0.002 A 
HETATM   14  C   UNL     1      31.627  43.392  56.632  1.00  0.00     0.001 A 
HETATM   15  H   UNL     1      28.645  47.032  57.830  1.00  0.00     0.165 HD
HETATM   16  C   UNL     1      28.067  46.261  55.938  1.00  0.00     0.102 A 
ENDBRANCH   6   7
ENDBRANCH   2   5
BRANCH   1  17
HETATM   17  C   UNL     1      24.941  43.533  50.939  1.00  0.00     0.280 C 
BRANCH  17  18
HETATM   18  O   UNL     1      25.496  44.393  49.941  1.00  0.00    -0.340 OA
BRANCH  18  19
HETATM   19  C   UNL     1      24.560  45.331  49.565  1.00  0.00     0.092 A 
HETATM   20  C   UNL     1      24.716  46.658  49.989  1.00  0.00     0.045 A 
HETATM   21  C   UNL     1      23.825  47.644  49.559  1.00  0.00     0.028 A 
HETATM   22 BR   UNL     1      26.148  47.171  51.123  1.00  0.00    -0.048 Br
HETATM   23  C   UNL     1      22.758  47.311  48.717  1.00  0.00    -0.060 A 
HETATM   24  C   UNL     1      21.843  48.374  48.182  1.00  0.00     0.048 C 
HETATM   25  C   UNL     1      22.587  45.975  48.327  1.00  0.00     0.016 A 
HETATM   26  C   UNL     1      23.461  44.968  48.769  1.00  0.00    -0.027 A 
HETATM   27  C   UNL     1      23.219  43.553  48.326  1.00  0.00     0.051 C 
ENDBRANCH  18  19
ENDBRANCH  17  18
ENDBRANCH   1  17
TORSDOF 5
ENDMDL
MODEL 9
REMARK VINA RESULT:      -8.3      2.208      3.069
REMARK  5 active torsions:
REMARK  status: ('A' for Active; 'I' for Inactive)
REMARK    1  A    between atoms: C_6  and  O_7 
REMARK    2  A    between atoms: O_7  and  C_8 
REMARK    3  A    between atoms: C_8  and  C_9 
REMARK       I    between atoms: C_9  and  N_10 
REMARK    4  A    between atoms: N_10  and  N_11 
REMARK    5  A    between atoms: C_12  and  C_13 
ROOT
HETATM    1  C   UNL     1      26.596  45.201  49.900  1.00  0.00     0.261 C 
HETATM    2  N   UNL     1      25.218  45.093  49.980  1.00  0.00    -0.246 N 
HETATM    3  O   UNL     1      27.202  46.131  49.365  1.00  0.00    -0.269 OA
HETATM    4  H   UNL     1      24.794  44.274  50.410  1.00  0.00     0.192 HD
ENDROOT
BRANCH   2   5
HETATM    5  N   UNL     1      24.459  46.105  49.480  1.00  0.00    -0.184 NA
HETATM    6  C   UNL     1      23.319  45.804  48.956  1.00  0.00     0.152 C 
BRANCH   6   7
HETATM    7  C   UNL     1      22.486  46.878  48.445  1.00  0.00     0.011 A 
HETATM    8  C   UNL     1      22.714  48.297  48.485  1.00  0.00     0.004 A 
HETATM    9  C   UNL     1      21.617  48.915  47.881  1.00  0.00     0.043 A 
HETATM   10  C   UNL     1      23.750  49.118  48.981  1.00  0.00     0.014 A 
HETATM   11  C   UNL     1      21.506  50.306  47.753  1.00  0.00     0.030 A 
HETATM   12  N   UNL     1      20.760  47.917  47.483  1.00  0.00    -0.364 N 
HETATM   13  C   UNL     1      22.547  51.092  48.254  1.00  0.00     0.002 A 
HETATM   14  C   UNL     1      23.655  50.509  48.861  1.00  0.00     0.001 A 
HETATM   15  H   UNL     1      19.877  48.078  47.017  1.00  0.00     0.165 HD
HETATM   16  C   UNL     1      21.269  46.688  47.815  1.00  0.00     0.102 A 
ENDBRANCH   6   7
ENDBRANCH   2   5
BRANCH   1  17
HETATM   17  C   UNL     1      27.357  44.090  50.611  1.00  0.00     0.280 C 
BRANCH  17  18
HETATM   18  O   UNL     1      26.744  43.642  51.823  1.00  0.00    -0.340 OA
BRANCH  18  19
HETATM   19  C   UNL     1      27.675  43.634  52.837  1.00  0.00     0.092 A 
HETATM   20  C   UNL     1      28.524  42.527  52.975  1.00  0.00     0.045 A 
HETATM   21  C   UNL     1      29.529  42.526  53.945  1.00  0.00     0.028 A 
HETATM   22 BR   UNL     1      28.368  41.015  51.838  1.00  0.00    -0.048 Br
HETATM   23  C   UNL     1      29.683  43.622  54.800  1.00  0.00    -0.060 A 
HETATM   24  C   UNL     1      30.809  43.668  55.792  1.00  0.00     0.048 C 
HETATM   25  C   UNL     1      28.808  44.710  54.681  1.00  0.00     0.016 A 
HETATM   26  C   UNL     1      27.778  44.717  53.725  1.00  0.00    -0.027 A 
HETATM   27  C   UNL     1      26.864  45.907  53.653  1.00  0.00     0.051 C 
ENDBRANCH  18  19
ENDBRANCH  17  18
ENDBRANCH   1  17
TORSDOF 5
ENDMDL
MODEL 10
REMARK VINA RESULT:      -8.2      2.990      9.262
REMARK  5 active torsions:
REMARK  status: ('A' for Active; 'I' for Inactive)
REMARK    1  A    between atoms: C_6  and  O_7 
REMARK    2  A    between atoms: O_7  and  C_8 
REMARK    3  A    between atoms: C_8  and  C_9 
REMARK       I    between atoms: C_9  and  N_10 
REMARK    4  A    between atoms: N_10  and  N_11 
REMARK    5  A    between atoms: C_12  and  C_13 
ROOT
HETATM    1  C   UNL     1      23.404  46.000  49.006  1.00  0.00     0.261 C 
HETATM    2  N   UNL     1      24.037  46.705  50.017  1.00  0.00    -0.246 N 
HETATM    3  O   UNL     1      23.753  44.896  48.589  1.00  0.00    -0.269 OA
HETATM    4  H   UNL     1      23.705  47.629  50.280  1.00  0.00     0.192 HD
ENDROOT
BRANCH   2   5
HETATM    5  N   UNL     1      25.098  46.127  50.641  1.00  0.00    -0.184 NA
HETATM    6  C   UNL     1      25.012  45.917  51.912  1.00  0.00     0.152 C 
BRANCH   6   7
HETATM    7  C   UNL     1      26.125  45.274  52.585  1.00  0.00     0.011 A 
HETATM    8  C   UNL     1      26.942  45.771  53.659  1.00  0.00     0.004 A 
HETATM    9  C   UNL     1      27.895  44.793  53.948  1.00  0.00     0.043 A 
HETATM   10  C   UNL     1      26.964  46.964  54.414  1.00  0.00     0.014 A 
HETATM   11  C   UNL     1      28.865  44.950  54.947  1.00  0.00     0.030 A 
HETATM   12  N   UNL     1      27.667  43.742  53.093  1.00  0.00    -0.364 N 
HETATM   13  C   UNL     1      28.862  46.142  55.677  1.00  0.00     0.002 A 
HETATM   14  C   UNL     1      27.925  47.138  55.416  1.00  0.00     0.001 A 
HETATM   15  H   UNL     1      28.215  42.891  53.078  1.00  0.00     0.165 HD
HETATM   16  C   UNL     1      26.606  44.017  52.269  1.00  0.00     0.102 A 
ENDBRANCH   6   7
ENDBRANCH   2   5
BRANCH   1  17
HETATM   17  C   UNL     1      22.146  46.669  48.467  1.00  0.00     0.280 C 
BRANCH  17  18
HETATM   18  O   UNL     1      22.393  47.690  47.497  1.00  0.00    -0.340 OA
BRANCH  18  19
HETATM   19  C   UNL     1      21.631  48.799  47.787  1.00  0.00     0.092 A 
HETATM   20  C   UNL     1      22.259  49.946  48.290  1.00  0.00     0.045 A 
HETATM   21  C   UNL     1      21.521  51.111  48.519  1.00  0.00     0.028 A 
HETATM   22 BR   UNL     1      24.123  49.978  48.643  1.00  0.00    -0.048 Br
HETATM   23  C   UNL     1      20.146  51.134  48.266  1.00  0.00    -0.060 A 
HETATM   24  C   UNL     1      19.357  52.401  48.430  1.00  0.00     0.048 C 
HETATM   25  C   UNL     1      19.517  49.971  47.798  1.00  0.00     0.016 A 
HETATM   26  C   UNL     1      20.241  48.786  47.584  1.00  0.00    -0.027 A 
HETATM   27  C   UNL     1      19.509  47.569  47.093  1.00  0.00     0.051 C 
ENDBRANCH  18  19
ENDBRANCH  17  18
ENDBRANCH   1  17
TORSDOF 5
ENDMDL
