MODEL 1
REMARK VINA RESULT:      -8.4      0.000      0.000
REMARK  9 active torsions:
REMARK  status: ('A' for Active; 'I' for Inactive)
REMARK    1  A    between atoms: C_2  and  O_3 
REMARK    2  A    between atoms: O_3  and  C_4 
REMARK    3  A    between atoms: C_4  and  C_5 
REMARK    4  A    between atoms: C_10  and  N_11 
REMARK       I    between atoms: N_11  and  C_12 
REMARK    5  A    between atoms: C_12  and  C_13 
REMARK    6  A    between atoms: C_13  and  N_14 
REMARK    7  A    between atoms: C_16  and  C_17 
REMARK    8  A    between atoms: C_17  and  C_18 
REMARK    9  A    between atoms: C_18  and  O_19 
ROOT
HETATM    1  C   UNL     1      27.089  44.757  53.799  1.00  0.00     0.137 A 
HETATM    2  N   UNL     1      27.524  45.752  54.636  1.00  0.00    -0.349 N 
HETATM    3  H   UNL     1      27.069  46.651  54.741  1.00  0.00     0.166 HD
HETATM    4  C   UNL     1      28.656  45.364  55.307  1.00  0.00     0.045 A 
HETATM    5  C   UNL     1      28.971  44.065  54.885  1.00  0.00     0.021 A 
HETATM    6  C   UNL     1      27.975  43.689  53.919  1.00  0.00     0.080 A 
HETATM    7  C   UNL     1      29.408  46.081  56.247  1.00  0.00     0.032 A 
HETATM    8  C   UNL     1      30.530  45.460  56.795  1.00  0.00     0.026 A 
HETATM    9  C   UNL     1      30.875  44.172  56.411  1.00  0.00     0.035 A 
HETATM   10 CL   UNL     1      32.260  43.422  57.105  1.00  0.00    -0.084 Cl
HETATM   11  C   UNL     1      30.113  43.469  55.468  1.00  0.00     0.040 A 
ENDROOT
BRANCH   6  12
HETATM   12  N   UNL     1      27.761  42.544  53.149  1.00  0.00    -0.323 N 
HETATM   13  C   UNL     1      28.685  41.766  52.491  1.00  0.00     0.248 C 
HETATM   14  O   UNL     1      29.902  41.906  52.479  1.00  0.00    -0.271 OA
HETATM   15  H   UNL     1      26.768  42.339  53.022  1.00  0.00     0.169 HD
BRANCH  13  16
HETATM   16  C   UNL     1      28.062  40.580  51.739  1.00  0.00     0.338 C 
BRANCH  16  17
HETATM   17  N   UNL     1      28.626  40.320  50.314  1.00  0.00    -0.059 N 
HETATM   18  H   UNL     1      29.507  40.842  50.229  1.00  0.00     0.280 HD
HETATM   19  C   UNL     1      28.885  38.830  50.065  1.00  0.00     0.190 C 
HETATM   20  C   UNL     1      29.411  38.628  48.637  1.00  0.00     0.033 C 
HETATM   21  C   UNL     1      28.455  39.191  47.598  1.00  0.00     0.004 C 
HETATM   22  C   UNL     1      28.220  40.666  47.857  1.00  0.00     0.028 C 
HETATM   23  C   UNL     1      27.689  40.918  49.260  1.00  0.00     0.236 C 
BRANCH  19  24
HETATM   24  C   UNL     1      29.838  38.202  51.098  1.00  0.00     0.059 C 
BRANCH  24  25
HETATM   25  C   UNL     1      29.713  36.697  51.298  1.00  0.00     0.166 C 
BRANCH  25  26
HETATM   26  O   UNL     1      28.414  36.279  50.918  1.00  0.00    -0.401 OA
HETATM   27  H   UNL     1      28.207  36.607  50.026  1.00  0.00     0.209 HD
ENDBRANCH  25  26
ENDBRANCH  24  25
ENDBRANCH  19  24
ENDBRANCH  16  17
ENDBRANCH  13  16
ENDBRANCH   6  12
BRANCH   1  28
HETATM   28  C   UNL     1      25.923  44.859  52.955  1.00  0.00     0.312 C 
HETATM   29  O   UNL     1      24.897  44.212  53.138  1.00  0.00    -0.258 OA
BRANCH  28  30
HETATM   30  O   UNL     1      26.145  45.753  51.956  1.00  0.00    -0.317 OA
BRANCH  30  31
HETATM   31  C   UNL     1      25.760  45.337  50.637  1.00  0.00     0.175 C 
HETATM   32  C   UNL     1      26.930  44.669  49.941  1.00  0.00     0.034 C 
ENDBRANCH  30  31
ENDBRANCH  28  30
ENDBRANCH   1  28
TORSDOF 9
ENDMDL
MODEL 2
REMARK VINA RESULT:      -8.3      1.432      1.807
REMARK  9 active torsions:
REMARK  status: ('A' for Active; 'I' for Inactive)
REMARK    1  A    between atoms: C_2  and  O_3 
REMARK    2  A    between atoms: O_3  and  C_4 
REMARK    3  A    between atoms: C_4  and  C_5 
REMARK    4  A    between atoms: C_10  and  N_11 
REMARK       I    between atoms: N_11  and  C_12 
REMARK    5  A    between atoms: C_12  and  C_13 
REMARK    6  A    between atoms: C_13  and  N_14 
REMARK    7  A    between atoms: C_16  and  C_17 
REMARK    8  A    between atoms: C_17  and  C_18 
REMARK    9  A    between atoms: C_18  and  O_19 
ROOT
HETATM    1  C   UNL     1      27.506  44.636  53.109  1.00  0.00     0.137 A 
HETATM    2  N   UNL     1      27.656  45.580  54.092  1.00  0.00    -0.349 N 
HETATM    3  H   UNL     1      27.078  46.407  54.184  1.00  0.00     0.166 HD
HETATM    4  C   UNL     1      28.693  45.252  54.927  1.00  0.00     0.045 A 
HETATM    5  C   UNL     1      29.241  44.047  54.465  1.00  0.00     0.021 A 
HETATM    6  C   UNL     1      28.486  43.666  53.303  1.00  0.00     0.080 A 
HETATM    7  C   UNL     1      29.171  45.945  56.047  1.00  0.00     0.032 A 
HETATM    8  C   UNL     1      30.250  45.400  56.741  1.00  0.00     0.026 A 
HETATM    9  C   UNL     1      30.819  44.205  56.323  1.00  0.00     0.035 A 
HETATM   10 CL   UNL     1      32.146  43.544  57.198  1.00  0.00    -0.084 Cl
HETATM   11  C   UNL     1      30.330  43.524  55.200  1.00  0.00     0.040 A 
ENDROOT
BRANCH   6  12
HETATM   12  N   UNL     1      28.559  42.592  52.415  1.00  0.00    -0.323 N 
HETATM   13  C   UNL     1      28.304  41.261  52.652  1.00  0.00     0.248 C 
HETATM   14  O   UNL     1      27.921  40.752  53.698  1.00  0.00    -0.271 OA
HETATM   15  H   UNL     1      28.929  42.864  51.502  1.00  0.00     0.169 HD
BRANCH  13  16
HETATM   16  C   UNL     1      28.498  40.370  51.415  1.00  0.00     0.338 C 
BRANCH  16  17
HETATM   17  N   UNL     1      27.645  40.753  50.174  1.00  0.00    -0.059 N 
HETATM   18  H   UNL     1      27.976  41.667  49.840  1.00  0.00     0.280 HD
HETATM   19  C   UNL     1      27.772  39.718  49.051  1.00  0.00     0.190 C 
HETATM   20  C   UNL     1      26.889  40.130  47.865  1.00  0.00     0.033 C 
HETATM   21  C   UNL     1      25.436  40.304  48.276  1.00  0.00     0.004 C 
HETATM   22  C   UNL     1      25.331  41.337  49.381  1.00  0.00     0.028 C 
HETATM   23  C   UNL     1      26.185  40.969  50.585  1.00  0.00     0.236 C 
BRANCH  19  24
HETATM   24  C   UNL     1      29.228  39.492  48.602  1.00  0.00     0.059 C 
BRANCH  24  25
HETATM   25  C   UNL     1      29.844  38.149  48.976  1.00  0.00     0.166 C 
BRANCH  25  26
HETATM   26  O   UNL     1      31.159  38.355  49.460  1.00  0.00    -0.401 OA
HETATM   27  H   UNL     1      31.138  38.531  50.416  1.00  0.00     0.209 HD
ENDBRANCH  25  26
ENDBRANCH  24  25
ENDBRANCH  19  24
ENDBRANCH  16  17
ENDBRANCH  13  16
ENDBRANCH   6  12
BRANCH   1  28
HETATM   28  C   UNL     1      26.501  44.696  52.073  1.00  0.00     0.312 C 
HETATM   29  O   UNL     1      25.296  44.672  52.299  1.00  0.00    -0.258 OA
BRANCH  28  30
HETATM   30  O   UNL     1      27.092  44.772  50.853  1.00  0.00    -0.317 OA
BRANCH  30  31
HETATM   31  C   UNL     1      26.308  45.362  49.805  1.00  0.00     0.175 C 
HETATM   32  C   UNL     1      26.644  46.836  49.671  1.00  0.00     0.034 C 
ENDBRANCH  30  31
ENDBRANCH  28  30
ENDBRANCH   1  28
TORSDOF 9
ENDMDL
MODEL 3
REMARK VINA RESULT:      -8.0      1.633      2.695
REMARK  9 active torsions:
REMARK  status: ('A' for Active; 'I' for Inactive)
REMARK    1  A    between atoms: C_2  and  O_3 
REMARK    2  A    between atoms: O_3  and  C_4 
REMARK    3  A    between atoms: C_4  and  C_5 
REMARK    4  A    between atoms: C_10  and  N_11 
REMARK       I    between atoms: N_11  and  C_12 
REMARK    5  A    between atoms: C_12  and  C_13 
REMARK    6  A    between atoms: C_13  and  N_14 
REMARK    7  A    between atoms: C_16  and  C_17 
REMARK    8  A    between atoms: C_17  and  C_18 
REMARK    9  A    between atoms: C_18  and  O_19 
ROOT
HETATM    1  C   UNL     1      27.877  44.296  52.869  1.00  0.00     0.137 A 
HETATM    2  N   UNL     1      27.916  45.204  53.896  1.00  0.00    -0.349 N 
HETATM    3  H   UNL     1      27.297  46.000  53.980  1.00  0.00     0.166 HD
HETATM    4  C   UNL     1      28.907  44.885  54.789  1.00  0.00     0.045 A 
HETATM    5  C   UNL     1      29.540  43.725  54.321  1.00  0.00     0.021 A 
HETATM    6  C   UNL     1      28.884  43.362  53.094  1.00  0.00     0.080 A 
HETATM    7  C   UNL     1      29.276  45.550  55.966  1.00  0.00     0.032 A 
HETATM    8  C   UNL     1      30.328  45.022  56.713  1.00  0.00     0.026 A 
HETATM    9  C   UNL     1      30.977  43.872  56.290  1.00  0.00     0.035 A 
HETATM   10 CL   UNL     1      32.270  43.231  57.230  1.00  0.00    -0.084 Cl
HETATM   11  C   UNL     1      30.599  43.218  55.109  1.00  0.00     0.040 A 
ENDROOT
BRANCH   6  12
HETATM   12  N   UNL     1      29.067  42.329  52.172  1.00  0.00    -0.323 N 
HETATM   13  C   UNL     1      28.435  41.110  52.110  1.00  0.00     0.248 C 
HETATM   14  O   UNL     1      27.545  40.695  52.842  1.00  0.00    -0.271 OA
HETATM   15  H   UNL     1      29.835  42.516  51.524  1.00  0.00     0.169 HD
BRANCH  13  16
HETATM   16  C   UNL     1      28.911  40.231  50.943  1.00  0.00     0.338 C 
BRANCH  16  17
HETATM   17  N   UNL     1      27.822  39.332  50.294  1.00  0.00    -0.059 N 
HETATM   18  H   UNL     1      27.023  39.298  50.939  1.00  0.00     0.280 HD
HETATM   19  C   UNL     1      27.364  39.878  48.936  1.00  0.00     0.190 C 
HETATM   20  C   UNL     1      26.313  38.938  48.329  1.00  0.00     0.033 C 
HETATM   21  C   UNL     1      26.837  37.518  48.190  1.00  0.00     0.004 C 
HETATM   22  C   UNL     1      27.276  36.994  49.545  1.00  0.00     0.028 C 
HETATM   23  C   UNL     1      28.326  37.890  50.186  1.00  0.00     0.236 C 
BRANCH  19  24
HETATM   24  C   UNL     1      26.834  41.321  49.014  1.00  0.00     0.059 C 
BRANCH  24  25
HETATM   25  C   UNL     1      25.413  41.487  49.539  1.00  0.00     0.166 C 
BRANCH  25  26
HETATM   26  O   UNL     1      25.448  41.632  50.948  1.00  0.00    -0.401 OA
HETATM   27  H   UNL     1      24.795  41.039  51.359  1.00  0.00     0.209 HD
ENDBRANCH  25  26
ENDBRANCH  24  25
ENDBRANCH  19  24
ENDBRANCH  16  17
ENDBRANCH  13  16
ENDBRANCH   6  12
BRANCH   1  28
HETATM   28  C   UNL     1      26.945  44.357  51.768  1.00  0.00     0.312 C 
HETATM   29  O   UNL     1      27.287  44.328  50.590  1.00  0.00    -0.258 OA
BRANCH  28  30
HETATM   30  O   UNL     1      25.674  44.455  52.237  1.00  0.00    -0.317 OA
BRANCH  30  31
HETATM   31  C   UNL     1      24.829  45.412  51.581  1.00  0.00     0.175 C 
HETATM   32  C   UNL     1      25.281  46.821  51.918  1.00  0.00     0.034 C 
ENDBRANCH  30  31
ENDBRANCH  28  30
ENDBRANCH   1  28
TORSDOF 9
ENDMDL
MODEL 4
REMARK VINA RESULT:      -7.9      1.760      2.320
REMARK  9 active torsions:
REMARK  status: ('A' for Active; 'I' for Inactive)
REMARK    1  A    between atoms: C_2  and  O_3 
REMARK    2  A    between atoms: O_3  and  C_4 
REMARK    3  A    between atoms: C_4  and  C_5 
REMARK    4  A    between atoms: C_10  and  N_11 
REMARK       I    between atoms: N_11  and  C_12 
REMARK    5  A    between atoms: C_12  and  C_13 
REMARK    6  A    between atoms: C_13  and  N_14 
REMARK    7  A    between atoms: C_16  and  C_17 
REMARK    8  A    between atoms: C_17  and  C_18 
REMARK    9  A    between atoms: C_18  and  O_19 
ROOT
HETATM    1  C   UNL     1      25.920  44.822  51.865  1.00  0.00     0.137 A 
HETATM    2  N   UNL     1      25.803  46.085  52.386  1.00  0.00    -0.349 N 
HETATM    3  H   UNL     1      25.219  46.814  51.995  1.00  0.00     0.166 HD
HETATM    4  C   UNL     1      26.587  46.224  53.503  1.00  0.00     0.045 A 
HETATM    5  C   UNL     1      27.241  45.003  53.714  1.00  0.00     0.021 A 
HETATM    6  C   UNL     1      26.818  44.119  52.663  1.00  0.00     0.080 A 
HETATM    7  C   UNL     1      26.752  47.348  54.325  1.00  0.00     0.032 A 
HETATM    8  C   UNL     1      27.613  47.238  55.415  1.00  0.00     0.026 A 
HETATM    9  C   UNL     1      28.276  46.045  55.666  1.00  0.00     0.035 A 
HETATM   10 CL   UNL     1      29.330  45.927  57.022  1.00  0.00    -0.084 Cl
HETATM   11  C   UNL     1      28.102  44.931  54.834  1.00  0.00     0.040 A 
ENDROOT
BRANCH   6  12
HETATM   12  N   UNL     1      27.126  42.798  52.331  1.00  0.00    -0.323 N 
HETATM   13  C   UNL     1      28.361  42.228  52.128  1.00  0.00     0.248 C 
HETATM   14  O   UNL     1      29.456  42.767  52.235  1.00  0.00    -0.271 OA
HETATM   15  H   UNL     1      26.292  42.236  52.150  1.00  0.00     0.169 HD
BRANCH  13  16
HETATM   16  C   UNL     1      28.296  40.734  51.772  1.00  0.00     0.338 C 
BRANCH  16  17
HETATM   17  N   UNL     1      28.733  40.371  50.326  1.00  0.00    -0.059 N 
HETATM   18  H   UNL     1      29.638  40.827  50.151  1.00  0.00     0.280 HD
HETATM   19  C   UNL     1      28.874  38.857  50.134  1.00  0.00     0.190 C 
HETATM   20  C   UNL     1      29.278  38.555  48.684  1.00  0.00     0.033 C 
HETATM   21  C   UNL     1      28.286  39.134  47.688  1.00  0.00     0.004 C 
HETATM   22  C   UNL     1      28.169  40.633  47.889  1.00  0.00     0.028 C 
HETATM   23  C   UNL     1      27.762  40.984  49.312  1.00  0.00     0.236 C 
BRANCH  19  24
HETATM   24  C   UNL     1      29.859  38.212  51.127  1.00  0.00     0.059 C 
BRANCH  24  25
HETATM   25  C   UNL     1      29.769  36.698  51.273  1.00  0.00     0.166 C 
BRANCH  25  26
HETATM   26  O   UNL     1      28.453  36.274  50.965  1.00  0.00    -0.401 OA
HETATM   27  H   UNL     1      28.357  35.325  51.151  1.00  0.00     0.209 HD
ENDBRANCH  25  26
ENDBRANCH  24  25
ENDBRANCH  19  24
ENDBRANCH  16  17
ENDBRANCH  13  16
ENDBRANCH   6  12
BRANCH   1  28
HETATM   28  C   UNL     1      25.222  44.363  50.687  1.00  0.00     0.312 C 
HETATM   29  O   UNL     1      25.549  44.669  49.545  1.00  0.00    -0.258 OA
BRANCH  28  30
HETATM   30  O   UNL     1      24.177  43.571  51.042  1.00  0.00    -0.317 OA
BRANCH  30  31
HETATM   31  C   UNL     1      23.082  43.515  50.115  1.00  0.00     0.175 C 
HETATM   32  C   UNL     1      23.188  42.264  49.262  1.00  0.00     0.034 C 
ENDBRANCH  30  31
ENDBRANCH  28  30
ENDBRANCH   1  28
TORSDOF 9
ENDMDL
MODEL 5
REMARK VINA RESULT:      -7.8      1.796      2.719
REMARK  9 active torsions:
REMARK  status: ('A' for Active; 'I' for Inactive)
REMARK    1  A    between atoms: C_2  and  O_3 
REMARK    2  A    between atoms: O_3  and  C_4 
REMARK    3  A    between atoms: C_4  and  C_5 
REMARK    4  A    between atoms: C_10  and  N_11 
REMARK       I    between atoms: N_11  and  C_12 
REMARK    5  A    between atoms: C_12  and  C_13 
REMARK    6  A    between atoms: C_13  and  N_14 
REMARK    7  A    between atoms: C_16  and  C_17 
REMARK    8  A    between atoms: C_17  and  C_18 
REMARK    9  A    between atoms: C_18  and  O_19 
ROOT
HETATM    1  C   UNL     1      26.157  44.509  52.744  1.00  0.00     0.137 A 
HETATM    2  N   UNL     1      26.684  45.551  53.463  1.00  0.00    -0.349 N 
HETATM    3  H   UNL     1      26.299  46.487  53.479  1.00  0.00     0.166 HD
HETATM    4  C   UNL     1      27.800  45.151  54.153  1.00  0.00     0.045 A 
HETATM    5  C   UNL     1      28.009  43.795  53.868  1.00  0.00     0.021 A 
HETATM    6  C   UNL     1      26.964  43.395  52.964  1.00  0.00     0.080 A 
HETATM    7  C   UNL     1      28.625  45.904  54.998  1.00  0.00     0.032 A 
HETATM    8  C   UNL     1      29.712  45.262  55.591  1.00  0.00     0.026 A 
HETATM    9  C   UNL     1      29.951  43.919  55.342  1.00  0.00     0.035 A 
HETATM   10 CL   UNL     1      31.294  43.143  56.090  1.00  0.00    -0.084 Cl
HETATM   11  C   UNL     1      29.117  43.179  54.493  1.00  0.00     0.040 A 
ENDROOT
BRANCH   6  12
HETATM   12  N   UNL     1      26.649  42.195  52.324  1.00  0.00    -0.323 N 
HETATM   13  C   UNL     1      27.141  41.697  51.140  1.00  0.00     0.248 C 
HETATM   14  O   UNL     1      27.994  42.199  50.419  1.00  0.00    -0.271 OA
HETATM   15  H   UNL     1      25.894  41.690  52.792  1.00  0.00     0.169 HD
BRANCH  13  16
HETATM   16  C   UNL     1      26.546  40.333  50.755  1.00  0.00     0.338 C 
BRANCH  16  17
HETATM   17  N   UNL     1      27.572  39.261  50.295  1.00  0.00    -0.059 N 
HETATM   18  H   UNL     1      27.128  38.340  50.403  1.00  0.00     0.280 HD
HETATM   19  C   UNL     1      27.993  39.462  48.835  1.00  0.00     0.190 C 
HETATM   20  C   UNL     1      29.026  38.397  48.443  1.00  0.00     0.033 C 
HETATM   21  C   UNL     1      30.238  38.419  49.362  1.00  0.00     0.004 C 
HETATM   22  C   UNL     1      29.800  38.210  50.799  1.00  0.00     0.028 C 
HETATM   23  C   UNL     1      28.779  39.248  51.238  1.00  0.00     0.236 C 
BRANCH  19  24
HETATM   24  C   UNL     1      26.803  39.461  47.858  1.00  0.00     0.059 C 
BRANCH  24  25
HETATM   25  C   UNL     1      26.573  40.751  47.080  1.00  0.00     0.166 C 
BRANCH  25  26
HETATM   26  O   UNL     1      27.534  41.714  47.474  1.00  0.00    -0.401 OA
HETATM   27  H   UNL     1      27.250  42.151  48.295  1.00  0.00     0.209 HD
ENDBRANCH  25  26
ENDBRANCH  24  25
ENDBRANCH  19  24
ENDBRANCH  16  17
ENDBRANCH  13  16
ENDBRANCH   6  12
BRANCH   1  28
HETATM   28  C   UNL     1      24.981  44.609  51.913  1.00  0.00     0.312 C 
HETATM   29  O   UNL     1      24.287  43.646  51.605  1.00  0.00    -0.258 OA
BRANCH  28  30
HETATM   30  O   UNL     1      24.784  45.899  51.535  1.00  0.00    -0.317 OA
BRANCH  30  31
HETATM   31  C   UNL     1      24.985  46.189  50.143  1.00  0.00     0.175 C 
HETATM   32  C   UNL     1      24.055  47.305  49.707  1.00  0.00     0.034 C 
ENDBRANCH  30  31
ENDBRANCH  28  30
ENDBRANCH   1  28
TORSDOF 9
ENDMDL
MODEL 6
REMARK VINA RESULT:      -7.7      2.745      7.202
REMARK  9 active torsions:
REMARK  status: ('A' for Active; 'I' for Inactive)
REMARK    1  A    between atoms: C_2  and  O_3 
REMARK    2  A    between atoms: O_3  and  C_4 
REMARK    3  A    between atoms: C_4  and  C_5 
REMARK    4  A    between atoms: C_10  and  N_11 
REMARK       I    between atoms: N_11  and  C_12 
REMARK    5  A    between atoms: C_12  and  C_13 
REMARK    6  A    between atoms: C_13  and  N_14 
REMARK    7  A    between atoms: C_16  and  C_17 
REMARK    8  A    between atoms: C_17  and  C_18 
REMARK    9  A    between atoms: C_18  and  O_19 
ROOT
HETATM    1  C   UNL     1      26.168  43.040  49.811  1.00  0.00     0.137 A 
HETATM    2  N   UNL     1      26.145  42.583  48.518  1.00  0.00    -0.349 N 
HETATM    3  H   UNL     1      25.603  43.002  47.773  1.00  0.00     0.166 HD
HETATM    4  C   UNL     1      26.954  41.485  48.376  1.00  0.00     0.045 A 
HETATM    5  C   UNL     1      27.523  41.215  49.628  1.00  0.00     0.021 A 
HETATM    6  C   UNL     1      27.011  42.203  50.538  1.00  0.00     0.080 A 
HETATM    7  C   UNL     1      27.208  40.726  47.226  1.00  0.00     0.032 A 
HETATM    8  C   UNL     1      28.081  39.644  47.338  1.00  0.00     0.026 A 
HETATM    9  C   UNL     1      28.671  39.345  48.557  1.00  0.00     0.035 A 
HETATM   10 CL   UNL     1      29.752  38.009  48.672  1.00  0.00    -0.084 Cl
HETATM   11  C   UNL     1      28.406  40.113  49.699  1.00  0.00     0.040 A 
ENDROOT
BRANCH   6  12
HETATM   12  N   UNL     1      27.194  42.446  51.901  1.00  0.00    -0.323 N 
HETATM   13  C   UNL     1      28.371  42.538  52.608  1.00  0.00     0.248 C 
HETATM   14  O   UNL     1      29.511  42.459  52.168  1.00  0.00    -0.271 OA
HETATM   15  H   UNL     1      26.311  42.476  52.414  1.00  0.00     0.169 HD
BRANCH  13  16
HETATM   16  C   UNL     1      28.165  42.814  54.105  1.00  0.00     0.338 C 
BRANCH  16  17
HETATM   17  N   UNL     1      28.741  44.162  54.622  1.00  0.00    -0.059 N 
HETATM   18  H   UNL     1      29.197  44.629  53.829  1.00  0.00     0.280 HD
HETATM   19  C   UNL     1      27.646  45.070  55.193  1.00  0.00     0.190 C 
HETATM   20  C   UNL     1      28.272  46.371  55.714  1.00  0.00     0.033 C 
HETATM   21  C   UNL     1      29.348  46.103  56.755  1.00  0.00     0.004 C 
HETATM   22  C   UNL     1      30.425  45.212  56.167  1.00  0.00     0.028 C 
HETATM   23  C   UNL     1      29.853  43.903  55.643  1.00  0.00     0.236 C 
BRANCH  19  24
HETATM   24  C   UNL     1      26.520  45.365  54.185  1.00  0.00     0.059 C 
BRANCH  24  25
HETATM   25  C   UNL     1      25.191  44.667  54.441  1.00  0.00     0.166 C 
BRANCH  25  26
HETATM   26  O   UNL     1      24.885  43.823  53.344  1.00  0.00    -0.401 OA
HETATM   27  H   UNL     1      23.926  43.668  53.301  1.00  0.00     0.209 HD
ENDBRANCH  25  26
ENDBRANCH  24  25
ENDBRANCH  19  24
ENDBRANCH  16  17
ENDBRANCH  13  16
ENDBRANCH   6  12
BRANCH   1  28
HETATM   28  C   UNL     1      25.420  44.181  50.282  1.00  0.00     0.312 C 
HETATM   29  O   UNL     1      24.194  44.242  50.258  1.00  0.00    -0.258 OA
BRANCH  28  30
HETATM   30  O   UNL     1      26.267  45.142  50.732  1.00  0.00    -0.317 OA
BRANCH  30  31
HETATM   31  C   UNL     1      26.794  46.037  49.741  1.00  0.00     0.175 C 
HETATM   32  C   UNL     1      26.388  47.464  50.061  1.00  0.00     0.034 C 
ENDBRANCH  30  31
ENDBRANCH  28  30
ENDBRANCH   1  28
TORSDOF 9
ENDMDL
MODEL 7
REMARK VINA RESULT:      -7.7      2.316      5.923
REMARK  9 active torsions:
REMARK  status: ('A' for Active; 'I' for Inactive)
REMARK    1  A    between atoms: C_2  and  O_3 
REMARK    2  A    between atoms: O_3  and  C_4 
REMARK    3  A    between atoms: C_4  and  C_5 
REMARK    4  A    between atoms: C_10  and  N_11 
REMARK       I    between atoms: N_11  and  C_12 
REMARK    5  A    between atoms: C_12  and  C_13 
REMARK    6  A    between atoms: C_13  and  N_14 
REMARK    7  A    between atoms: C_16  and  C_17 
REMARK    8  A    between atoms: C_17  and  C_18 
REMARK    9  A    between atoms: C_18  and  O_19 
ROOT
HETATM    1  C   UNL     1      28.709  43.079  52.866  1.00  0.00     0.137 A 
HETATM    2  N   UNL     1      29.757  42.549  53.574  1.00  0.00    -0.349 N 
HETATM    3  H   UNL     1      30.252  41.703  53.317  1.00  0.00     0.166 HD
HETATM    4  C   UNL     1      30.038  43.317  54.674  1.00  0.00     0.045 A 
HETATM    5  C   UNL     1      29.134  44.388  54.683  1.00  0.00     0.021 A 
HETATM    6  C   UNL     1      28.286  44.225  53.534  1.00  0.00     0.080 A 
HETATM    7  C   UNL     1      31.026  43.125  55.649  1.00  0.00     0.032 A 
HETATM    8  C   UNL     1      31.115  44.057  56.682  1.00  0.00     0.026 A 
HETATM    9  C   UNL     1      30.244  45.137  56.726  1.00  0.00     0.035 A 
HETATM   10 CL   UNL     1      30.375  46.281  58.006  1.00  0.00    -0.084 Cl
HETATM   11  C   UNL     1      29.260  45.315  55.744  1.00  0.00     0.040 A 
ENDROOT
BRANCH   6  12
HETATM   12  N   UNL     1      27.209  44.949  53.020  1.00  0.00    -0.323 N 
HETATM   13  C   UNL     1      25.913  45.003  53.477  1.00  0.00     0.248 C 
HETATM   14  O   UNL     1      25.449  44.446  54.464  1.00  0.00    -0.271 OA
HETATM   15  H   UNL     1      27.440  45.424  52.145  1.00  0.00     0.169 HD
BRANCH  13  16
HETATM   16  C   UNL     1      25.005  45.916  52.639  1.00  0.00     0.338 C 
BRANCH  16  17
HETATM   17  N   UNL     1      24.397  45.267  51.364  1.00  0.00    -0.059 N 
HETATM   18  H   UNL     1      23.403  45.528  51.327  1.00  0.00     0.280 HD
HETATM   19  C   UNL     1      25.102  45.742  50.089  1.00  0.00     0.190 C 
HETATM   20  C   UNL     1      24.482  45.049  48.867  1.00  0.00     0.033 C 
HETATM   21  C   UNL     1      24.543  43.535  48.985  1.00  0.00     0.004 C 
HETATM   22  C   UNL     1      23.832  43.086  50.247  1.00  0.00     0.028 C 
HETATM   23  C   UNL     1      24.417  43.740  51.490  1.00  0.00     0.236 C 
BRANCH  19  24
HETATM   24  C   UNL     1      25.083  47.272  49.923  1.00  0.00     0.059 C 
BRANCH  24  25
HETATM   25  C   UNL     1      23.730  47.897  49.608  1.00  0.00     0.166 C 
BRANCH  25  26
HETATM   26  O   UNL     1      23.830  49.306  49.703  1.00  0.00    -0.401 OA
HETATM   27  H   UNL     1      23.155  49.726  49.142  1.00  0.00     0.209 HD
ENDBRANCH  25  26
ENDBRANCH  24  25
ENDBRANCH  19  24
ENDBRANCH  16  17
ENDBRANCH  13  16
ENDBRANCH   6  12
BRANCH   1  28
HETATM   28  C   UNL     1      28.172  42.501  51.657  1.00  0.00     0.312 C 
HETATM   29  O   UNL     1      27.748  43.169  50.719  1.00  0.00    -0.258 OA
BRANCH  28  30
HETATM   30  O   UNL     1      28.206  41.145  51.731  1.00  0.00    -0.317 OA
BRANCH  30  31
HETATM   31  C   UNL     1      27.816  40.436  50.545  1.00  0.00     0.175 C 
HETATM   32  C   UNL     1      26.315  40.212  50.544  1.00  0.00     0.034 C 
ENDBRANCH  30  31
ENDBRANCH  28  30
ENDBRANCH   1  28
TORSDOF 9
ENDMDL
MODEL 8
REMARK VINA RESULT:      -7.5      1.651      2.901
REMARK  9 active torsions:
REMARK  status: ('A' for Active; 'I' for Inactive)
REMARK    1  A    between atoms: C_2  and  O_3 
REMARK    2  A    between atoms: O_3  and  C_4 
REMARK    3  A    between atoms: C_4  and  C_5 
REMARK    4  A    between atoms: C_10  and  N_11 
REMARK       I    between atoms: N_11  and  C_12 
REMARK    5  A    between atoms: C_12  and  C_13 
REMARK    6  A    between atoms: C_13  and  N_14 
REMARK    7  A    between atoms: C_16  and  C_17 
REMARK    8  A    between atoms: C_17  and  C_18 
REMARK    9  A    between atoms: C_18  and  O_19 
ROOT
HETATM    1  C   UNL     1      26.812  44.720  53.731  1.00  0.00     0.137 A 
HETATM    2  N   UNL     1      27.343  45.769  54.437  1.00  0.00    -0.349 N 
HETATM    3  H   UNL     1      26.939  46.696  54.476  1.00  0.00     0.166 HD
HETATM    4  C   UNL     1      28.494  45.389  55.079  1.00  0.00     0.045 A 
HETATM    5  C   UNL     1      28.722  44.040  54.774  1.00  0.00     0.021 A 
HETATM    6  C   UNL     1      27.652  43.624  53.909  1.00  0.00     0.080 A 
HETATM    7  C   UNL     1      29.336  46.154  55.897  1.00  0.00     0.032 A 
HETATM    8  C   UNL     1      30.459  45.532  56.442  1.00  0.00     0.026 A 
HETATM    9  C   UNL     1      30.718  44.196  56.172  1.00  0.00     0.035 A 
HETATM   10 CL   UNL     1      32.107  43.446  56.860  1.00  0.00    -0.084 Cl
HETATM   11  C   UNL     1      29.868  43.445  55.350  1.00  0.00     0.040 A 
ENDROOT
BRANCH   6  12
HETATM   12  N   UNL     1      27.338  42.421  53.272  1.00  0.00    -0.323 N 
HETATM   13  C   UNL     1      28.037  41.762  52.288  1.00  0.00     0.248 C 
HETATM   14  O   UNL     1      29.110  42.086  51.793  1.00  0.00    -0.271 OA
HETATM   15  H   UNL     1      26.423  42.060  53.549  1.00  0.00     0.169 HD
BRANCH  13  16
HETATM   16  C   UNL     1      27.368  40.456  51.831  1.00  0.00     0.338 C 
BRANCH  16  17
HETATM   17  N   UNL     1      27.065  40.356  50.311  1.00  0.00    -0.059 N 
HETATM   18  H   UNL     1      26.462  39.536  50.168  1.00  0.00     0.280 HD
HETATM   19  C   UNL     1      26.360  41.611  49.783  1.00  0.00     0.190 C 
HETATM   20  C   UNL     1      26.112  41.470  48.276  1.00  0.00     0.033 C 
HETATM   21  C   UNL     1      27.402  41.215  47.512  1.00  0.00     0.004 C 
HETATM   22  C   UNL     1      28.078  39.966  48.042  1.00  0.00     0.028 C 
HETATM   23  C   UNL     1      28.353  40.060  49.535  1.00  0.00     0.236 C 
BRANCH  19  24
HETATM   24  C   UNL     1      25.051  41.926  50.530  1.00  0.00     0.059 C 
BRANCH  24  25
HETATM   25  C   UNL     1      24.085  42.868  49.823  1.00  0.00     0.166 C 
BRANCH  25  26
HETATM   26  O   UNL     1      23.052  43.241  50.718  1.00  0.00    -0.401 OA
HETATM   27  H   UNL     1      22.321  42.602  50.666  1.00  0.00     0.209 HD
ENDBRANCH  25  26
ENDBRANCH  24  25
ENDBRANCH  19  24
ENDBRANCH  16  17
ENDBRANCH  13  16
ENDBRANCH   6  12
BRANCH   1  28
HETATM   28  C   UNL     1      25.602  44.800  52.947  1.00  0.00     0.312 C 
HETATM   29  O   UNL     1      24.597  44.137  53.185  1.00  0.00    -0.258 OA
BRANCH  28  30
HETATM   30  O   UNL     1      25.758  45.692  51.935  1.00  0.00    -0.317 OA
BRANCH  30  31
HETATM   31  C   UNL     1      26.656  45.305  50.883  1.00  0.00     0.175 C 
HETATM   32  C   UNL     1      26.154  45.836  49.552  1.00  0.00     0.034 C 
ENDBRANCH  30  31
ENDBRANCH  28  30
ENDBRANCH   1  28
TORSDOF 9
ENDMDL
MODEL 9
REMARK VINA RESULT:      -7.5      2.740      7.538
REMARK  9 active torsions:
REMARK  status: ('A' for Active; 'I' for Inactive)
REMARK    1  A    between atoms: C_2  and  O_3 
REMARK    2  A    between atoms: O_3  and  C_4 
REMARK    3  A    between atoms: C_4  and  C_5 
REMARK    4  A    between atoms: C_10  and  N_11 
REMARK       I    between atoms: N_11  and  C_12 
REMARK    5  A    between atoms: C_12  and  C_13 
REMARK    6  A    between atoms: C_13  and  N_14 
REMARK    7  A    between atoms: C_16  and  C_17 
REMARK    8  A    between atoms: C_17  and  C_18 
REMARK    9  A    between atoms: C_18  and  O_19 
ROOT
HETATM    1  C   UNL     1      26.810  43.009  49.643  1.00  0.00     0.137 A 
HETATM    2  N   UNL     1      26.870  42.266  48.492  1.00  0.00    -0.349 N 
HETATM    3  H   UNL     1      26.500  42.565  47.598  1.00  0.00     0.166 HD
HETATM    4  C   UNL     1      27.495  41.067  48.719  1.00  0.00     0.045 A 
HETATM    5  C   UNL     1      27.852  41.027  50.074  1.00  0.00     0.021 A 
HETATM    6  C   UNL     1      27.405  42.263  50.657  1.00  0.00     0.080 A 
HETATM    7  C   UNL     1      27.758  40.029  47.815  1.00  0.00     0.032 A 
HETATM    8  C   UNL     1      28.416  38.897  48.294  1.00  0.00     0.026 A 
HETATM    9  C   UNL     1      28.795  38.819  49.626  1.00  0.00     0.035 A 
HETATM   10 CL   UNL     1      29.614  37.416  50.196  1.00  0.00    -0.084 Cl
HETATM   11  C   UNL     1      28.523  39.865  50.519  1.00  0.00     0.040 A 
ENDROOT
BRANCH   6  12
HETATM   12  N   UNL     1      27.457  42.796  51.947  1.00  0.00    -0.323 N 
HETATM   13  C   UNL     1      28.554  43.233  52.653  1.00  0.00     0.248 C 
HETATM   14  O   UNL     1      29.716  43.276  52.270  1.00  0.00    -0.271 OA
HETATM   15  H   UNL     1      26.551  42.766  52.418  1.00  0.00     0.169 HD
BRANCH  13  16
HETATM   16  C   UNL     1      28.210  43.754  54.057  1.00  0.00     0.338 C 
BRANCH  16  17
HETATM   17  N   UNL     1      29.406  44.317  54.873  1.00  0.00    -0.059 N 
HETATM   18  H   UNL     1      30.103  44.666  54.202  1.00  0.00     0.280 HD
HETATM   19  C   UNL     1      28.977  45.454  55.807  1.00  0.00     0.190 C 
HETATM   20  C   UNL     1      30.189  45.951  56.608  1.00  0.00     0.033 C 
HETATM   21  C   UNL     1      30.847  44.828  57.393  1.00  0.00     0.004 C 
HETATM   22  C   UNL     1      31.272  43.718  56.450  1.00  0.00     0.028 C 
HETATM   23  C   UNL     1      30.102  43.186  55.637  1.00  0.00     0.236 C 
BRANCH  19  24
HETATM   24  C   UNL     1      28.291  46.617  55.067  1.00  0.00     0.059 C 
BRANCH  24  25
HETATM   25  C   UNL     1      27.241  47.387  55.856  1.00  0.00     0.166 C 
BRANCH  25  26
HETATM   26  O   UNL     1      26.110  47.617  55.033  1.00  0.00    -0.401 OA
HETATM   27  H   UNL     1      25.393  47.007  55.276  1.00  0.00     0.209 HD
ENDBRANCH  25  26
ENDBRANCH  24  25
ENDBRANCH  19  24
ENDBRANCH  16  17
ENDBRANCH  13  16
ENDBRANCH   6  12
BRANCH   1  28
HETATM   28  C   UNL     1      26.210  44.319  49.732  1.00  0.00     0.312 C 
HETATM   29  O   UNL     1      26.668  45.312  49.175  1.00  0.00    -0.258 OA
BRANCH  28  30
HETATM   30  O   UNL     1      25.100  44.273  50.514  1.00  0.00    -0.317 OA
BRANCH  30  31
HETATM   31  C   UNL     1      23.859  44.602  49.871  1.00  0.00     0.175 C 
HETATM   32  C   UNL     1      22.886  43.444  50.000  1.00  0.00     0.034 C 
ENDBRANCH  30  31
ENDBRANCH  28  30
ENDBRANCH   1  28
TORSDOF 9
ENDMDL
MODEL 10
REMARK VINA RESULT:      -7.4      3.242      6.687
REMARK  9 active torsions:
REMARK  status: ('A' for Active; 'I' for Inactive)
REMARK    1  A    between atoms: C_2  and  O_3 
REMARK    2  A    between atoms: O_3  and  C_4 
REMARK    3  A    between atoms: C_4  and  C_5 
REMARK    4  A    between atoms: C_10  and  N_11 
REMARK       I    between atoms: N_11  and  C_12 
REMARK    5  A    between atoms: C_12  and  C_13 
REMARK    6  A    between atoms: C_13  and  N_14 
REMARK    7  A    between atoms: C_16  and  C_17 
REMARK    8  A    between atoms: C_17  and  C_18 
REMARK    9  A    between atoms: C_18  and  O_19 
ROOT
HETATM    1  C   UNL     1      28.043  41.484  51.720  1.00  0.00     0.137 A 
HETATM    2  N   UNL     1      29.160  41.361  52.506  1.00  0.00    -0.349 N 
HETATM    3  H   UNL     1      29.802  40.580  52.469  1.00  0.00     0.166 HD
HETATM    4  C   UNL     1      29.283  42.437  53.347  1.00  0.00     0.045 A 
HETATM    5  C   UNL     1      28.200  43.292  53.100  1.00  0.00     0.021 A 
HETATM    6  C   UNL     1      27.411  42.675  52.069  1.00  0.00     0.080 A 
HETATM    7  C   UNL     1      30.276  42.696  54.301  1.00  0.00     0.032 A 
HETATM    8  C   UNL     1      30.181  43.875  55.040  1.00  0.00     0.026 A 
HETATM    9  C   UNL     1      29.129  44.753  54.822  1.00  0.00     0.035 A 
HETATM   10 CL   UNL     1      29.034  46.207  55.740  1.00  0.00    -0.084 Cl
HETATM   11  C   UNL     1      28.142  44.480  53.866  1.00  0.00     0.040 A 
ENDROOT
BRANCH   6  12
HETATM   12  N   UNL     1      26.227  43.028  51.418  1.00  0.00    -0.323 N 
HETATM   13  C   UNL     1      26.068  43.678  50.217  1.00  0.00     0.248 C 
HETATM   14  O   UNL     1      26.947  44.050  49.450  1.00  0.00    -0.271 OA
HETATM   15  H   UNL     1      25.398  42.828  51.981  1.00  0.00     0.169 HD
BRANCH  13  16
HETATM   16  C   UNL     1      24.597  43.894  49.828  1.00  0.00     0.338 C 
BRANCH  16  17
HETATM   17  N   UNL     1      24.263  45.285  49.220  1.00  0.00    -0.059 N 
HETATM   18  H   UNL     1      24.887  45.430  48.416  1.00  0.00     0.280 HD
HETATM   19  C   UNL     1      22.803  45.373  48.761  1.00  0.00     0.190 C 
HETATM   20  C   UNL     1      22.521  46.773  48.198  1.00  0.00     0.033 C 
HETATM   21  C   UNL     1      22.835  47.863  49.210  1.00  0.00     0.004 C 
HETATM   22  C   UNL     1      24.285  47.764  49.644  1.00  0.00     0.028 C 
HETATM   23  C   UNL     1      24.613  46.394  50.218  1.00  0.00     0.236 C 
BRANCH  19  24
HETATM   24  C   UNL     1      22.424  44.282  47.743  1.00  0.00     0.059 C 
BRANCH  24  25
HETATM   25  C   UNL     1      21.313  44.637  46.763  1.00  0.00     0.166 C 
BRANCH  25  26
HETATM   26  O   UNL     1      20.119  43.980  47.149  1.00  0.00    -0.401 OA
HETATM   27  H   UNL     1      19.351  44.549  46.964  1.00  0.00     0.209 HD
ENDBRANCH  25  26
ENDBRANCH  24  25
ENDBRANCH  19  24
ENDBRANCH  16  17
ENDBRANCH  13  16
ENDBRANCH   6  12
BRANCH   1  28
HETATM   28  C   UNL     1      27.635  40.513  50.732  1.00  0.00     0.312 C 
HETATM   29  O   UNL     1      26.467  40.185  50.549  1.00  0.00    -0.258 OA
BRANCH  28  30
HETATM   30  O   UNL     1      28.721  40.036  50.070  1.00  0.00    -0.317 OA
BRANCH  30  31
HETATM   31  C   UNL     1      28.790  38.610  49.911  1.00  0.00     0.175 C 
HETATM   32  C   UNL     1      29.922  38.049  50.751  1.00  0.00     0.034 C 
ENDBRANCH  30  31
ENDBRANCH  28  30
ENDBRANCH   1  28
TORSDOF 9
ENDMDL
