MODEL 1
REMARK VINA RESULT:      -9.5      0.000      0.000
REMARK  9 active torsions:
REMARK  status: ('A' for Active; 'I' for Inactive)
REMARK       I    between atoms: C_2  and  N_3 
REMARK    1  A    between atoms: N_3  and  C_4 
REMARK    2  A    between atoms: C_4  and  C_5 
REMARK    3  A    between atoms: C_5  and  N_6 
REMARK       I    between atoms: N_6  and  C_7 
REMARK    4  A    between atoms: C_7  and  C_8 
REMARK    5  A    between atoms: C_8  and  C_9 
REMARK    6  A    between atoms: C_13  and  C_14 
REMARK    7  A    between atoms: C_14  and  O_15 
REMARK    8  A    between atoms: C_17  and  O_18 
REMARK    9  A    between atoms: C_25  and  C_26 
ROOT
HETATM    1  C   UNL     1      26.494  42.861  49.527  1.00  0.00     0.056 C 
HETATM    2  C   UNL     1      25.728  41.625  48.869  1.00  0.00    -0.030 C 
HETATM    3  C   UNL     1      24.268  41.556  49.431  1.00  0.00     0.016 C 
HETATM    4  C   UNL     1      26.405  40.224  49.190  1.00  0.00     0.012 C 
HETATM    5  C   UNL     1      27.640  39.772  48.298  1.00  0.00     0.008 C 
HETATM    6  C   UNL     1      27.594  38.212  48.231  1.00  0.00     0.020 C 
HETATM    7  C   UNL     1      27.495  40.282  46.828  1.00  0.00     0.128 C 
HETATM    8  C   UNL     1      26.060  40.669  46.483  1.00  0.00     0.033 C 
HETATM    9  C   UNL     1      25.603  41.853  47.330  1.00  0.00     0.013 C 
HETATM   10  C   UNL     1      26.590  39.995  50.714  1.00  0.00     0.054 C 
HETATM   11  C   UNL     1      27.070  41.223  51.394  1.00  0.00     0.010 A 
HETATM   12  C   UNL     1      27.003  42.510  50.909  1.00  0.00     0.054 A 
HETATM   13  N   UNL     1      27.526  43.473  51.763  1.00  0.00    -0.244 NA
HETATM   14  C   UNL     1      28.073  42.897  52.823  1.00  0.00     0.108 A 
HETATM   15  S   UNL     1      27.803  41.194  52.925  1.00  0.00    -0.072 SA
ENDROOT
BRANCH   1  16
HETATM   16  C   UNL     1      25.636  44.140  49.517  1.00  0.00     0.114 C 
BRANCH  16  17
HETATM   17  C   UNL     1      26.408  45.424  49.757  1.00  0.00     0.218 C 
HETATM   18  N   UNL     1      25.770  46.305  50.589  1.00  0.00    -0.359 N 
HETATM   19  H   UNL     1      25.147  45.889  51.284  1.00  0.00     0.162 HD
HETATM   20  O   UNL     1      27.461  45.672  49.177  1.00  0.00    -0.274 OA
BRANCH  18  21
HETATM   21  C   UNL     1      26.207  47.670  50.777  1.00  0.00     0.142 C 
BRANCH  21  22
HETATM   22  C   UNL     1      26.295  48.477  49.481  1.00  0.00     0.142 C 
BRANCH  22  23
HETATM   23  N   UNL     1      25.013  49.065  49.120  1.00  0.00    -0.360 N 
HETATM   24  C   UNL     1      24.895  49.957  48.080  1.00  0.00     0.213 C 
HETATM   25  C   UNL     1      23.520  50.548  47.915  1.00  0.00     0.117 C 
HETATM   26  O   UNL     1      25.824  50.270  47.342  1.00  0.00    -0.274 OA
HETATM   27  H   UNL     1      24.237  48.928  49.754  1.00  0.00     0.162 HD
ENDBRANCH  22  23
ENDBRANCH  21  22
ENDBRANCH  18  21
ENDBRANCH  16  17
ENDBRANCH   1  16
BRANCH   5  28
HETATM   28  C   UNL     1      29.037  40.111  48.879  1.00  0.00     0.176 C 
BRANCH  28  29
HETATM   29  O   UNL     1      29.788  38.965  49.229  1.00  0.00    -0.400 OA
HETATM   30  H   UNL     1      29.284  38.542  49.959  1.00  0.00     0.209 HD
ENDBRANCH  28  29
ENDBRANCH   5  28
BRANCH  14  31
HETATM   31  C   UNL     1      28.836  43.605  53.868  1.00  0.00    -0.000 A 
HETATM   32  C   UNL     1      29.994  43.019  54.401  1.00  0.00     0.014 A 
HETATM   33  C   UNL     1      30.714  43.642  55.424  1.00  0.00     0.001 A 
HETATM   34  C   UNL     1      30.291  44.868  55.929  1.00  0.00     0.000 A 
HETATM   35  C   UNL     1      29.146  45.469  55.417  1.00  0.00     0.001 A 
HETATM   36  C   UNL     1      28.423  44.840  54.398  1.00  0.00     0.014 A 
ENDBRANCH  14  31
BRANCH   7  37
HETATM   37  O   UNL     1      28.340  41.412  46.580  1.00  0.00    -0.395 OA
HETATM   38  H   UNL     1      29.238  41.073  46.410  1.00  0.00     0.210 HD
ENDBRANCH   7  37
TORSDOF 9
ENDMDL
MODEL 2
REMARK VINA RESULT:      -9.4      5.241     10.030
REMARK  9 active torsions:
REMARK  status: ('A' for Active; 'I' for Inactive)
REMARK       I    between atoms: C_2  and  N_3 
REMARK    1  A    between atoms: N_3  and  C_4 
REMARK    2  A    between atoms: C_4  and  C_5 
REMARK    3  A    between atoms: C_5  and  N_6 
REMARK       I    between atoms: N_6  and  C_7 
REMARK    4  A    between atoms: C_7  and  C_8 
REMARK    5  A    between atoms: C_8  and  C_9 
REMARK    6  A    between atoms: C_13  and  C_14 
REMARK    7  A    between atoms: C_14  and  O_15 
REMARK    8  A    between atoms: C_17  and  O_18 
REMARK    9  A    between atoms: C_25  and  C_26 
ROOT
HETATM    1  C   UNL     1      20.329  48.074  47.293  1.00  0.00     0.056 C 
HETATM    2  C   UNL     1      19.006  48.926  47.026  1.00  0.00    -0.030 C 
HETATM    3  C   UNL     1      19.054  49.523  45.579  1.00  0.00     0.016 C 
HETATM    4  C   UNL     1      18.838  50.153  48.020  1.00  0.00     0.012 C 
HETATM    5  C   UNL     1      18.215  49.870  49.454  1.00  0.00     0.008 C 
HETATM    6  C   UNL     1      17.448  51.166  49.870  1.00  0.00     0.020 C 
HETATM    7  C   UNL     1      17.152  48.726  49.395  1.00  0.00     0.128 C 
HETATM    8  C   UNL     1      16.638  48.478  47.980  1.00  0.00     0.033 C 
HETATM    9  C   UNL     1      17.764  47.982  47.077  1.00  0.00     0.013 C 
HETATM   10  C   UNL     1      20.085  51.079  48.027  1.00  0.00     0.054 C 
HETATM   11  C   UNL     1      21.344  50.296  48.024  1.00  0.00     0.010 A 
HETATM   12  C   UNL     1      21.489  48.974  47.664  1.00  0.00     0.054 A 
HETATM   13  N   UNL     1      22.790  48.495  47.750  1.00  0.00    -0.244 NA
HETATM   14  C   UNL     1      23.585  49.419  48.271  1.00  0.00     0.108 A 
HETATM   15  S   UNL     1      22.835  50.960  48.491  1.00  0.00    -0.072 SA
ENDROOT
BRANCH   1  16
HETATM   16  C   UNL     1      20.658  47.137  46.116  1.00  0.00     0.114 C 
BRANCH  16  17
HETATM   17  C   UNL     1      21.002  45.714  46.513  1.00  0.00     0.218 C 
HETATM   18  N   UNL     1      21.895  45.630  47.547  1.00  0.00    -0.359 N 
HETATM   19  H   UNL     1      21.884  46.407  48.210  1.00  0.00     0.162 HD
HETATM   20  O   UNL     1      20.581  44.742  45.892  1.00  0.00    -0.274 OA
BRANCH  18  21
HETATM   21  C   UNL     1      22.534  44.393  47.939  1.00  0.00     0.142 C 
BRANCH  21  22
HETATM   22  C   UNL     1      22.438  44.092  49.435  1.00  0.00     0.142 C 
BRANCH  22  23
HETATM   23  N   UNL     1      23.363  44.906  50.212  1.00  0.00    -0.360 N 
HETATM   24  C   UNL     1      24.172  44.355  51.178  1.00  0.00     0.213 C 
HETATM   25  C   UNL     1      24.985  45.354  51.957  1.00  0.00     0.117 C 
HETATM   26  O   UNL     1      24.232  43.152  51.412  1.00  0.00    -0.274 OA
HETATM   27  H   UNL     1      23.281  45.911  50.139  1.00  0.00     0.162 HD
ENDBRANCH  22  23
ENDBRANCH  21  22
ENDBRANCH  18  21
ENDBRANCH  16  17
ENDBRANCH   1  16
BRANCH   5  28
HETATM   28  C   UNL     1      19.245  49.628  50.588  1.00  0.00     0.176 C 
BRANCH  28  29
HETATM   29  O   UNL     1      18.654  49.169  51.788  1.00  0.00    -0.400 OA
HETATM   30  H   UNL     1      17.688  49.161  51.612  1.00  0.00     0.209 HD
ENDBRANCH  28  29
ENDBRANCH   5  28
BRANCH  14  31
HETATM   31  C   UNL     1      25.000  49.209  48.628  1.00  0.00    -0.000 A 
HETATM   32  C   UNL     1      25.353  48.145  49.472  1.00  0.00     0.014 A 
HETATM   33  C   UNL     1      26.679  47.945  49.866  1.00  0.00     0.001 A 
HETATM   34  C   UNL     1      27.678  48.804  49.419  1.00  0.00     0.000 A 
HETATM   35  C   UNL     1      27.352  49.866  48.581  1.00  0.00     0.001 A 
HETATM   36  C   UNL     1      26.024  50.068  48.193  1.00  0.00     0.014 A 
ENDBRANCH  14  31
BRANCH   7  37
HETATM   37  O   UNL     1      17.679  47.496  49.906  1.00  0.00    -0.395 OA
HETATM   38  H   UNL     1      17.327  47.381  50.809  1.00  0.00     0.210 HD
ENDBRANCH   7  37
TORSDOF 9
ENDMDL
MODEL 3
REMARK VINA RESULT:      -9.2      5.014     10.042
REMARK  9 active torsions:
REMARK  status: ('A' for Active; 'I' for Inactive)
REMARK       I    between atoms: C_2  and  N_3 
REMARK    1  A    between atoms: N_3  and  C_4 
REMARK    2  A    between atoms: C_4  and  C_5 
REMARK    3  A    between atoms: C_5  and  N_6 
REMARK       I    between atoms: N_6  and  C_7 
REMARK    4  A    between atoms: C_7  and  C_8 
REMARK    5  A    between atoms: C_8  and  C_9 
REMARK    6  A    between atoms: C_13  and  C_14 
REMARK    7  A    between atoms: C_14  and  O_15 
REMARK    8  A    between atoms: C_17  and  O_18 
REMARK    9  A    between atoms: C_25  and  C_26 
ROOT
HETATM    1  C   UNL     1      20.291  48.076  47.318  1.00  0.00     0.056 C 
HETATM    2  C   UNL     1      18.971  48.930  47.042  1.00  0.00    -0.030 C 
HETATM    3  C   UNL     1      19.038  49.543  45.603  1.00  0.00     0.016 C 
HETATM    4  C   UNL     1      18.790  50.147  48.047  1.00  0.00     0.012 C 
HETATM    5  C   UNL     1      18.149  49.849  49.469  1.00  0.00     0.008 C 
HETATM    6  C   UNL     1      17.375  51.140  49.888  1.00  0.00     0.020 C 
HETATM    7  C   UNL     1      17.087  48.705  49.384  1.00  0.00     0.128 C 
HETATM    8  C   UNL     1      16.591  48.472  47.961  1.00  0.00     0.033 C 
HETATM    9  C   UNL     1      17.729  47.985  47.067  1.00  0.00     0.013 C 
HETATM   10  C   UNL     1      20.036  51.073  48.080  1.00  0.00     0.054 C 
HETATM   11  C   UNL     1      21.295  50.291  48.085  1.00  0.00     0.010 A 
HETATM   12  C   UNL     1      21.446  48.973  47.713  1.00  0.00     0.054 A 
HETATM   13  N   UNL     1      22.746  48.493  47.811  1.00  0.00    -0.244 NA
HETATM   14  C   UNL     1      23.533  49.412  48.352  1.00  0.00     0.108 A 
HETATM   15  S   UNL     1      22.780  50.950  48.578  1.00  0.00    -0.072 SA
ENDROOT
BRANCH   1  16
HETATM   16  C   UNL     1      20.636  47.152  46.135  1.00  0.00     0.114 C 
BRANCH  16  17
HETATM   17  C   UNL     1      20.994  45.729  46.523  1.00  0.00     0.218 C 
HETATM   18  N   UNL     1      22.339  45.517  46.665  1.00  0.00    -0.359 N 
HETATM   19  H   UNL     1      22.891  46.329  46.948  1.00  0.00     0.162 HD
HETATM   20  O   UNL     1      20.149  44.842  46.608  1.00  0.00    -0.274 OA
BRANCH  18  21
HETATM   21  C   UNL     1      22.919  44.200  46.806  1.00  0.00     0.142 C 
BRANCH  21  22
HETATM   22  C   UNL     1      23.246  43.818  48.250  1.00  0.00     0.142 C 
BRANCH  22  23
HETATM   23  N   UNL     1      24.681  43.814  48.498  1.00  0.00    -0.360 N 
HETATM   24  C   UNL     1      25.215  44.326  49.657  1.00  0.00     0.213 C 
HETATM   25  C   UNL     1      26.720  44.340  49.701  1.00  0.00     0.117 C 
HETATM   26  O   UNL     1      24.539  44.754  50.588  1.00  0.00    -0.274 OA
HETATM   27  H   UNL     1      25.291  43.573  47.728  1.00  0.00     0.162 HD
ENDBRANCH  22  23
ENDBRANCH  21  22
ENDBRANCH  18  21
ENDBRANCH  16  17
ENDBRANCH   1  16
BRANCH   5  28
HETATM   28  C   UNL     1      19.163  49.595  50.615  1.00  0.00     0.176 C 
BRANCH  28  29
HETATM   29  O   UNL     1      18.557  49.126  51.803  1.00  0.00    -0.400 OA
HETATM   30  H   UNL     1      19.272  48.661  52.289  1.00  0.00     0.209 HD
ENDBRANCH  28  29
ENDBRANCH   5  28
BRANCH  14  31
HETATM   31  C   UNL     1      24.943  49.198  48.726  1.00  0.00    -0.000 A 
HETATM   32  C   UNL     1      25.935  50.048  48.210  1.00  0.00     0.014 A 
HETATM   33  C   UNL     1      27.285  49.845  48.508  1.00  0.00     0.001 A 
HETATM   34  C   UNL     1      27.669  48.791  49.332  1.00  0.00     0.000 A 
HETATM   35  C   UNL     1      26.704  47.937  49.855  1.00  0.00     0.001 A 
HETATM   36  C   UNL     1      25.354  48.136  49.551  1.00  0.00     0.014 A 
ENDBRANCH  14  31
BRANCH   7  37
HETATM   37  O   UNL     1      17.607  47.470  49.890  1.00  0.00    -0.395 OA
HETATM   38  H   UNL     1      17.037  46.753  49.553  1.00  0.00     0.210 HD
ENDBRANCH   7  37
TORSDOF 9
ENDMDL
MODEL 4
REMARK VINA RESULT:      -8.6      6.639     10.511
REMARK  9 active torsions:
REMARK  status: ('A' for Active; 'I' for Inactive)
REMARK       I    between atoms: C_2  and  N_3 
REMARK    1  A    between atoms: N_3  and  C_4 
REMARK    2  A    between atoms: C_4  and  C_5 
REMARK    3  A    between atoms: C_5  and  N_6 
REMARK       I    between atoms: N_6  and  C_7 
REMARK    4  A    between atoms: C_7  and  C_8 
REMARK    5  A    between atoms: C_8  and  C_9 
REMARK    6  A    between atoms: C_13  and  C_14 
REMARK    7  A    between atoms: C_14  and  O_15 
REMARK    8  A    between atoms: C_17  and  O_18 
REMARK    9  A    between atoms: C_25  and  C_26 
ROOT
HETATM    1  C   UNL     1      20.317  48.153  47.312  1.00  0.00     0.056 C 
HETATM    2  C   UNL     1      19.008  49.028  47.049  1.00  0.00    -0.030 C 
HETATM    3  C   UNL     1      19.085  49.668  45.622  1.00  0.00     0.016 C 
HETATM    4  C   UNL     1      18.838  50.227  48.077  1.00  0.00     0.012 C 
HETATM    5  C   UNL     1      18.190  49.909  49.492  1.00  0.00     0.008 C 
HETATM    6  C   UNL     1      17.430  51.200  49.934  1.00  0.00     0.020 C 
HETATM    7  C   UNL     1      17.115  48.779  49.383  1.00  0.00     0.128 C 
HETATM    8  C   UNL     1      16.620  48.579  47.953  1.00  0.00     0.033 C 
HETATM    9  C   UNL     1      17.755  48.097  47.053  1.00  0.00     0.013 C 
HETATM   10  C   UNL     1      20.094  51.138  48.131  1.00  0.00     0.054 C 
HETATM   11  C   UNL     1      21.345  50.341  48.124  1.00  0.00     0.010 A 
HETATM   12  C   UNL     1      21.481  49.029  47.727  1.00  0.00     0.054 A 
HETATM   13  N   UNL     1      22.775  48.533  47.818  1.00  0.00    -0.244 NA
HETATM   14  C   UNL     1      23.571  49.432  48.379  1.00  0.00     0.108 A 
HETATM   15  S   UNL     1      22.836  50.974  48.633  1.00  0.00    -0.072 SA
ENDROOT
BRANCH   1  16
HETATM   16  C   UNL     1      20.654  47.248  46.112  1.00  0.00     0.114 C 
BRANCH  16  17
HETATM   17  C   UNL     1      20.860  45.786  46.457  1.00  0.00     0.218 C 
HETATM   18  N   UNL     1      21.008  44.975  45.364  1.00  0.00    -0.359 N 
HETATM   19  H   UNL     1      21.411  45.415  44.534  1.00  0.00     0.162 HD
HETATM   20  O   UNL     1      20.803  45.372  47.612  1.00  0.00    -0.274 OA
BRANCH  18  21
HETATM   21  C   UNL     1      20.988  43.532  45.443  1.00  0.00     0.142 C 
BRANCH  21  22
HETATM   22  C   UNL     1      19.612  42.946  45.761  1.00  0.00     0.142 C 
BRANCH  22  23
HETATM   23  N   UNL     1      18.560  43.578  44.978  1.00  0.00    -0.360 N 
HETATM   24  C   UNL     1      17.545  44.290  45.573  1.00  0.00     0.213 C 
HETATM   25  C   UNL     1      16.486  44.783  44.624  1.00  0.00     0.117 C 
HETATM   26  O   UNL     1      17.482  44.507  46.779  1.00  0.00    -0.274 OA
HETATM   27  H   UNL     1      18.501  43.346  43.995  1.00  0.00     0.162 HD
ENDBRANCH  22  23
ENDBRANCH  21  22
ENDBRANCH  18  21
ENDBRANCH  16  17
ENDBRANCH   1  16
BRANCH   5  28
HETATM   28  C   UNL     1      19.198  49.621  50.635  1.00  0.00     0.176 C 
BRANCH  28  29
HETATM   29  O   UNL     1      18.584  49.134  51.811  1.00  0.00    -0.400 OA
HETATM   30  H   UNL     1      17.726  49.611  51.869  1.00  0.00     0.209 HD
ENDBRANCH  28  29
ENDBRANCH   5  28
BRANCH  14  31
HETATM   31  C   UNL     1      24.978  49.195  48.751  1.00  0.00    -0.000 A 
HETATM   32  C   UNL     1      25.980  50.049  48.264  1.00  0.00     0.014 A 
HETATM   33  C   UNL     1      27.327  49.826  48.560  1.00  0.00     0.001 A 
HETATM   34  C   UNL     1      27.698  48.746  49.356  1.00  0.00     0.000 A 
HETATM   35  C   UNL     1      26.723  47.886  49.852  1.00  0.00     0.001 A 
HETATM   36  C   UNL     1      25.376  48.107  49.548  1.00  0.00     0.014 A 
ENDBRANCH  14  31
BRANCH   7  37
HETATM   37  O   UNL     1      17.620  47.528  49.865  1.00  0.00    -0.395 OA
HETATM   38  H   UNL     1      17.947  47.676  50.772  1.00  0.00     0.210 HD
ENDBRANCH   7  37
TORSDOF 9
ENDMDL
MODEL 5
REMARK VINA RESULT:      -8.5      5.354     10.308
REMARK  9 active torsions:
REMARK  status: ('A' for Active; 'I' for Inactive)
REMARK       I    between atoms: C_2  and  N_3 
REMARK    1  A    between atoms: N_3  and  C_4 
REMARK    2  A    between atoms: C_4  and  C_5 
REMARK    3  A    between atoms: C_5  and  N_6 
REMARK       I    between atoms: N_6  and  C_7 
REMARK    4  A    between atoms: C_7  and  C_8 
REMARK    5  A    between atoms: C_8  and  C_9 
REMARK    6  A    between atoms: C_13  and  C_14 
REMARK    7  A    between atoms: C_14  and  O_15 
REMARK    8  A    between atoms: C_17  and  O_18 
REMARK    9  A    between atoms: C_25  and  C_26 
ROOT
HETATM    1  C   UNL     1      20.308  48.044  47.343  1.00  0.00     0.056 C 
HETATM    2  C   UNL     1      18.990  48.901  47.062  1.00  0.00    -0.030 C 
HETATM    3  C   UNL     1      19.040  49.470  45.604  1.00  0.00     0.016 C 
HETATM    4  C   UNL     1      18.834  50.149  48.033  1.00  0.00     0.012 C 
HETATM    5  C   UNL     1      18.212  49.897  49.473  1.00  0.00     0.008 C 
HETATM    6  C   UNL     1      17.455  51.206  49.865  1.00  0.00     0.020 C 
HETATM    7  C   UNL     1      17.140  48.760  49.438  1.00  0.00     0.128 C 
HETATM    8  C   UNL     1      16.621  48.489  48.029  1.00  0.00     0.033 C 
HETATM    9  C   UNL     1      17.742  47.967  47.134  1.00  0.00     0.013 C 
HETATM   10  C   UNL     1      20.087  51.065  48.020  1.00  0.00     0.054 C 
HETATM   11  C   UNL     1      21.341  50.273  48.029  1.00  0.00     0.010 A 
HETATM   12  C   UNL     1      21.475  48.943  47.694  1.00  0.00     0.054 A 
HETATM   13  N   UNL     1      22.773  48.457  47.787  1.00  0.00    -0.244 NA
HETATM   14  C   UNL     1      23.575  49.384  48.289  1.00  0.00     0.108 A 
HETATM   15  S   UNL     1      22.838  50.934  48.480  1.00  0.00    -0.072 SA
ENDROOT
BRANCH   1  16
HETATM   16  C   UNL     1      20.628  47.083  46.183  1.00  0.00     0.114 C 
BRANCH  16  17
HETATM   17  C   UNL     1      20.644  45.614  46.561  1.00  0.00     0.218 C 
HETATM   18  N   UNL     1      20.014  44.803  45.656  1.00  0.00    -0.359 N 
HETATM   19  H   UNL     1      20.015  45.131  44.688  1.00  0.00     0.162 HD
HETATM   20  O   UNL     1      21.102  45.218  47.629  1.00  0.00    -0.274 OA
BRANCH  18  21
HETATM   21  C   UNL     1      19.711  43.414  45.917  1.00  0.00     0.142 C 
BRANCH  21  22
HETATM   22  C   UNL     1      20.807  42.445  45.473  1.00  0.00     0.142 C 
BRANCH  22  23
HETATM   23  N   UNL     1      21.787  42.216  46.526  1.00  0.00    -0.360 N 
HETATM   24  C   UNL     1      23.075  42.690  46.429  1.00  0.00     0.213 C 
HETATM   25  C   UNL     1      23.982  42.271  47.554  1.00  0.00     0.117 C 
HETATM   26  O   UNL     1      23.476  43.388  45.503  1.00  0.00    -0.274 OA
HETATM   27  H   UNL     1      21.547  41.562  47.258  1.00  0.00     0.162 HD
ENDBRANCH  22  23
ENDBRANCH  21  22
ENDBRANCH  18  21
ENDBRANCH  16  17
ENDBRANCH   1  16
BRANCH   5  28
HETATM   28  C   UNL     1      19.242  49.669  50.610  1.00  0.00     0.176 C 
BRANCH  28  29
HETATM   29  O   UNL     1      18.652  49.220  51.814  1.00  0.00    -0.400 OA
HETATM   30  H   UNL     1      17.825  48.766  51.541  1.00  0.00     0.209 HD
ENDBRANCH  28  29
ENDBRANCH   5  28
BRANCH  14  31
HETATM   31  C   UNL     1      24.989  49.170  48.647  1.00  0.00    -0.000 A 
HETATM   32  C   UNL     1      25.338  48.111  49.499  1.00  0.00     0.014 A 
HETATM   33  C   UNL     1      26.663  47.909  49.894  1.00  0.00     0.001 A 
HETATM   34  C   UNL     1      27.666  48.760  49.440  1.00  0.00     0.000 A 
HETATM   35  C   UNL     1      27.345  49.817  48.594  1.00  0.00     0.001 A 
HETATM   36  C   UNL     1      26.017  50.022  48.205  1.00  0.00     0.014 A 
ENDBRANCH  14  31
BRANCH   7  37
HETATM   37  O   UNL     1      17.659  47.536  49.972  1.00  0.00    -0.395 OA
HETATM   38  H   UNL     1      17.291  46.807  49.439  1.00  0.00     0.210 HD
ENDBRANCH   7  37
TORSDOF 9
ENDMDL
MODEL 6
REMARK VINA RESULT:      -8.1      4.596     10.024
REMARK  9 active torsions:
REMARK  status: ('A' for Active; 'I' for Inactive)
REMARK       I    between atoms: C_2  and  N_3 
REMARK    1  A    between atoms: N_3  and  C_4 
REMARK    2  A    between atoms: C_4  and  C_5 
REMARK    3  A    between atoms: C_5  and  N_6 
REMARK       I    between atoms: N_6  and  C_7 
REMARK    4  A    between atoms: C_7  and  C_8 
REMARK    5  A    between atoms: C_8  and  C_9 
REMARK    6  A    between atoms: C_13  and  C_14 
REMARK    7  A    between atoms: C_14  and  O_15 
REMARK    8  A    between atoms: C_17  and  O_18 
REMARK    9  A    between atoms: C_25  and  C_26 
ROOT
HETATM    1  C   UNL     1      20.845  49.455  48.384  1.00  0.00     0.056 C 
HETATM    2  C   UNL     1      19.513  50.211  48.834  1.00  0.00    -0.030 C 
HETATM    3  C   UNL     1      19.506  50.372  50.392  1.00  0.00     0.016 C 
HETATM    4  C   UNL     1      18.186  49.424  48.452  1.00  0.00     0.012 C 
HETATM    5  C   UNL     1      17.627  49.583  46.974  1.00  0.00     0.008 C 
HETATM    6  C   UNL     1      16.074  49.445  47.068  1.00  0.00     0.020 C 
HETATM    7  C   UNL     1      17.911  51.012  46.410  1.00  0.00     0.128 C 
HETATM    8  C   UNL     1      18.219  52.024  47.509  1.00  0.00     0.033 C 
HETATM    9  C   UNL     1      19.509  51.652  48.237  1.00  0.00     0.013 C 
HETATM   10  C   UNL     1      18.190  47.968  48.991  1.00  0.00     0.054 C 
HETATM   11  C   UNL     1      19.512  47.323  48.805  1.00  0.00     0.010 A 
HETATM   12  C   UNL     1      20.712  47.959  48.576  1.00  0.00     0.054 A 
HETATM   13  N   UNL     1      21.799  47.104  48.447  1.00  0.00    -0.244 NA
HETATM   14  C   UNL     1      21.395  45.842  48.471  1.00  0.00     0.108 A 
HETATM   15  S   UNL     1      19.722  45.638  48.849  1.00  0.00    -0.072 SA
ENDROOT
BRANCH   1  16
HETATM   16  C   UNL     1      22.095  50.033  49.075  1.00  0.00     0.114 C 
BRANCH  16  17
HETATM   17  C   UNL     1      23.399  49.784  48.340  1.00  0.00     0.218 C 
HETATM   18  N   UNL     1      24.342  49.136  49.092  1.00  0.00    -0.359 N 
HETATM   19  H   UNL     1      23.982  48.513  49.818  1.00  0.00     0.162 HD
HETATM   20  O   UNL     1      23.604  50.213  47.208  1.00  0.00    -0.274 OA
BRANCH  18  21
HETATM   21  C   UNL     1      25.720  48.997  48.679  1.00  0.00     0.142 C 
BRANCH  21  22
HETATM   22  C   UNL     1      26.623  48.360  49.737  1.00  0.00     0.142 C 
BRANCH  22  23
HETATM   23  N   UNL     1      26.830  46.940  49.488  1.00  0.00    -0.360 N 
HETATM   24  C   UNL     1      25.893  46.000  49.847  1.00  0.00     0.213 C 
HETATM   25  C   UNL     1      26.315  44.574  49.615  1.00  0.00     0.117 C 
HETATM   26  O   UNL     1      24.800  46.278  50.331  1.00  0.00    -0.274 OA
HETATM   27  H   UNL     1      27.750  46.643  49.191  1.00  0.00     0.162 HD
ENDBRANCH  22  23
ENDBRANCH  21  22
ENDBRANCH  18  21
ENDBRANCH  16  17
ENDBRANCH   1  16
BRANCH   5  28
HETATM   28  C   UNL     1      18.071  48.482  45.975  1.00  0.00     0.176 C 
BRANCH  28  29
HETATM   29  O   UNL     1      17.046  47.554  45.677  1.00  0.00    -0.400 OA
HETATM   30  H   UNL     1      16.236  48.096  45.559  1.00  0.00     0.209 HD
ENDBRANCH  28  29
ENDBRANCH   5  28
BRANCH  14  31
HETATM   31  C   UNL     1      22.263  44.675  48.228  1.00  0.00    -0.000 A 
HETATM   32  C   UNL     1      22.781  44.450  46.943  1.00  0.00     0.014 A 
HETATM   33  C   UNL     1      23.569  43.329  46.668  1.00  0.00     0.001 A 
HETATM   34  C   UNL     1      23.858  42.413  47.676  1.00  0.00     0.000 A 
HETATM   35  C   UNL     1      23.355  42.615  48.958  1.00  0.00     0.001 A 
HETATM   36  C   UNL     1      22.561  43.734  49.229  1.00  0.00     0.014 A 
ENDBRANCH  14  31
BRANCH   7  37
HETATM   37  O   UNL     1      19.005  51.002  45.485  1.00  0.00    -0.395 OA
HETATM   38  H   UNL     1      19.470  50.151  45.593  1.00  0.00     0.210 HD
ENDBRANCH   7  37
TORSDOF 9
ENDMDL
MODEL 7
REMARK VINA RESULT:      -8.0      7.376     12.683
REMARK  9 active torsions:
REMARK  status: ('A' for Active; 'I' for Inactive)
REMARK       I    between atoms: C_2  and  N_3 
REMARK    1  A    between atoms: N_3  and  C_4 
REMARK    2  A    between atoms: C_4  and  C_5 
REMARK    3  A    between atoms: C_5  and  N_6 
REMARK       I    between atoms: N_6  and  C_7 
REMARK    4  A    between atoms: C_7  and  C_8 
REMARK    5  A    between atoms: C_8  and  C_9 
REMARK    6  A    between atoms: C_13  and  C_14 
REMARK    7  A    between atoms: C_14  and  O_15 
REMARK    8  A    between atoms: C_17  and  O_18 
REMARK    9  A    between atoms: C_25  and  C_26 
ROOT
HETATM    1  C   UNL     1      19.104  48.110  47.426  1.00  0.00     0.056 C 
HETATM    2  C   UNL     1      18.133  48.287  48.681  1.00  0.00    -0.030 C 
HETATM    3  C   UNL     1      17.207  47.030  48.804  1.00  0.00     0.016 C 
HETATM    4  C   UNL     1      17.175  49.548  48.559  1.00  0.00     0.012 C 
HETATM    5  C   UNL     1      17.758  50.967  48.970  1.00  0.00     0.008 C 
HETATM    6  C   UNL     1      16.557  51.799  49.523  1.00  0.00     0.020 C 
HETATM    7  C   UNL     1      18.786  50.843  50.140  1.00  0.00     0.128 C 
HETATM    8  C   UNL     1      18.652  49.525  50.897  1.00  0.00     0.033 C 
HETATM    9  C   UNL     1      18.983  48.345  49.988  1.00  0.00     0.013 C 
HETATM   10  C   UNL     1      16.357  49.541  47.240  1.00  0.00     0.054 C 
HETATM   11  C   UNL     1      17.192  49.132  46.085  1.00  0.00     0.010 A 
HETATM   12  C   UNL     1      18.393  48.461  46.136  1.00  0.00     0.054 A 
HETATM   13  N   UNL     1      18.958  48.199  44.894  1.00  0.00    -0.244 NA
HETATM   14  C   UNL     1      18.239  48.764  43.935  1.00  0.00     0.108 A 
HETATM   15  S   UNL     1      16.754  49.461  44.477  1.00  0.00    -0.072 SA
ENDROOT
BRANCH   1  16
HETATM   16  C   UNL     1      19.746  46.710  47.388  1.00  0.00     0.114 C 
BRANCH  16  17
HETATM   17  C   UNL     1      21.262  46.705  47.446  1.00  0.00     0.218 C 
HETATM   18  N   UNL     1      21.769  46.967  48.690  1.00  0.00    -0.359 N 
HETATM   19  H   UNL     1      21.180  46.693  49.478  1.00  0.00     0.162 HD
HETATM   20  O   UNL     1      21.955  46.568  46.441  1.00  0.00    -0.274 OA
BRANCH  18  21
HETATM   21  C   UNL     1      23.169  47.234  48.931  1.00  0.00     0.142 C 
BRANCH  21  22
HETATM   22  C   UNL     1      23.550  48.711  48.806  1.00  0.00     0.142 C 
BRANCH  22  23
HETATM   23  N   UNL     1      24.950  48.939  49.137  1.00  0.00    -0.360 N 
HETATM   24  C   UNL     1      25.789  49.624  48.290  1.00  0.00     0.213 C 
HETATM   25  C   UNL     1      27.226  49.674  48.737  1.00  0.00     0.117 C 
HETATM   26  O   UNL     1      25.421  50.148  47.243  1.00  0.00    -0.274 OA
HETATM   27  H   UNL     1      25.333  48.442  49.930  1.00  0.00     0.162 HD
ENDBRANCH  22  23
ENDBRANCH  21  22
ENDBRANCH  18  21
ENDBRANCH  16  17
ENDBRANCH   1  16
BRANCH   5  28
HETATM   28  C   UNL     1      18.331  51.812  47.801  1.00  0.00     0.176 C 
BRANCH  28  29
HETATM   29  O   UNL     1      18.657  53.136  48.178  1.00  0.00    -0.400 OA
HETATM   30  H   UNL     1      19.619  53.224  48.000  1.00  0.00     0.209 HD
ENDBRANCH  28  29
ENDBRANCH   5  28
BRANCH  14  31
HETATM   31  C   UNL     1      18.616  48.803  42.510  1.00  0.00    -0.000 A 
HETATM   32  C   UNL     1      18.561  50.018  41.809  1.00  0.00     0.014 A 
HETATM   33  C   UNL     1      18.868  50.080  40.447  1.00  0.00     0.001 A 
HETATM   34  C   UNL     1      19.240  48.928  39.761  1.00  0.00     0.000 A 
HETATM   35  C   UNL     1      19.302  47.712  40.434  1.00  0.00     0.001 A 
HETATM   36  C   UNL     1      18.987  47.650  41.796  1.00  0.00     0.014 A 
ENDBRANCH  14  31
BRANCH   7  37
HETATM   37  O   UNL     1      20.134  50.957  49.667  1.00  0.00    -0.395 OA
HETATM   38  H   UNL     1      20.458  51.841  49.921  1.00  0.00     0.210 HD
ENDBRANCH   7  37
TORSDOF 9
ENDMDL
MODEL 8
REMARK VINA RESULT:      -8.0      4.588      7.961
REMARK  9 active torsions:
REMARK  status: ('A' for Active; 'I' for Inactive)
REMARK       I    between atoms: C_2  and  N_3 
REMARK    1  A    between atoms: N_3  and  C_4 
REMARK    2  A    between atoms: C_4  and  C_5 
REMARK    3  A    between atoms: C_5  and  N_6 
REMARK       I    between atoms: N_6  and  C_7 
REMARK    4  A    between atoms: C_7  and  C_8 
REMARK    5  A    between atoms: C_8  and  C_9 
REMARK    6  A    between atoms: C_13  and  C_14 
REMARK    7  A    between atoms: C_14  and  O_15 
REMARK    8  A    between atoms: C_17  and  O_18 
REMARK    9  A    between atoms: C_25  and  C_26 
ROOT
HETATM    1  C   UNL     1      22.142  44.518  47.922  1.00  0.00     0.056 C 
HETATM    2  C   UNL     1      21.417  45.202  46.675  1.00  0.00    -0.030 C 
HETATM    3  C   UNL     1      22.429  45.329  45.488  1.00  0.00     0.016 C 
HETATM    4  C   UNL     1      20.890  46.669  46.984  1.00  0.00     0.012 C 
HETATM    5  C   UNL     1      19.490  46.817  47.720  1.00  0.00     0.008 C 
HETATM    6  C   UNL     1      18.858  48.152  47.209  1.00  0.00     0.020 C 
HETATM    7  C   UNL     1      18.507  45.676  47.306  1.00  0.00     0.128 C 
HETATM    8  C   UNL     1      18.921  44.989  46.008  1.00  0.00     0.033 C 
HETATM    9  C   UNL     1      20.261  44.278  46.178  1.00  0.00     0.013 C 
HETATM   10  C   UNL     1      22.011  47.593  47.531  1.00  0.00     0.054 C 
HETATM   11  C   UNL     1      22.862  46.889  48.520  1.00  0.00     0.010 A 
HETATM   12  C   UNL     1      22.971  45.527  48.688  1.00  0.00     0.054 A 
HETATM   13  N   UNL     1      23.852  45.141  49.691  1.00  0.00    -0.244 NA
HETATM   14  C   UNL     1      24.310  46.206  50.333  1.00  0.00     0.108 A 
HETATM   15  S   UNL     1      23.852  47.714  49.627  1.00  0.00    -0.072 SA
ENDROOT
BRANCH   1  16
HETATM   16  C   UNL     1      22.954  43.277  47.505  1.00  0.00     0.114 C 
BRANCH  16  17
HETATM   17  C   UNL     1      23.139  42.242  48.598  1.00  0.00     0.218 C 
HETATM   18  N   UNL     1      24.378  42.269  49.181  1.00  0.00    -0.359 N 
HETATM   19  H   UNL     1      24.849  43.175  49.185  1.00  0.00     0.162 HD
HETATM   20  O   UNL     1      22.279  41.405  48.859  1.00  0.00    -0.274 OA
BRANCH  18  21
HETATM   21  C   UNL     1      24.850  41.238  50.077  1.00  0.00     0.142 C 
BRANCH  21  22
HETATM   22  C   UNL     1      26.374  41.132  50.154  1.00  0.00     0.142 C 
BRANCH  22  23
HETATM   23  N   UNL     1      26.830  40.839  51.505  1.00  0.00    -0.360 N 
HETATM   24  C   UNL     1      27.753  41.633  52.144  1.00  0.00     0.213 C 
HETATM   25  C   UNL     1      28.191  41.124  53.491  1.00  0.00     0.117 C 
HETATM   26  O   UNL     1      28.206  42.669  51.668  1.00  0.00    -0.274 OA
HETATM   27  H   UNL     1      26.574  39.946  51.905  1.00  0.00     0.162 HD
ENDBRANCH  22  23
ENDBRANCH  21  22
ENDBRANCH  18  21
ENDBRANCH  16  17
ENDBRANCH   1  16
BRANCH   5  28
HETATM   28  C   UNL     1      19.565  46.969  49.262  1.00  0.00     0.176 C 
BRANCH  28  29
HETATM   29  O   UNL     1      18.337  47.363  49.843  1.00  0.00    -0.400 OA
HETATM   30  H   UNL     1      18.094  48.199  49.386  1.00  0.00     0.209 HD
ENDBRANCH  28  29
ENDBRANCH   5  28
BRANCH  14  31
HETATM   31  C   UNL     1      25.160  46.162  51.537  1.00  0.00    -0.000 A 
HETATM   32  C   UNL     1      25.316  44.955  52.236  1.00  0.00     0.014 A 
HETATM   33  C   UNL     1      26.078  44.890  53.405  1.00  0.00     0.001 A 
HETATM   34  C   UNL     1      26.703  46.033  53.896  1.00  0.00     0.000 A 
HETATM   35  C   UNL     1      26.564  47.241  53.221  1.00  0.00     0.001 A 
HETATM   36  C   UNL     1      25.795  47.306  52.055  1.00  0.00     0.014 A 
ENDBRANCH  14  31
BRANCH   7  37
HETATM   37  O   UNL     1      18.401  44.679  48.330  1.00  0.00    -0.395 OA
HETATM   38  H   UNL     1      17.923  45.081  49.079  1.00  0.00     0.210 HD
ENDBRANCH   7  37
TORSDOF 9
ENDMDL
MODEL 9
REMARK VINA RESULT:      -8.0     11.625     14.898
REMARK  9 active torsions:
REMARK  status: ('A' for Active; 'I' for Inactive)
REMARK       I    between atoms: C_2  and  N_3 
REMARK    1  A    between atoms: N_3  and  C_4 
REMARK    2  A    between atoms: C_4  and  C_5 
REMARK    3  A    between atoms: C_5  and  N_6 
REMARK       I    between atoms: N_6  and  C_7 
REMARK    4  A    between atoms: C_7  and  C_8 
REMARK    5  A    between atoms: C_8  and  C_9 
REMARK    6  A    between atoms: C_13  and  C_14 
REMARK    7  A    between atoms: C_14  and  O_15 
REMARK    8  A    between atoms: C_17  and  O_18 
REMARK    9  A    between atoms: C_25  and  C_26 
ROOT
HETATM    1  C   UNL     1      31.306  50.695  41.706  1.00  0.00     0.056 C 
HETATM    2  C   UNL     1      30.211  49.671  41.157  1.00  0.00    -0.030 C 
HETATM    3  C   UNL     1      30.846  48.245  41.033  1.00  0.00     0.016 C 
HETATM    4  C   UNL     1      29.663  50.052  39.716  1.00  0.00     0.012 C 
HETATM    5  C   UNL     1      28.510  51.140  39.622  1.00  0.00     0.008 C 
HETATM    6  C   UNL     1      27.649  50.770  38.372  1.00  0.00     0.020 C 
HETATM    7  C   UNL     1      27.554  51.063  40.856  1.00  0.00     0.128 C 
HETATM    8  C   UNL     1      27.657  49.731  41.592  1.00  0.00     0.033 C 
HETATM    9  C   UNL     1      29.049  49.553  42.192  1.00  0.00     0.013 C 
HETATM   10  C   UNL     1      30.805  50.228  38.679  1.00  0.00     0.054 C 
HETATM   11  C   UNL     1      31.952  50.971  39.255  1.00  0.00     0.010 A 
HETATM   12  C   UNL     1      32.222  51.159  40.593  1.00  0.00     0.054 A 
HETATM   13  N   UNL     1      33.372  51.893  40.849  1.00  0.00    -0.244 NA
HETATM   14  C   UNL     1      33.894  52.339  39.715  1.00  0.00     0.108 A 
HETATM   15  S   UNL     1      33.130  51.725  38.292  1.00  0.00    -0.072 SA
ENDROOT
BRANCH   1  16
HETATM   16  C   UNL     1      32.078  50.121  42.909  1.00  0.00     0.114 C 
BRANCH  16  17
HETATM   17  C   UNL     1      32.689  51.163  43.828  1.00  0.00     0.218 C 
HETATM   18  N   UNL     1      33.996  51.452  43.544  1.00  0.00    -0.359 N 
HETATM   19  H   UNL     1      34.277  51.334  42.569  1.00  0.00     0.162 HD
HETATM   20  O   UNL     1      32.079  51.625  44.789  1.00  0.00    -0.274 OA
BRANCH  18  21
HETATM   21  C   UNL     1      34.838  52.237  44.418  1.00  0.00     0.142 C 
BRANCH  21  22
HETATM   22  C   UNL     1      36.261  52.438  43.894  1.00  0.00     0.142 C 
BRANCH  22  23
HETATM   23  N   UNL     1      36.901  53.600  44.496  1.00  0.00    -0.360 N 
HETATM   24  C   UNL     1      37.793  53.475  45.535  1.00  0.00     0.213 C 
HETATM   25  C   UNL     1      38.275  54.781  46.107  1.00  0.00     0.117 C 
HETATM   26  O   UNL     1      38.168  52.396  45.985  1.00  0.00    -0.274 OA
HETATM   27  H   UNL     1      36.553  54.514  44.241  1.00  0.00     0.162 HD
ENDBRANCH  22  23
ENDBRANCH  21  22
ENDBRANCH  18  21
ENDBRANCH  16  17
ENDBRANCH   1  16
BRANCH   5  28
HETATM   28  C   UNL     1      28.988  52.593  39.367  1.00  0.00     0.176 C 
BRANCH  28  29
HETATM   29  O   UNL     1      28.607  53.092  38.100  1.00  0.00    -0.400 OA
HETATM   30  H   UNL     1      28.606  52.309  37.506  1.00  0.00     0.209 HD
ENDBRANCH  28  29
ENDBRANCH   5  28
BRANCH  14  31
HETATM   31  C   UNL     1      35.040  53.261  39.619  1.00  0.00    -0.000 A 
HETATM   32  C   UNL     1      36.297  52.859  40.099  1.00  0.00     0.014 A 
HETATM   33  C   UNL     1      37.393  53.725  40.064  1.00  0.00     0.001 A 
HETATM   34  C   UNL     1      37.255  55.008  39.544  1.00  0.00     0.000 A 
HETATM   35  C   UNL     1      36.019  55.429  39.062  1.00  0.00     0.001 A 
HETATM   36  C   UNL     1      34.921  54.563  39.104  1.00  0.00     0.014 A 
ENDBRANCH  14  31
BRANCH   7  37
HETATM   37  O   UNL     1      27.819  52.117  41.790  1.00  0.00    -0.395 OA
HETATM   38  H   UNL     1      27.250  51.967  42.568  1.00  0.00     0.210 HD
ENDBRANCH   7  37
TORSDOF 9
ENDMDL
MODEL 10
REMARK VINA RESULT:      -7.9     14.127     17.186
REMARK  9 active torsions:
REMARK  status: ('A' for Active; 'I' for Inactive)
REMARK       I    between atoms: C_2  and  N_3 
REMARK    1  A    between atoms: N_3  and  C_4 
REMARK    2  A    between atoms: C_4  and  C_5 
REMARK    3  A    between atoms: C_5  and  N_6 
REMARK       I    between atoms: N_6  and  C_7 
REMARK    4  A    between atoms: C_7  and  C_8 
REMARK    5  A    between atoms: C_8  and  C_9 
REMARK    6  A    between atoms: C_13  and  C_14 
REMARK    7  A    between atoms: C_14  and  O_15 
REMARK    8  A    between atoms: C_17  and  O_18 
REMARK    9  A    between atoms: C_25  and  C_26 
ROOT
HETATM    1  C   UNL     1      36.194  53.305  40.080  1.00  0.00     0.056 C 
HETATM    2  C   UNL     1      37.518  52.414  40.059  1.00  0.00    -0.030 C 
HETATM    3  C   UNL     1      37.727  51.825  38.623  1.00  0.00     0.016 C 
HETATM    4  C   UNL     1      37.456  51.176  41.054  1.00  0.00     0.012 C 
HETATM    5  C   UNL     1      37.804  51.432  42.582  1.00  0.00     0.008 C 
HETATM    6  C   UNL     1      38.439  50.111  43.122  1.00  0.00     0.020 C 
HETATM    7  C   UNL     1      38.893  52.542  42.739  1.00  0.00     0.128 C 
HETATM    8  C   UNL     1      39.674  52.781  41.450  1.00  0.00     0.033 C 
HETATM    9  C   UNL     1      38.755  53.317  40.356  1.00  0.00     0.013 C 
HETATM   10  C   UNL     1      36.204  50.290  40.814  1.00  0.00     0.054 C 
HETATM   11  C   UNL     1      34.993  51.113  40.581  1.00  0.00     0.010 A 
HETATM   12  C   UNL     1      34.958  52.440  40.214  1.00  0.00     0.054 A 
HETATM   13  N   UNL     1      33.680  52.960  40.057  1.00  0.00    -0.244 NA
HETATM   14  C   UNL     1      32.773  52.059  40.408  1.00  0.00     0.108 A 
HETATM   15  S   UNL     1      33.420  50.494  40.749  1.00  0.00    -0.072 SA
ENDROOT
BRANCH   1  16
HETATM   16  C   UNL     1      36.123  54.258  38.872  1.00  0.00     0.114 C 
BRANCH  16  17
HETATM   17  C   UNL     1      36.005  55.728  39.228  1.00  0.00     0.218 C 
HETATM   18  N   UNL     1      34.714  56.160  39.372  1.00  0.00    -0.359 N 
HETATM   19  H   UNL     1      34.040  55.455  39.677  1.00  0.00     0.162 HD
HETATM   20  O   UNL     1      36.983  56.468  39.286  1.00  0.00    -0.274 OA
BRANCH  18  21
HETATM   21  C   UNL     1      34.357  57.556  39.485  1.00  0.00     0.142 C 
BRANCH  21  22
HETATM   22  C   UNL     1      34.682  58.383  38.240  1.00  0.00     0.142 C 
BRANCH  22  23
HETATM   23  N   UNL     1      34.227  59.760  38.369  1.00  0.00    -0.360 N 
HETATM   24  C   UNL     1      35.080  60.823  38.183  1.00  0.00     0.213 C 
HETATM   25  C   UNL     1      34.470  62.171  38.462  1.00  0.00     0.117 C 
HETATM   26  O   UNL     1      36.249  60.704  37.832  1.00  0.00    -0.274 OA
HETATM   27  H   UNL     1      33.307  59.917  38.759  1.00  0.00     0.162 HD
ENDBRANCH  22  23
ENDBRANCH  21  22
ENDBRANCH  18  21
ENDBRANCH  16  17
ENDBRANCH   1  16
BRANCH   5  28
HETATM   28  C   UNL     1      36.586  51.701  43.504  1.00  0.00     0.176 C 
BRANCH  28  29
HETATM   29  O   UNL     1      36.925  51.755  44.875  1.00  0.00    -0.400 OA
HETATM   30  H   UNL     1      36.525  50.950  45.271  1.00  0.00     0.209 HD
ENDBRANCH  28  29
ENDBRANCH   5  28
BRANCH  14  31
HETATM   31  C   UNL     1      31.323  52.312  40.493  1.00  0.00    -0.000 A 
HETATM   32  C   UNL     1      30.711  52.437  41.749  1.00  0.00     0.014 A 
HETATM   33  C   UNL     1      29.332  52.632  41.865  1.00  0.00     0.001 A 
HETATM   34  C   UNL     1      28.539  52.710  40.724  1.00  0.00     0.000 A 
HETATM   35  C   UNL     1      29.123  52.589  39.468  1.00  0.00     0.001 A 
HETATM   36  C   UNL     1      30.502  52.387  39.353  1.00  0.00     0.014 A 
ENDBRANCH  14  31
BRANCH   7  37
HETATM   37  O   UNL     1      38.316  53.786  43.155  1.00  0.00    -0.395 OA
HETATM   38  H   UNL     1      37.518  53.933  42.613  1.00  0.00     0.210 HD
ENDBRANCH   7  37
TORSDOF 9
ENDMDL
