MODEL 1
REMARK VINA RESULT:      -8.6      0.000      0.000
REMARK  4 active torsions:
REMARK  status: ('A' for Active; 'I' for Inactive)
REMARK    1  A    between atoms: C_9  and  C_10 
REMARK       I    between atoms: C_10  and  N_11 
REMARK    2  A    between atoms: N_11  and  C_12 
REMARK    3  A    between atoms: C_13  and  N_14 
REMARK    4  A    between atoms: C_17  and  O_18 
ROOT
HETATM    1  C   UNL     1      25.401  44.177  54.126  1.00  0.00     0.257 C 
HETATM    2  N   UNL     1      24.923  44.624  52.924  1.00  0.00    -0.321 N 
HETATM    3  O   UNL     1      24.625  44.033  55.073  1.00  0.00    -0.267 OA
HETATM    4  H   UNL     1      23.919  44.543  52.843  1.00  0.00     0.169 HD
ENDROOT
BRANCH   2   5
HETATM    5  C   UNL     1      25.620  45.150  51.815  1.00  0.00     0.061 C 
HETATM    6  C   UNL     1      25.963  44.396  50.661  1.00  0.00     0.057 C 
HETATM    7  C   UNL     1      26.527  45.113  49.589  1.00  0.00     0.031 C 
HETATM    8  C   UNL     1      26.831  46.476  49.682  1.00  0.00     0.002 C 
HETATM    9  C   UNL     1      26.582  47.165  50.860  1.00  0.00     0.002 C 
HETATM   10  C   UNL     1      25.988  46.501  51.927  1.00  0.00     0.032 C 
BRANCH   6  11
HETATM   11  N   UNL     1      25.845  43.003  50.615  1.00  0.00    -0.379 N 
HETATM   12  C   UNL     1      24.546  42.342  50.424  1.00  0.00     0.125 C 
HETATM   13  C   UNL     1      24.301  41.965  48.963  1.00  0.00     0.051 C 
HETATM   14  C   UNL     1      25.474  41.186  48.373  1.00  0.00     0.121 C 
HETATM   15  C   UNL     1      26.789  41.923  48.599  1.00  0.00     0.051 C 
HETATM   16  C   UNL     1      26.997  42.249  50.076  1.00  0.00     0.125 C 
BRANCH  14  17
HETATM   17  O   UNL     1      25.560  39.889  48.960  1.00  0.00    -0.395 OA
HETATM   18  H   UNL     1      24.653  39.565  49.109  1.00  0.00     0.210 HD
ENDBRANCH  14  17
ENDBRANCH   6  11
ENDBRANCH   2   5
BRANCH   1  19
HETATM   19  C   UNL     1      26.806  43.702  54.238  1.00  0.00     0.050 A 
HETATM   20  C   UNL     1      27.899  44.477  54.856  1.00  0.00     0.006 A 
HETATM   21  C   UNL     1      27.732  45.764  55.386  1.00  0.00     0.015 A 
HETATM   22  C   UNL     1      29.187  43.918  54.865  1.00  0.00     0.046 A 
HETATM   23  C   UNL     1      28.816  46.458  55.932  1.00  0.00     0.001 A 
HETATM   24  C   UNL     1      30.083  45.879  55.949  1.00  0.00     0.002 A 
HETATM   25  C   UNL     1      30.272  44.606  55.414  1.00  0.00     0.030 A 
HETATM   26  N   UNL     1      29.399  42.662  54.287  1.00  0.00    -0.323 N 
HETATM   27  C   UNL     1      28.420  41.943  53.662  1.00  0.00     0.246 A 
HETATM   28  H   UNL     1      30.320  42.247  54.287  1.00  0.00     0.169 HD
HETATM   29  O   UNL     1      28.639  40.842  53.167  1.00  0.00    -0.268 OA
HETATM   30  C   UNL     1      27.073  42.541  53.619  1.00  0.00     0.092 A 
ENDBRANCH   1  19
TORSDOF 4
ENDMDL
MODEL 2
REMARK VINA RESULT:      -8.5      3.378      4.872
REMARK  4 active torsions:
REMARK  status: ('A' for Active; 'I' for Inactive)
REMARK    1  A    between atoms: C_9  and  C_10 
REMARK       I    between atoms: C_10  and  N_11 
REMARK    2  A    between atoms: N_11  and  C_12 
REMARK    3  A    between atoms: C_13  and  N_14 
REMARK    4  A    between atoms: C_17  and  O_18 
ROOT
HETATM    1  C   UNL     1      25.011  44.970  51.722  1.00  0.00     0.257 C 
HETATM    2  N   UNL     1      25.205  45.322  50.414  1.00  0.00    -0.321 N 
HETATM    3  O   UNL     1      24.226  44.060  51.998  1.00  0.00    -0.267 OA
HETATM    4  H   UNL     1      24.881  44.618  49.764  1.00  0.00     0.169 HD
ENDROOT
BRANCH   2   5
HETATM    5  C   UNL     1      25.788  46.486  49.868  1.00  0.00     0.061 C 
HETATM    6  C   UNL     1      25.078  47.691  49.624  1.00  0.00     0.057 C 
HETATM    7  C   UNL     1      25.844  48.798  49.214  1.00  0.00     0.031 C 
HETATM    8  C   UNL     1      27.218  48.701  48.962  1.00  0.00     0.002 C 
HETATM    9  C   UNL     1      27.867  47.483  49.107  1.00  0.00     0.002 C 
HETATM   10  C   UNL     1      27.151  46.376  49.550  1.00  0.00     0.032 C 
BRANCH   6  11
HETATM   11  N   UNL     1      23.682  47.763  49.686  1.00  0.00    -0.379 N 
HETATM   12  C   UNL     1      22.968  49.044  49.584  1.00  0.00     0.125 C 
HETATM   13  C   UNL     1      22.474  49.317  48.164  1.00  0.00     0.051 C 
HETATM   14  C   UNL     1      21.689  48.136  47.600  1.00  0.00     0.121 C 
HETATM   15  C   UNL     1      22.482  46.840  47.729  1.00  0.00     0.051 C 
HETATM   16  C   UNL     1      22.926  46.603  49.171  1.00  0.00     0.125 C 
BRANCH  14  17
HETATM   17  O   UNL     1      20.444  47.991  48.280  1.00  0.00    -0.395 OA
HETATM   18  H   UNL     1      19.886  48.757  48.055  1.00  0.00     0.210 HD
ENDBRANCH  14  17
ENDBRANCH   6  11
ENDBRANCH   2   5
BRANCH   1  19
HETATM   19  C   UNL     1      25.871  45.557  52.785  1.00  0.00     0.050 A 
HETATM   20  C   UNL     1      27.082  44.912  53.327  1.00  0.00     0.006 A 
HETATM   21  C   UNL     1      27.541  43.654  52.911  1.00  0.00     0.015 A 
HETATM   22  C   UNL     1      27.781  45.567  54.353  1.00  0.00     0.046 A 
HETATM   23  C   UNL     1      28.681  43.084  53.486  1.00  0.00     0.001 A 
HETATM   24  C   UNL     1      29.373  43.758  54.490  1.00  0.00     0.002 A 
HETATM   25  C   UNL     1      28.923  45.002  54.927  1.00  0.00     0.030 A 
HETATM   26  N   UNL     1      27.312  46.794  54.835  1.00  0.00    -0.323 N 
HETATM   27  C   UNL     1      26.167  47.392  54.391  1.00  0.00     0.246 A 
HETATM   28  H   UNL     1      27.806  47.277  55.572  1.00  0.00     0.169 HD
HETATM   29  O   UNL     1      25.785  48.470  54.833  1.00  0.00    -0.268 OA
HETATM   30  C   UNL     1      25.409  46.691  53.338  1.00  0.00     0.092 A 
ENDBRANCH   1  19
TORSDOF 4
ENDMDL
MODEL 3
REMARK VINA RESULT:      -8.4      2.548      3.796
REMARK  4 active torsions:
REMARK  status: ('A' for Active; 'I' for Inactive)
REMARK    1  A    between atoms: C_9  and  C_10 
REMARK       I    between atoms: C_10  and  N_11 
REMARK    2  A    between atoms: N_11  and  C_12 
REMARK    3  A    between atoms: C_13  and  N_14 
REMARK    4  A    between atoms: C_17  and  O_18 
ROOT
HETATM    1  C   UNL     1      26.548  42.887  50.571  1.00  0.00     0.257 C 
HETATM    2  N   UNL     1      26.368  43.768  49.539  1.00  0.00    -0.321 N 
HETATM    3  O   UNL     1      26.758  41.698  50.325  1.00  0.00    -0.267 OA
HETATM    4  H   UNL     1      26.690  43.408  48.651  1.00  0.00     0.169 HD
ENDROOT
BRANCH   2   5
HETATM    5  C   UNL     1      25.826  45.072  49.549  1.00  0.00     0.061 C 
HETATM    6  C   UNL     1      24.452  45.363  49.343  1.00  0.00     0.057 C 
HETATM    7  C   UNL     1      24.059  46.702  49.531  1.00  0.00     0.031 C 
HETATM    8  C   UNL     1      24.982  47.717  49.808  1.00  0.00     0.002 C 
HETATM    9  C   UNL     1      26.335  47.420  49.899  1.00  0.00     0.002 C 
HETATM   10  C   UNL     1      26.756  46.102  49.760  1.00  0.00     0.032 C 
BRANCH   6  11
HETATM   11  N   UNL     1      23.544  44.404  48.881  1.00  0.00    -0.379 N 
HETATM   12  C   UNL     1      22.251  44.178  49.544  1.00  0.00     0.125 C 
HETATM   13  C   UNL     1      21.114  44.935  48.861  1.00  0.00     0.051 C 
HETATM   14  C   UNL     1      21.081  44.675  47.358  1.00  0.00     0.121 C 
HETATM   15  C   UNL     1      22.445  44.930  46.728  1.00  0.00     0.051 C 
HETATM   16  C   UNL     1      23.539  44.128  47.429  1.00  0.00     0.125 C 
BRANCH  14  17
HETATM   17  O   UNL     1      20.688  43.330  47.091  1.00  0.00    -0.395 OA
HETATM   18  H   UNL     1      20.987  42.775  47.833  1.00  0.00     0.210 HD
ENDBRANCH  14  17
ENDBRANCH   6  11
ENDBRANCH   2   5
BRANCH   1  19
HETATM   19  C   UNL     1      26.666  43.390  51.966  1.00  0.00     0.050 A 
HETATM   20  C   UNL     1      27.911  43.367  52.756  1.00  0.00     0.006 A 
HETATM   21  C   UNL     1      29.121  42.843  52.280  1.00  0.00     0.015 A 
HETATM   22  C   UNL     1      27.870  43.846  54.075  1.00  0.00     0.046 A 
HETATM   23  C   UNL     1      30.260  42.824  53.090  1.00  0.00     0.001 A 
HETATM   24  C   UNL     1      30.204  43.322  54.390  1.00  0.00     0.002 A 
HETATM   25  C   UNL     1      29.007  43.833  54.887  1.00  0.00     0.030 A 
HETATM   26  N   UNL     1      26.662  44.318  54.602  1.00  0.00    -0.323 N 
HETATM   27  C   UNL     1      25.482  44.304  53.915  1.00  0.00     0.246 A 
HETATM   28  H   UNL     1      26.618  44.666  55.550  1.00  0.00     0.169 HD
HETATM   29  O   UNL     1      24.441  44.727  54.405  1.00  0.00    -0.268 OA
HETATM   30  C   UNL     1      25.513  43.769  52.541  1.00  0.00     0.092 A 
ENDBRANCH   1  19
TORSDOF 4
ENDMDL
MODEL 4
REMARK VINA RESULT:      -8.2     12.370     14.170
REMARK  4 active torsions:
REMARK  status: ('A' for Active; 'I' for Inactive)
REMARK    1  A    between atoms: C_9  and  C_10 
REMARK       I    between atoms: C_10  and  N_11 
REMARK    2  A    between atoms: N_11  and  C_12 
REMARK    3  A    between atoms: C_13  and  N_14 
REMARK    4  A    between atoms: C_17  and  O_18 
ROOT
HETATM    1  C   UNL     1      32.766  48.449  41.131  1.00  0.00     0.257 C 
HETATM    2  N   UNL     1      32.061  48.581  39.965  1.00  0.00    -0.321 N 
HETATM    3  O   UNL     1      33.163  47.335  41.479  1.00  0.00    -0.267 OA
HETATM    4  H   UNL     1      32.159  47.783  39.352  1.00  0.00     0.169 HD
ENDROOT
BRANCH   2   5
HETATM    5  C   UNL     1      31.258  49.649  39.511  1.00  0.00     0.061 C 
HETATM    6  C   UNL     1      29.950  49.919  39.993  1.00  0.00     0.057 C 
HETATM    7  C   UNL     1      29.348  51.108  39.538  1.00  0.00     0.031 C 
HETATM    8  C   UNL     1      29.956  51.934  38.585  1.00  0.00     0.002 C 
HETATM    9  C   UNL     1      31.189  51.588  38.052  1.00  0.00     0.002 C 
HETATM   10  C   UNL     1      31.834  50.443  38.507  1.00  0.00     0.032 C 
BRANCH   6  11
HETATM   11  N   UNL     1      29.246  49.016  40.796  1.00  0.00    -0.379 N 
HETATM   12  C   UNL     1      28.059  49.424  41.563  1.00  0.00     0.125 C 
HETATM   13  C   UNL     1      26.759  49.097  40.830  1.00  0.00     0.051 C 
HETATM   14  C   UNL     1      26.718  47.641  40.371  1.00  0.00     0.121 C 
HETATM   15  C   UNL     1      27.970  47.281  39.579  1.00  0.00     0.051 C 
HETATM   16  C   UNL     1      29.237  47.602  40.368  1.00  0.00     0.125 C 
BRANCH  14  17
HETATM   17  O   UNL     1      26.606  46.765  41.491  1.00  0.00    -0.395 OA
HETATM   18  H   UNL     1      25.907  47.110  42.075  1.00  0.00     0.210 HD
ENDBRANCH  14  17
ENDBRANCH   6  11
ENDBRANCH   2   5
BRANCH   1  19
HETATM   19  C   UNL     1      33.200  49.660  41.879  1.00  0.00     0.050 A 
HETATM   20  C   UNL     1      34.475  50.366  41.651  1.00  0.00     0.006 A 
HETATM   21  C   UNL     1      35.432  49.952  40.714  1.00  0.00     0.015 A 
HETATM   22  C   UNL     1      34.770  51.480  42.453  1.00  0.00     0.046 A 
HETATM   23  C   UNL     1      36.635  50.649  40.567  1.00  0.00     0.001 A 
HETATM   24  C   UNL     1      36.902  51.764  41.359  1.00  0.00     0.002 A 
HETATM   25  C   UNL     1      35.969  52.181  42.306  1.00  0.00     0.030 A 
HETATM   26  N   UNL     1      33.863  51.880  43.441  1.00  0.00    -0.323 N 
HETATM   27  C   UNL     1      32.700  51.218  43.711  1.00  0.00     0.246 A 
HETATM   28  H   UNL     1      34.062  52.680  44.025  1.00  0.00     0.169 HD
HETATM   29  O   UNL     1      31.925  51.596  44.583  1.00  0.00    -0.268 OA
HETATM   30  C   UNL     1      32.402  50.026  42.895  1.00  0.00     0.092 A 
ENDBRANCH   1  19
TORSDOF 4
ENDMDL
MODEL 5
REMARK VINA RESULT:      -7.7     12.360     14.434
REMARK  4 active torsions:
REMARK  status: ('A' for Active; 'I' for Inactive)
REMARK    1  A    between atoms: C_9  and  C_10 
REMARK       I    between atoms: C_10  and  N_11 
REMARK    2  A    between atoms: N_11  and  C_12 
REMARK    3  A    between atoms: C_13  and  N_14 
REMARK    4  A    between atoms: C_17  and  O_18 
ROOT
HETATM    1  C   UNL     1      27.764  50.523  41.052  1.00  0.00     0.257 C 
HETATM    2  N   UNL     1      27.123  49.331  41.257  1.00  0.00    -0.321 N 
HETATM    3  O   UNL     1      27.334  51.545  41.588  1.00  0.00    -0.267 OA
HETATM    4  H   UNL     1      26.501  49.350  42.053  1.00  0.00     0.169 HD
ENDROOT
BRANCH   2   5
HETATM    5  C   UNL     1      27.221  48.118  40.542  1.00  0.00     0.061 C 
HETATM    6  C   UNL     1      26.652  47.903  39.259  1.00  0.00     0.057 C 
HETATM    7  C   UNL     1      26.970  46.685  38.628  1.00  0.00     0.031 C 
HETATM    8  C   UNL     1      27.722  45.691  39.264  1.00  0.00     0.002 C 
HETATM    9  C   UNL     1      28.176  45.886  40.561  1.00  0.00     0.002 C 
HETATM   10  C   UNL     1      27.918  47.092  41.201  1.00  0.00     0.032 C 
BRANCH   6  11
HETATM   11  N   UNL     1      25.744  48.798  38.683  1.00  0.00    -0.379 N 
HETATM   12  C   UNL     1      25.894  49.270  37.298  1.00  0.00     0.125 C 
HETATM   13  C   UNL     1      25.038  48.466  36.321  1.00  0.00     0.051 C 
HETATM   14  C   UNL     1      23.585  48.377  36.780  1.00  0.00     0.121 C 
HETATM   15  C   UNL     1      23.495  47.879  38.218  1.00  0.00     0.051 C 
HETATM   16  C   UNL     1      24.345  48.734  39.155  1.00  0.00     0.125 C 
BRANCH  14  17
HETATM   17  O   UNL     1      22.951  49.651  36.687  1.00  0.00    -0.395 OA
HETATM   18  H   UNL     1      22.138  49.546  36.161  1.00  0.00     0.210 HD
ENDBRANCH  14  17
ENDBRANCH   6  11
ENDBRANCH   2   5
BRANCH   1  19
HETATM   19  C   UNL     1      29.067  50.552  40.333  1.00  0.00     0.050 A 
HETATM   20  C   UNL     1      30.360  50.182  40.940  1.00  0.00     0.006 A 
HETATM   21  C   UNL     1      30.502  49.784  42.276  1.00  0.00     0.015 A 
HETATM   22  C   UNL     1      31.517  50.287  40.152  1.00  0.00     0.046 A 
HETATM   23  C   UNL     1      31.761  49.474  42.799  1.00  0.00     0.001 A 
HETATM   24  C   UNL     1      32.896  49.566  41.996  1.00  0.00     0.002 A 
HETATM   25  C   UNL     1      32.777  49.975  40.670  1.00  0.00     0.030 A 
HETATM   26  N   UNL     1      31.417  50.744  38.833  1.00  0.00    -0.323 N 
HETATM   27  C   UNL     1      30.243  51.142  38.259  1.00  0.00     0.246 A 
HETATM   28  H   UNL     1      32.241  50.824  38.254  1.00  0.00     0.169 HD
HETATM   29  O   UNL     1      30.189  51.535  37.099  1.00  0.00    -0.268 OA
HETATM   30  C   UNL     1      29.029  51.067  39.093  1.00  0.00     0.092 A 
ENDBRANCH   1  19
TORSDOF 4
ENDMDL
MODEL 6
REMARK VINA RESULT:      -7.7      1.701      2.782
REMARK  4 active torsions:
REMARK  status: ('A' for Active; 'I' for Inactive)
REMARK    1  A    between atoms: C_9  and  C_10 
REMARK       I    between atoms: C_10  and  N_11 
REMARK    2  A    between atoms: N_11  and  C_12 
REMARK    3  A    between atoms: C_13  and  N_14 
REMARK    4  A    between atoms: C_17  and  O_18 
ROOT
HETATM    1  C   UNL     1      27.456  42.257  52.491  1.00  0.00     0.257 C 
HETATM    2  N   UNL     1      27.271  42.450  51.149  1.00  0.00    -0.321 N 
HETATM    3  O   UNL     1      27.704  41.127  52.915  1.00  0.00    -0.267 OA
HETATM    4  H   UNL     1      27.619  41.684  50.589  1.00  0.00     0.169 HD
ENDROOT
BRANCH   2   5
HETATM    5  C   UNL     1      26.693  43.540  50.464  1.00  0.00     0.061 C 
HETATM    6  C   UNL     1      25.426  43.496  49.824  1.00  0.00     0.057 C 
HETATM    7  C   UNL     1      24.938  44.714  49.315  1.00  0.00     0.031 C 
HETATM    8  C   UNL     1      25.696  45.891  49.343  1.00  0.00     0.002 C 
HETATM    9  C   UNL     1      26.976  45.880  49.880  1.00  0.00     0.002 C 
HETATM   10  C   UNL     1      27.476  44.705  50.430  1.00  0.00     0.032 C 
BRANCH   6  11
HETATM   11  N   UNL     1      24.734  42.298  49.615  1.00  0.00    -0.379 N 
HETATM   12  C   UNL     1      23.268  42.258  49.515  1.00  0.00     0.125 C 
HETATM   13  C   UNL     1      22.790  42.269  48.063  1.00  0.00     0.051 C 
HETATM   14  C   UNL     1      23.487  41.198  47.228  1.00  0.00     0.121 C 
HETATM   15  C   UNL     1      25.002  41.294  47.370  1.00  0.00     0.051 C 
HETATM   16  C   UNL     1      25.426  41.250  48.836  1.00  0.00     0.125 C 
BRANCH  14  17
HETATM   17  O   UNL     1      23.062  39.896  47.627  1.00  0.00    -0.395 OA
HETATM   18  H   UNL     1      22.589  39.491  46.878  1.00  0.00     0.210 HD
ENDBRANCH  14  17
ENDBRANCH   6  11
ENDBRANCH   2   5
BRANCH   1  19
HETATM   19  C   UNL     1      27.533  43.428  53.407  1.00  0.00     0.050 A 
HETATM   20  C   UNL     1      28.703  43.754  54.243  1.00  0.00     0.006 A 
HETATM   21  C   UNL     1      29.868  42.975  54.283  1.00  0.00     0.015 A 
HETATM   22  C   UNL     1      28.626  44.874  55.086  1.00  0.00     0.046 A 
HETATM   23  C   UNL     1      30.932  43.323  55.120  1.00  0.00     0.001 A 
HETATM   24  C   UNL     1      30.844  44.449  55.936  1.00  0.00     0.002 A 
HETATM   25  C   UNL     1      29.688  45.227  55.921  1.00  0.00     0.030 A 
HETATM   26  N   UNL     1      27.452  45.636  55.117  1.00  0.00    -0.323 N 
HETATM   27  C   UNL     1      26.334  45.331  54.394  1.00  0.00     0.246 A 
HETATM   28  H   UNL     1      27.383  46.445  55.718  1.00  0.00     0.169 HD
HETATM   29  O   UNL     1      25.322  46.021  54.442  1.00  0.00    -0.268 OA
HETATM   30  C   UNL     1      26.398  44.135  53.534  1.00  0.00     0.092 A 
ENDBRANCH   1  19
TORSDOF 4
ENDMDL
MODEL 7
REMARK VINA RESULT:      -7.7     13.359     16.337
REMARK  4 active torsions:
REMARK  status: ('A' for Active; 'I' for Inactive)
REMARK    1  A    between atoms: C_9  and  C_10 
REMARK       I    between atoms: C_10  and  N_11 
REMARK    2  A    between atoms: N_11  and  C_12 
REMARK    3  A    between atoms: C_13  and  N_14 
REMARK    4  A    between atoms: C_17  and  O_18 
ROOT
HETATM    1  C   UNL     1      34.104  49.680  41.354  1.00  0.00     0.257 C 
HETATM    2  N   UNL     1      35.359  50.163  41.099  1.00  0.00    -0.321 N 
HETATM    3  O   UNL     1      33.889  48.470  41.271  1.00  0.00    -0.267 OA
HETATM    4  H   UNL     1      36.070  49.445  41.123  1.00  0.00     0.169 HD
ENDROOT
BRANCH   2   5
HETATM    5  C   UNL     1      35.782  51.482  40.830  1.00  0.00     0.061 C 
HETATM    6  C   UNL     1      36.549  52.270  41.729  1.00  0.00     0.057 C 
HETATM    7  C   UNL     1      37.009  53.508  41.243  1.00  0.00     0.031 C 
HETATM    8  C   UNL     1      36.650  53.992  39.980  1.00  0.00     0.002 C 
HETATM    9  C   UNL     1      35.810  53.248  39.163  1.00  0.00     0.002 C 
HETATM   10  C   UNL     1      35.369  52.001  39.592  1.00  0.00     0.032 C 
BRANCH   6  11
HETATM   11  N   UNL     1      36.762  51.893  43.060  1.00  0.00    -0.379 N 
HETATM   12  C   UNL     1      37.999  51.223  43.487  1.00  0.00     0.125 C 
HETATM   13  C   UNL     1      39.015  52.205  44.069  1.00  0.00     0.051 C 
HETATM   14  C   UNL     1      38.396  53.088  45.150  1.00  0.00     0.121 C 
HETATM   15  C   UNL     1      37.122  53.757  44.647  1.00  0.00     0.051 C 
HETATM   16  C   UNL     1      36.132  52.729  44.103  1.00  0.00     0.125 C 
BRANCH  14  17
HETATM   17  O   UNL     1      38.091  52.318  46.311  1.00  0.00    -0.395 OA
HETATM   18  H   UNL     1      38.456  52.782  47.085  1.00  0.00     0.210 HD
ENDBRANCH  14  17
ENDBRANCH   6  11
ENDBRANCH   2   5
BRANCH   1  19
HETATM   19  C   UNL     1      33.056  50.586  41.898  1.00  0.00     0.050 A 
HETATM   20  C   UNL     1      32.027  51.254  41.078  1.00  0.00     0.006 A 
HETATM   21  C   UNL     1      31.943  51.124  39.685  1.00  0.00     0.015 A 
HETATM   22  C   UNL     1      31.117  52.108  41.720  1.00  0.00     0.046 A 
HETATM   23  C   UNL     1      30.961  51.808  38.961  1.00  0.00     0.001 A 
HETATM   24  C   UNL     1      30.055  52.637  39.619  1.00  0.00     0.002 A 
HETATM   25  C   UNL     1      30.132  52.790  41.002  1.00  0.00     0.030 A 
HETATM   26  N   UNL     1      31.214  52.309  43.102  1.00  0.00    -0.323 N 
HETATM   27  C   UNL     1      32.186  51.746  43.880  1.00  0.00     0.246 A 
HETATM   28  H   UNL     1      30.566  52.920  43.578  1.00  0.00     0.169 HD
HETATM   29  O   UNL     1      32.242  51.940  45.090  1.00  0.00    -0.268 OA
HETATM   30  C   UNL     1      33.166  50.876  43.204  1.00  0.00     0.092 A 
ENDBRANCH   1  19
TORSDOF 4
ENDMDL
MODEL 8
REMARK VINA RESULT:      -7.6      8.899     10.732
REMARK  4 active torsions:
REMARK  status: ('A' for Active; 'I' for Inactive)
REMARK    1  A    between atoms: C_9  and  C_10 
REMARK       I    between atoms: C_10  and  N_11 
REMARK    2  A    between atoms: N_11  and  C_12 
REMARK    3  A    between atoms: C_13  and  N_14 
REMARK    4  A    between atoms: C_17  and  O_18 
ROOT
HETATM    1  C   UNL     1      18.775  49.215  50.507  1.00  0.00     0.257 C 
HETATM    2  N   UNL     1      17.826  50.016  49.929  1.00  0.00    -0.321 N 
HETATM    3  O   UNL     1      18.657  48.890  51.690  1.00  0.00    -0.267 OA
HETATM    4  H   UNL     1      16.965  50.052  50.458  1.00  0.00     0.169 HD
ENDROOT
BRANCH   2   5
HETATM    5  C   UNL     1      17.880  50.758  48.730  1.00  0.00     0.061 C 
HETATM    6  C   UNL     1      17.383  50.293  47.484  1.00  0.00     0.057 C 
HETATM    7  C   UNL     1      17.384  51.218  46.423  1.00  0.00     0.031 C 
HETATM    8  C   UNL     1      17.936  52.499  46.553  1.00  0.00     0.002 C 
HETATM    9  C   UNL     1      18.511  52.890  47.753  1.00  0.00     0.002 C 
HETATM   10  C   UNL     1      18.492  52.018  48.836  1.00  0.00     0.032 C 
BRANCH   6  11
HETATM   11  N   UNL     1      17.003  48.962  47.279  1.00  0.00    -0.379 N 
HETATM   12  C   UNL     1      15.623  48.508  47.504  1.00  0.00     0.125 C 
HETATM   13  C   UNL     1      14.810  48.472  46.211  1.00  0.00     0.051 C 
HETATM   14  C   UNL     1      15.533  47.703  45.108  1.00  0.00     0.121 C 
HETATM   15  C   UNL     1      16.954  48.222  44.919  1.00  0.00     0.051 C 
HETATM   16  C   UNL     1      17.728  48.209  46.235  1.00  0.00     0.125 C 
BRANCH  14  17
HETATM   17  O   UNL     1      15.582  46.312  45.417  1.00  0.00    -0.395 OA
HETATM   18  H   UNL     1      16.517  46.044  45.455  1.00  0.00     0.210 HD
ENDBRANCH  14  17
ENDBRANCH   6  11
ENDBRANCH   2   5
BRANCH   1  19
HETATM   19  C   UNL     1      19.840  48.601  49.669  1.00  0.00     0.050 A 
HETATM   20  C   UNL     1      21.103  49.272  49.306  1.00  0.00     0.006 A 
HETATM   21  C   UNL     1      21.425  50.580  49.696  1.00  0.00     0.015 A 
HETATM   22  C   UNL     1      22.007  48.585  48.482  1.00  0.00     0.046 A 
HETATM   23  C   UNL     1      22.627  51.169  49.294  1.00  0.00     0.001 A 
HETATM   24  C   UNL     1      23.520  50.464  48.491  1.00  0.00     0.002 A 
HETATM   25  C   UNL     1      23.211  49.169  48.081  1.00  0.00     0.030 A 
HETATM   26  N   UNL     1      21.687  47.302  48.023  1.00  0.00    -0.323 N 
HETATM   27  C   UNL     1      20.505  46.675  48.298  1.00  0.00     0.246 A 
HETATM   28  H   UNL     1      22.328  46.795  47.429  1.00  0.00     0.169 HD
HETATM   29  O   UNL     1      20.256  45.548  47.882  1.00  0.00    -0.268 OA
HETATM   30  C   UNL     1      19.536  47.407  49.135  1.00  0.00     0.092 A 
ENDBRANCH   1  19
TORSDOF 4
ENDMDL
MODEL 9
REMARK VINA RESULT:      -7.4     15.855     18.600
REMARK  4 active torsions:
REMARK  status: ('A' for Active; 'I' for Inactive)
REMARK    1  A    between atoms: C_9  and  C_10 
REMARK       I    between atoms: C_10  and  N_11 
REMARK    2  A    between atoms: N_11  and  C_12 
REMARK    3  A    between atoms: C_13  and  N_14 
REMARK    4  A    between atoms: C_17  and  O_18 
ROOT
HETATM    1  C   UNL     1      39.274  48.897  64.696  1.00  0.00     0.257 C 
HETATM    2  N   UNL     1      38.168  48.188  64.310  1.00  0.00    -0.321 N 
HETATM    3  O   UNL     1      40.007  49.395  63.840  1.00  0.00    -0.267 OA
HETATM    4  H   UNL     1      37.904  48.363  63.350  1.00  0.00     0.169 HD
ENDROOT
BRANCH   2   5
HETATM    5  C   UNL     1      37.368  47.290  65.047  1.00  0.00     0.061 C 
HETATM    6  C   UNL     1      37.540  45.881  65.040  1.00  0.00     0.057 C 
HETATM    7  C   UNL     1      36.750  45.147  65.945  1.00  0.00     0.031 C 
HETATM    8  C   UNL     1      35.772  45.755  66.742  1.00  0.00     0.002 C 
HETATM    9  C   UNL     1      35.551  47.122  66.650  1.00  0.00     0.002 C 
HETATM   10  C   UNL     1      36.341  47.886  65.798  1.00  0.00     0.032 C 
BRANCH   6  11
HETATM   11  N   UNL     1      38.374  45.233  64.122  1.00  0.00    -0.379 N 
HETATM   12  C   UNL     1      39.680  44.685  64.514  1.00  0.00     0.125 C 
HETATM   13  C   UNL     1      39.608  43.191  64.826  1.00  0.00     0.051 C 
HETATM   14  C   UNL     1      38.932  42.409  63.702  1.00  0.00     0.121 C 
HETATM   15  C   UNL     1      37.582  43.022  63.344  1.00  0.00     0.051 C 
HETATM   16  C   UNL     1      37.717  44.507  63.015  1.00  0.00     0.125 C 
BRANCH  14  17
HETATM   17  O   UNL     1      39.757  42.388  62.539  1.00  0.00    -0.395 OA
HETATM   18  H   UNL     1      40.062  43.297  62.369  1.00  0.00     0.210 HD
ENDBRANCH  14  17
ENDBRANCH   6  11
ENDBRANCH   2   5
BRANCH   1  19
HETATM   19  C   UNL     1      39.489  49.212  66.135  1.00  0.00     0.050 A 
HETATM   20  C   UNL     1      38.880  50.359  66.835  1.00  0.00     0.006 A 
HETATM   21  C   UNL     1      38.046  51.295  66.208  1.00  0.00     0.015 A 
HETATM   22  C   UNL     1      39.196  50.555  68.189  1.00  0.00     0.046 A 
HETATM   23  C   UNL     1      37.524  52.378  66.921  1.00  0.00     0.001 A 
HETATM   24  C   UNL     1      37.834  52.545  68.270  1.00  0.00     0.002 A 
HETATM   25  C   UNL     1      38.673  51.633  68.907  1.00  0.00     0.030 A 
HETATM   26  N   UNL     1      40.076  49.674  68.827  1.00  0.00    -0.323 N 
HETATM   27  C   UNL     1      40.696  48.634  68.194  1.00  0.00     0.246 A 
HETATM   28  H   UNL     1      40.312  49.802  69.801  1.00  0.00     0.169 HD
HETATM   29  O   UNL     1      41.461  47.879  68.784  1.00  0.00    -0.268 OA
HETATM   30  C   UNL     1      40.395  48.446  66.763  1.00  0.00     0.092 A 
ENDBRANCH   1  19
TORSDOF 4
ENDMDL
MODEL 10
REMARK VINA RESULT:      -7.4     12.396     14.560
REMARK  4 active torsions:
REMARK  status: ('A' for Active; 'I' for Inactive)
REMARK    1  A    between atoms: C_9  and  C_10 
REMARK       I    between atoms: C_10  and  N_11 
REMARK    2  A    between atoms: N_11  and  C_12 
REMARK    3  A    between atoms: C_13  and  N_14 
REMARK    4  A    between atoms: C_17  and  O_18 
ROOT
HETATM    1  C   UNL     1      28.263  48.940  41.475  1.00  0.00     0.257 C 
HETATM    2  N   UNL     1      27.527  47.808  41.250  1.00  0.00    -0.321 N 
HETATM    3  O   UNL     1      27.892  49.748  42.329  1.00  0.00    -0.267 OA
HETATM    4  H   UNL     1      26.880  47.604  41.998  1.00  0.00     0.169 HD
ENDROOT
BRANCH   2   5
HETATM    5  C   UNL     1      27.559  46.912  40.160  1.00  0.00     0.061 C 
HETATM    6  C   UNL     1      27.045  47.210  38.870  1.00  0.00     0.057 C 
HETATM    7  C   UNL     1      27.291  46.258  37.862  1.00  0.00     0.031 C 
HETATM    8  C   UNL     1      27.918  45.035  38.129  1.00  0.00     0.002 C 
HETATM    9  C   UNL     1      28.314  44.725  39.422  1.00  0.00     0.002 C 
HETATM   10  C   UNL     1      28.126  45.657  40.437  1.00  0.00     0.032 C 
BRANCH   6  11
HETATM   11  N   UNL     1      26.253  48.335  38.621  1.00  0.00    -0.379 N 
HETATM   12  C   UNL     1      26.229  48.991  37.306  1.00  0.00     0.125 C 
HETATM   13  C   UNL     1      25.052  48.524  36.451  1.00  0.00     0.051 C 
HETATM   14  C   UNL     1      23.728  48.625  37.205  1.00  0.00     0.121 C 
HETATM   15  C   UNL     1      23.814  47.924  38.556  1.00  0.00     0.051 C 
HETATM   16  C   UNL     1      24.989  48.448  39.379  1.00  0.00     0.125 C 
BRANCH  14  17
HETATM   17  O   UNL     1      23.370  49.990  37.410  1.00  0.00    -0.395 OA
HETATM   18  H   UNL     1      24.180  50.484  37.631  1.00  0.00     0.210 HD
ENDBRANCH  14  17
ENDBRANCH   6  11
ENDBRANCH   2   5
BRANCH   1  19
HETATM   19  C   UNL     1      29.589  49.107  40.821  1.00  0.00     0.050 A 
HETATM   20  C   UNL     1      29.861  50.051  39.720  1.00  0.00     0.006 A 
HETATM   21  C   UNL     1      28.884  50.880  39.152  1.00  0.00     0.015 A 
HETATM   22  C   UNL     1      31.154  50.081  39.175  1.00  0.00     0.046 A 
HETATM   23  C   UNL     1      29.200  51.732  38.090  1.00  0.00     0.001 A 
HETATM   24  C   UNL     1      30.494  51.762  37.575  1.00  0.00     0.002 A 
HETATM   25  C   UNL     1      31.475  50.934  38.116  1.00  0.00     0.030 A 
HETATM   26  N   UNL     1      32.137  49.219  39.677  1.00  0.00    -0.323 N 
HETATM   27  C   UNL     1      31.903  48.299  40.659  1.00  0.00     0.246 A 
HETATM   28  H   UNL     1      33.072  49.230  39.295  1.00  0.00     0.169 HD
HETATM   29  O   UNL     1      32.787  47.560  41.079  1.00  0.00    -0.268 OA
HETATM   30  C   UNL     1      30.537  48.239  41.211  1.00  0.00     0.092 A 
ENDBRANCH   1  19
TORSDOF 4
ENDMDL
