MODEL 1
REMARK VINA RESULT:     -10.0      0.000      0.000
REMARK  3 active torsions:
REMARK  status: ('A' for Active; 'I' for Inactive)
REMARK    1  A    between atoms: O_2  and  C_3 
REMARK    2  A    between atoms: C_5  and  C_26 
REMARK    3  A    between atoms: C_11  and  C_15 
ROOT
HETATM    1  C   UNL     1      28.910  43.399  53.517  1.00  0.00     0.096 A 
HETATM    2  C   UNL     1      29.716  43.611  54.642  1.00  0.00     0.051 A 
HETATM    3  C   UNL     1      29.382  44.593  55.593  1.00  0.00    -0.019 A 
HETATM    4  C   UNL     1      28.227  45.360  55.406  1.00  0.00     0.031 A 
HETATM    5  C   UNL     1      27.434  45.142  54.277  1.00  0.00     0.062 A 
HETATM    6  C   UNL     1      26.225  45.924  54.028  1.00  0.00     0.259 A 
HETATM    7  O   UNL     1      25.781  46.790  54.754  1.00  0.00    -0.267 OA
HETATM    8  N   UNL     1      25.527  45.630  52.836  1.00  0.00    -0.312 N 
HETATM    9  C   UNL     1      25.917  44.705  51.983  1.00  0.00     0.091 A 
HETATM   10  N   UNL     1      26.999  43.975  52.205  1.00  0.00    -0.342 N 
HETATM   11  H   UNL     1      27.309  43.257  51.550  1.00  0.00     0.167 HD
HETATM   12  C   UNL     1      27.758  44.179  53.325  1.00  0.00     0.083 A 
HETATM   13  H   UNL     1      24.694  46.184  52.644  1.00  0.00     0.170 HD
ENDROOT
BRANCH   9  14
HETATM   14  C   UNL     1      25.158  44.456  50.715  1.00  0.00     0.082 C 
HETATM   15  C   UNL     1      25.986  44.728  49.463  1.00  0.00     0.188 C 
HETATM   16  O   UNL     1      27.130  43.867  49.383  1.00  0.00    -0.350 OA
HETATM   17  C   UNL     1      26.853  42.533  49.540  1.00  0.00     0.075 A 
HETATM   18  C   UNL     1      27.839  41.645  49.106  1.00  0.00     0.040 A 
HETATM   19  C   UNL     1      25.699  42.067  50.182  1.00  0.00    -0.021 A 
HETATM   20  C   UNL     1      27.664  40.273  49.282  1.00  0.00     0.045 A 
HETATM   21  C   UNL     1      26.508  39.806  49.895  1.00  0.00     0.117 A 
HETATM   22  F   UNL     1      26.338  38.490  50.069  1.00  0.00    -0.206 F 
HETATM   23  C   UNL     1      25.527  40.686  50.342  1.00  0.00     0.052 A 
HETATM   24  C   UNL     1      24.642  43.017  50.665  1.00  0.00     0.056 C 
ENDBRANCH   9  14
BRANCH   1  25
HETATM   25  O   UNL     1      29.140  42.470  52.530  1.00  0.00    -0.354 OA
HETATM   26  C   UNL     1      28.826  41.111  52.835  1.00  0.00     0.210 C 
ENDBRANCH   1  25
BRANCH   3  27
HETATM   27  C   UNL     1      30.243  44.815  56.741  1.00  0.00     0.010 A 
HETATM   28  C   UNL     1      31.309  44.042  57.260  1.00  0.00     0.152 A 
HETATM   29  N   UNL     1      31.854  44.583  58.349  1.00  0.00    -0.187 NA
HETATM   30  N   UNL     1      31.148  45.707  58.538  1.00  0.00    -0.289 N 
HETATM   31  H   UNL     1      31.387  46.300  59.327  1.00  0.00     0.188 HD
HETATM   32  C   UNL     1      30.168  45.891  57.600  1.00  0.00     0.123 A 
ENDBRANCH   3  27
TORSDOF 3
ENDMDL
MODEL 2
REMARK VINA RESULT:      -9.7      5.456      7.565
REMARK  3 active torsions:
REMARK  status: ('A' for Active; 'I' for Inactive)
REMARK    1  A    between atoms: O_2  and  C_3 
REMARK    2  A    between atoms: C_5  and  C_26 
REMARK    3  A    between atoms: C_11  and  C_15 
ROOT
HETATM    1  C   UNL     1      25.438  47.302  50.580  1.00  0.00     0.096 A 
HETATM    2  C   UNL     1      26.270  46.912  51.637  1.00  0.00     0.051 A 
HETATM    3  C   UNL     1      26.102  45.661  52.261  1.00  0.00    -0.019 A 
HETATM    4  C   UNL     1      25.093  44.803  51.810  1.00  0.00     0.031 A 
HETATM    5  C   UNL     1      24.267  45.207  50.759  1.00  0.00     0.062 A 
HETATM    6  C   UNL     1      23.191  44.354  50.259  1.00  0.00     0.259 A 
HETATM    7  O   UNL     1      22.925  43.241  50.666  1.00  0.00    -0.267 OA
HETATM    8  N   UNL     1      22.407  44.888  49.214  1.00  0.00    -0.312 N 
HETATM    9  C   UNL     1      22.615  46.080  48.694  1.00  0.00     0.091 A 
HETATM   10  N   UNL     1      23.598  46.856  49.123  1.00  0.00    -0.342 N 
HETATM   11  H   UNL     1      23.768  47.781  48.727  1.00  0.00     0.167 HD
HETATM   12  C   UNL     1      24.418  46.444  50.139  1.00  0.00     0.083 A 
HETATM   13  H   UNL     1      21.641  44.308  48.873  1.00  0.00     0.170 HD
ENDROOT
BRANCH   9  14
HETATM   14  C   UNL     1      21.732  46.614  47.608  1.00  0.00     0.082 C 
HETATM   15  C   UNL     1      20.305  46.079  47.686  1.00  0.00     0.188 C 
HETATM   16  O   UNL     1      19.658  46.461  48.907  1.00  0.00    -0.350 OA
HETATM   17  C   UNL     1      19.725  47.800  49.193  1.00  0.00     0.075 A 
HETATM   18  C   UNL     1      18.815  48.272  50.143  1.00  0.00     0.040 A 
HETATM   19  C   UNL     1      20.700  48.646  48.652  1.00  0.00    -0.021 A 
HETATM   20  C   UNL     1      18.854  49.609  50.536  1.00  0.00     0.045 A 
HETATM   21  C   UNL     1      19.804  50.456  49.981  1.00  0.00     0.117 A 
HETATM   22  F   UNL     1      19.846  51.740  50.359  1.00  0.00    -0.206 F 
HETATM   23  C   UNL     1      20.722  49.990  49.044  1.00  0.00     0.052 A 
HETATM   24  C   UNL     1      21.691  48.142  47.642  1.00  0.00     0.056 C 
ENDBRANCH   9  14
BRANCH   1  25
HETATM   25  O   UNL     1      25.513  48.495  49.900  1.00  0.00    -0.354 OA
HETATM   26  C   UNL     1      26.706  48.741  49.154  1.00  0.00     0.210 C 
ENDBRANCH   1  25
BRANCH   3  27
HETATM   27  C   UNL     1      26.958  45.284  53.371  1.00  0.00     0.010 A 
HETATM   28  C   UNL     1      27.347  46.004  54.525  1.00  0.00     0.152 A 
HETATM   29  N   UNL     1      28.162  45.308  55.317  1.00  0.00    -0.187 NA
HETATM   30  N   UNL     1      28.303  44.135  54.681  1.00  0.00    -0.289 N 
HETATM   31  H   UNL     1      28.894  43.425  55.103  1.00  0.00     0.188 HD
HETATM   32  C   UNL     1      27.602  44.071  53.508  1.00  0.00     0.123 A 
ENDBRANCH   3  27
TORSDOF 3
ENDMDL
MODEL 3
REMARK VINA RESULT:      -9.6      1.201      2.804
REMARK  3 active torsions:
REMARK  status: ('A' for Active; 'I' for Inactive)
REMARK    1  A    between atoms: O_2  and  C_3 
REMARK    2  A    between atoms: C_5  and  C_26 
REMARK    3  A    between atoms: C_11  and  C_15 
ROOT
HETATM    1  C   UNL     1      27.592  45.266  54.006  1.00  0.00     0.096 A 
HETATM    2  C   UNL     1      28.463  45.464  55.085  1.00  0.00     0.051 A 
HETATM    3  C   UNL     1      29.339  44.443  55.501  1.00  0.00    -0.019 A 
HETATM    4  C   UNL     1      29.334  43.221  54.821  1.00  0.00     0.031 A 
HETATM    5  C   UNL     1      28.458  43.034  53.750  1.00  0.00     0.062 A 
HETATM    6  C   UNL     1      28.404  41.773  53.014  1.00  0.00     0.259 A 
HETATM    7  O   UNL     1      29.103  40.802  53.225  1.00  0.00    -0.267 OA
HETATM    8  N   UNL     1      27.454  41.698  51.973  1.00  0.00    -0.312 N 
HETATM    9  C   UNL     1      26.653  42.694  51.656  1.00  0.00     0.091 A 
HETATM   10  N   UNL     1      26.703  43.850  52.300  1.00  0.00    -0.342 N 
HETATM   11  H   UNL     1      26.087  44.628  52.063  1.00  0.00     0.167 HD
HETATM   12  C   UNL     1      27.581  44.033  53.334  1.00  0.00     0.083 A 
HETATM   13  H   UNL     1      27.396  40.815  51.468  1.00  0.00     0.170 HD
ENDROOT
BRANCH   9  14
HETATM   14  C   UNL     1      25.638  42.551  50.563  1.00  0.00     0.082 C 
HETATM   15  C   UNL     1      26.057  43.243  49.270  1.00  0.00     0.188 C 
HETATM   16  O   UNL     1      27.261  42.682  48.730  1.00  0.00    -0.350 OA
HETATM   17  C   UNL     1      27.248  41.316  48.605  1.00  0.00     0.075 A 
HETATM   18  C   UNL     1      28.214  40.767  47.759  1.00  0.00     0.040 A 
HETATM   19  C   UNL     1      26.392  40.493  49.346  1.00  0.00    -0.021 A 
HETATM   20  C   UNL     1      28.310  39.383  47.622  1.00  0.00     0.045 A 
HETATM   21  C   UNL     1      27.443  38.565  48.336  1.00  0.00     0.117 A 
HETATM   22  F   UNL     1      27.535  37.236  48.208  1.00  0.00    -0.206 F 
HETATM   23  C   UNL     1      26.487  39.104  49.191  1.00  0.00     0.052 A 
HETATM   24  C   UNL     1      25.361  41.076  50.269  1.00  0.00     0.056 C 
ENDBRANCH   9  14
BRANCH   1  25
HETATM   25  O   UNL     1      26.700  46.190  53.517  1.00  0.00    -0.354 OA
HETATM   26  C   UNL     1      26.211  47.167  54.437  1.00  0.00     0.210 C 
ENDBRANCH   1  25
BRANCH   3  27
HETATM   27  C   UNL     1      30.217  44.659  56.637  1.00  0.00     0.010 A 
HETATM   28  C   UNL     1      31.318  43.906  57.111  1.00  0.00     0.152 A 
HETATM   29  N   UNL     1      31.869  44.433  58.204  1.00  0.00    -0.187 NA
HETATM   30  N   UNL     1      31.133  45.528  58.440  1.00  0.00    -0.289 N 
HETATM   31  H   UNL     1      31.369  46.106  59.241  1.00  0.00     0.188 HD
HETATM   32  C   UNL     1      30.127  45.707  57.529  1.00  0.00     0.123 A 
ENDBRANCH   3  27
TORSDOF 3
ENDMDL
MODEL 4
REMARK VINA RESULT:      -9.5     13.504     15.066
REMARK  3 active torsions:
REMARK  status: ('A' for Active; 'I' for Inactive)
REMARK    1  A    between atoms: O_2  and  C_3 
REMARK    2  A    between atoms: C_5  and  C_26 
REMARK    3  A    between atoms: C_11  and  C_15 
ROOT
HETATM    1  C   UNL     1      35.718  50.904  41.786  1.00  0.00     0.096 A 
HETATM    2  C   UNL     1      36.622  51.807  42.359  1.00  0.00     0.051 A 
HETATM    3  C   UNL     1      36.268  52.557  43.496  1.00  0.00    -0.019 A 
HETATM    4  C   UNL     1      34.997  52.390  44.056  1.00  0.00     0.031 A 
HETATM    5  C   UNL     1      34.103  51.490  43.472  1.00  0.00     0.062 A 
HETATM    6  C   UNL     1      32.759  51.288  44.010  1.00  0.00     0.259 A 
HETATM    7  O   UNL     1      32.302  51.833  44.993  1.00  0.00    -0.267 OA
HETATM    8  N   UNL     1      31.939  50.375  43.312  1.00  0.00    -0.312 N 
HETATM    9  C   UNL     1      32.338  49.724  42.238  1.00  0.00     0.091 A 
HETATM   10  N   UNL     1      33.559  49.881  41.751  1.00  0.00    -0.342 N 
HETATM   11  H   UNL     1      33.878  49.382  40.921  1.00  0.00     0.167 HD
HETATM   12  C   UNL     1      34.438  50.748  42.343  1.00  0.00     0.083 A 
HETATM   13  H   UNL     1      30.994  50.242  43.668  1.00  0.00     0.170 HD
ENDROOT
BRANCH   9  14
HETATM   14  C   UNL     1      31.417  48.790  41.515  1.00  0.00     0.082 C 
HETATM   15  C   UNL     1      30.012  48.764  42.108  1.00  0.00     0.188 C 
HETATM   16  O   UNL     1      29.375  50.046  42.028  1.00  0.00    -0.350 OA
HETATM   17  C   UNL     1      29.399  50.618  40.782  1.00  0.00     0.075 A 
HETATM   18  C   UNL     1      28.492  51.657  40.565  1.00  0.00     0.040 A 
HETATM   19  C   UNL     1      30.334  50.265  39.801  1.00  0.00    -0.021 A 
HETATM   20  C   UNL     1      28.491  52.334  39.346  1.00  0.00     0.045 A 
HETATM   21  C   UNL     1      29.400  51.968  38.361  1.00  0.00     0.117 A 
HETATM   22  F   UNL     1      29.404  52.617  37.191  1.00  0.00    -0.206 F 
HETATM   23  C   UNL     1      30.316  50.942  38.575  1.00  0.00     0.052 A 
HETATM   24  C   UNL     1      31.323  49.159  40.033  1.00  0.00     0.056 C 
ENDBRANCH   9  14
BRANCH   1  25
HETATM   25  O   UNL     1      35.958  50.123  40.681  1.00  0.00    -0.354 OA
HETATM   26  C   UNL     1      36.585  50.756  39.565  1.00  0.00     0.210 C 
ENDBRANCH   1  25
BRANCH   3  27
HETATM   27  C   UNL     1      37.211  53.506  44.062  1.00  0.00     0.010 A 
HETATM   28  C   UNL     1      37.607  53.729  45.402  1.00  0.00     0.152 A 
HETATM   29  N   UNL     1      38.501  54.711  45.518  1.00  0.00    -0.187 NA
HETATM   30  N   UNL     1      38.690  55.125  44.256  1.00  0.00    -0.289 N 
HETATM   31  H   UNL     1      39.344  55.884  44.090  1.00  0.00     0.188 HD
HETATM   32  C   UNL     1      37.937  54.434  43.345  1.00  0.00     0.123 A 
ENDBRANCH   3  27
TORSDOF 3
ENDMDL
MODEL 5
REMARK VINA RESULT:      -9.3      5.580      7.769
REMARK  3 active torsions:
REMARK  status: ('A' for Active; 'I' for Inactive)
REMARK    1  A    between atoms: O_2  and  C_3 
REMARK    2  A    between atoms: C_5  and  C_26 
REMARK    3  A    between atoms: C_11  and  C_15 
ROOT
HETATM    1  C   UNL     1      23.634  43.719  50.313  1.00  0.00     0.096 A 
HETATM    2  C   UNL     1      24.608  43.266  51.212  1.00  0.00     0.051 A 
HETATM    3  C   UNL     1      25.587  44.143  51.715  1.00  0.00    -0.019 A 
HETATM    4  C   UNL     1      25.577  45.482  51.310  1.00  0.00     0.031 A 
HETATM    5  C   UNL     1      24.603  45.920  50.410  1.00  0.00     0.062 A 
HETATM    6  C   UNL     1      24.556  47.305  49.946  1.00  0.00     0.259 A 
HETATM    7  O   UNL     1      25.306  48.193  50.296  1.00  0.00    -0.267 OA
HETATM    8  N   UNL     1      23.544  47.616  49.012  1.00  0.00    -0.312 N 
HETATM    9  C   UNL     1      22.673  46.730  48.573  1.00  0.00     0.091 A 
HETATM   10  N   UNL     1      22.691  45.477  48.999  1.00  0.00    -0.342 N 
HETATM   11  H   UNL     1      22.021  44.783  48.665  1.00  0.00     0.167 HD
HETATM   12  C   UNL     1      23.634  45.061  49.899  1.00  0.00     0.083 A 
HETATM   13  H   UNL     1      23.516  48.574  48.669  1.00  0.00     0.170 HD
ENDROOT
BRANCH   9  14
HETATM   14  C   UNL     1      21.638  47.104  47.556  1.00  0.00     0.082 C 
HETATM   15  C   UNL     1      20.311  46.382  47.766  1.00  0.00     0.188 C 
HETATM   16  O   UNL     1      19.720  46.709  49.031  1.00  0.00    -0.350 OA
HETATM   17  C   UNL     1      19.623  48.054  49.285  1.00  0.00     0.075 A 
HETATM   18  C   UNL     1      18.738  48.425  50.299  1.00  0.00     0.040 A 
HETATM   19  C   UNL     1      20.424  49.008  48.646  1.00  0.00    -0.021 A 
HETATM   20  C   UNL     1      18.623  49.766  50.662  1.00  0.00     0.045 A 
HETATM   21  C   UNL     1      19.398  50.718  50.011  1.00  0.00     0.117 A 
HETATM   22  F   UNL     1      19.292  52.006  50.360  1.00  0.00    -0.206 F 
HETATM   23  C   UNL     1      20.292  50.354  49.009  1.00  0.00     0.052 A 
HETATM   24  C   UNL     1      21.389  48.613  47.565  1.00  0.00     0.056 C 
ENDBRANCH   9  14
BRANCH   1  25
HETATM   25  O   UNL     1      22.634  42.952  49.762  1.00  0.00    -0.354 OA
HETATM   26  C   UNL     1      23.036  41.894  48.891  1.00  0.00     0.210 C 
ENDBRANCH   1  25
BRANCH   3  27
HETATM   27  C   UNL     1      26.604  43.650  52.627  1.00  0.00     0.010 A 
HETATM   28  C   UNL     1      27.845  43.019  52.374  1.00  0.00     0.152 A 
HETATM   29  N   UNL     1      28.498  42.701  53.491  1.00  0.00    -0.187 NA
HETATM   30  N   UNL     1      27.686  43.127  54.470  1.00  0.00    -0.289 N 
HETATM   31  H   UNL     1      27.979  42.990  55.433  1.00  0.00     0.188 HD
HETATM   32  C   UNL     1      26.536  43.702  54.003  1.00  0.00     0.123 A 
ENDBRANCH   3  27
TORSDOF 3
ENDMDL
MODEL 6
REMARK VINA RESULT:      -8.9      5.527      9.866
REMARK  3 active torsions:
REMARK  status: ('A' for Active; 'I' for Inactive)
REMARK    1  A    between atoms: O_2  and  C_3 
REMARK    2  A    between atoms: C_5  and  C_26 
REMARK    3  A    between atoms: C_11  and  C_15 
ROOT
HETATM    1  C   UNL     1      21.799  48.341  48.955  1.00  0.00     0.096 A 
HETATM    2  C   UNL     1      20.422  48.381  48.707  1.00  0.00     0.051 A 
HETATM    3  C   UNL     1      19.689  47.194  48.516  1.00  0.00    -0.019 A 
HETATM    4  C   UNL     1      20.353  45.964  48.581  1.00  0.00     0.031 A 
HETATM    5  C   UNL     1      21.728  45.938  48.824  1.00  0.00     0.062 A 
HETATM    6  C   UNL     1      22.471  44.682  48.890  1.00  0.00     0.259 A 
HETATM    7  O   UNL     1      21.994  43.571  48.771  1.00  0.00    -0.267 OA
HETATM    8  N   UNL     1      23.861  44.790  49.110  1.00  0.00    -0.312 N 
HETATM    9  C   UNL     1      24.479  45.944  49.260  1.00  0.00     0.091 A 
HETATM   10  N   UNL     1      23.816  47.089  49.224  1.00  0.00    -0.342 N 
HETATM   11  H   UNL     1      24.285  47.988  49.338  1.00  0.00     0.167 HD
HETATM   12  C   UNL     1      22.465  47.105  49.007  1.00  0.00     0.083 A 
HETATM   13  H   UNL     1      24.390  43.919  49.137  1.00  0.00     0.170 HD
ENDROOT
BRANCH   9  14
HETATM   14  C   UNL     1      25.962  46.005  49.459  1.00  0.00     0.082 C 
HETATM   15  C   UNL     1      26.439  47.365  49.958  1.00  0.00     0.188 C 
HETATM   16  O   UNL     1      25.882  47.689  51.239  1.00  0.00    -0.350 OA
HETATM   17  C   UNL     1      26.028  46.710  52.188  1.00  0.00     0.075 A 
HETATM   18  C   UNL     1      25.849  47.108  53.514  1.00  0.00     0.040 A 
HETATM   19  C   UNL     1      26.246  45.364  51.866  1.00  0.00    -0.021 A 
HETATM   20  C   UNL     1      25.920  46.164  54.538  1.00  0.00     0.045 A 
HETATM   21  C   UNL     1      26.162  44.833  54.223  1.00  0.00     0.117 A 
HETATM   22  F   UNL     1      26.228  43.924  55.204  1.00  0.00    -0.206 F 
HETATM   23  C   UNL     1      26.328  44.426  52.903  1.00  0.00     0.052 A 
HETATM   24  C   UNL     1      26.424  44.927  50.441  1.00  0.00     0.056 C 
ENDBRANCH   9  14
BRANCH   1  25
HETATM   25  O   UNL     1      22.608  49.433  49.157  1.00  0.00    -0.354 OA
HETATM   26  C   UNL     1      22.014  50.572  49.781  1.00  0.00     0.210 C 
ENDBRANCH   1  25
BRANCH   3  27
HETATM   27  C   UNL     1      18.266  47.256  48.235  1.00  0.00     0.010 A 
HETATM   28  C   UNL     1      17.202  47.826  48.974  1.00  0.00     0.152 A 
HETATM   29  N   UNL     1      16.020  47.668  48.380  1.00  0.00    -0.187 NA
HETATM   30  N   UNL     1      16.312  47.000  47.254  1.00  0.00    -0.289 N 
HETATM   31  H   UNL     1      15.553  46.759  46.624  1.00  0.00     0.188 HD
HETATM   32  C   UNL     1      17.647  46.727  47.122  1.00  0.00     0.123 A 
ENDBRANCH   3  27
TORSDOF 3
ENDMDL
MODEL 7
REMARK VINA RESULT:      -8.5     12.908     14.107
REMARK  3 active torsions:
REMARK  status: ('A' for Active; 'I' for Inactive)
REMARK    1  A    between atoms: O_2  and  C_3 
REMARK    2  A    between atoms: C_5  and  C_26 
REMARK    3  A    between atoms: C_11  and  C_15 
ROOT
HETATM    1  C   UNL     1      30.684  49.353  39.877  1.00  0.00     0.096 A 
HETATM    2  C   UNL     1      31.756  49.756  40.683  1.00  0.00     0.051 A 
HETATM    3  C   UNL     1      31.631  50.859  41.550  1.00  0.00    -0.019 A 
HETATM    4  C   UNL     1      30.416  51.552  41.602  1.00  0.00     0.031 A 
HETATM    5  C   UNL     1      29.357  51.143  40.789  1.00  0.00     0.062 A 
HETATM    6  C   UNL     1      28.072  51.839  40.796  1.00  0.00     0.259 A 
HETATM    7  O   UNL     1      27.788  52.790  41.496  1.00  0.00    -0.267 OA
HETATM    8  N   UNL     1      27.092  51.349  39.907  1.00  0.00    -0.312 N 
HETATM    9  C   UNL     1      27.293  50.319  39.110  1.00  0.00     0.091 A 
HETATM   10  N   UNL     1      28.445  49.666  39.106  1.00  0.00    -0.342 N 
HETATM   11  H   UNL     1      28.611  48.868  38.493  1.00  0.00     0.167 HD
HETATM   12  C   UNL     1      29.471  50.059  39.922  1.00  0.00     0.083 A 
HETATM   13  H   UNL     1      26.200  51.841  39.891  1.00  0.00     0.170 HD
ENDROOT
BRANCH   9  14
HETATM   14  C   UNL     1      26.230  49.859  38.160  1.00  0.00     0.082 C 
HETATM   15  C   UNL     1      26.640  48.626  37.361  1.00  0.00     0.188 C 
HETATM   16  O   UNL     1      26.888  47.498  38.211  1.00  0.00    -0.350 OA
HETATM   17  C   UNL     1      25.883  47.225  39.105  1.00  0.00     0.075 A 
HETATM   18  C   UNL     1      25.900  45.952  39.678  1.00  0.00     0.040 A 
HETATM   19  C   UNL     1      24.943  48.182  39.507  1.00  0.00    -0.021 A 
HETATM   20  C   UNL     1      24.950  45.613  40.641  1.00  0.00     0.045 A 
HETATM   21  C   UNL     1      24.000  46.552  41.023  1.00  0.00     0.117 A 
HETATM   22  F   UNL     1      23.089  46.229  41.949  1.00  0.00    -0.206 F 
HETATM   23  C   UNL     1      23.986  47.826  40.465  1.00  0.00     0.052 A 
HETATM   24  C   UNL     1      24.929  49.557  38.906  1.00  0.00     0.056 C 
ENDBRANCH   9  14
BRANCH   1  25
HETATM   25  O   UNL     1      30.696  48.295  39.000  1.00  0.00    -0.354 OA
HETATM   26  C   UNL     1      30.563  46.988  39.560  1.00  0.00     0.210 C 
ENDBRANCH   1  25
BRANCH   3  27
HETATM   27  C   UNL     1      32.761  51.277  42.360  1.00  0.00     0.010 A 
HETATM   28  C   UNL     1      34.132  51.410  42.036  1.00  0.00     0.152 A 
HETATM   29  N   UNL     1      34.868  51.817  43.070  1.00  0.00    -0.187 NA
HETATM   30  N   UNL     1      33.978  51.951  44.065  1.00  0.00    -0.289 N 
HETATM   31  H   UNL     1      34.313  52.257  44.974  1.00  0.00     0.188 HD
HETATM   32  C   UNL     1      32.700  51.637  43.690  1.00  0.00     0.123 A 
ENDBRANCH   3  27
TORSDOF 3
ENDMDL
MODEL 8
REMARK VINA RESULT:      -8.4     15.014     16.808
REMARK  3 active torsions:
REMARK  status: ('A' for Active; 'I' for Inactive)
REMARK    1  A    between atoms: O_2  and  C_3 
REMARK    2  A    between atoms: C_5  and  C_26 
REMARK    3  A    between atoms: C_11  and  C_15 
ROOT
HETATM    1  C   UNL     1      38.039  47.594  65.651  1.00  0.00     0.096 A 
HETATM    2  C   UNL     1      37.354  48.326  66.629  1.00  0.00     0.051 A 
HETATM    3  C   UNL     1      36.163  47.834  67.195  1.00  0.00    -0.019 A 
HETATM    4  C   UNL     1      35.667  46.596  66.772  1.00  0.00     0.031 A 
HETATM    5  C   UNL     1      36.357  45.878  65.793  1.00  0.00     0.062 A 
HETATM    6  C   UNL     1      35.875  44.587  65.307  1.00  0.00     0.259 A 
HETATM    7  O   UNL     1      34.883  44.009  65.702  1.00  0.00    -0.267 OA
HETATM    8  N   UNL     1      36.644  43.976  64.293  1.00  0.00    -0.312 N 
HETATM    9  C   UNL     1      37.741  44.512  63.799  1.00  0.00     0.091 A 
HETATM   10  N   UNL     1      38.201  45.672  64.243  1.00  0.00    -0.342 N 
HETATM   11  H   UNL     1      39.049  46.096  63.867  1.00  0.00     0.167 HD
HETATM   12  C   UNL     1      37.531  46.358  65.219  1.00  0.00     0.083 A 
HETATM   13  H   UNL     1      36.304  43.084  63.934  1.00  0.00     0.170 HD
ENDROOT
BRANCH   9  14
HETATM   14  C   UNL     1      38.502  43.838  62.700  1.00  0.00     0.082 C 
HETATM   15  C   UNL     1      40.007  44.074  62.787  1.00  0.00     0.188 C 
HETATM   16  O   UNL     1      40.560  43.542  63.998  1.00  0.00    -0.350 OA
HETATM   17  C   UNL     1      40.226  42.237  64.254  1.00  0.00     0.075 A 
HETATM   18  C   UNL     1      41.020  41.572  65.191  1.00  0.00     0.040 A 
HETATM   19  C   UNL     1      39.102  41.616  63.695  1.00  0.00    -0.021 A 
HETATM   20  C   UNL     1      40.713  40.261  65.554  1.00  0.00     0.045 A 
HETATM   21  C   UNL     1      39.613  39.634  64.981  1.00  0.00     0.117 A 
HETATM   22  F   UNL     1      39.314  38.377  65.330  1.00  0.00    -0.206 F 
HETATM   23  C   UNL     1      38.810  40.295  64.057  1.00  0.00     0.052 A 
HETATM   24  C   UNL     1      38.236  42.331  62.699  1.00  0.00     0.056 C 
ENDBRANCH   9  14
BRANCH   1  25
HETATM   25  O   UNL     1      39.206  47.978  65.035  1.00  0.00    -0.354 OA
HETATM   26  C   UNL     1      39.450  49.382  64.928  1.00  0.00     0.210 C 
ENDBRANCH   1  25
BRANCH   3  27
HETATM   27  C   UNL     1      35.454  48.618  68.191  1.00  0.00     0.010 A 
HETATM   28  C   UNL     1      35.896  49.675  69.021  1.00  0.00     0.152 A 
HETATM   29  N   UNL     1      34.935  50.138  69.821  1.00  0.00    -0.187 NA
HETATM   30  N   UNL     1      33.869  49.386  69.510  1.00  0.00    -0.289 N 
HETATM   31  H   UNL     1      32.997  49.559  70.002  1.00  0.00     0.188 HD
HETATM   32  C   UNL     1      34.129  48.458  68.538  1.00  0.00     0.123 A 
ENDBRANCH   3  27
TORSDOF 3
ENDMDL
MODEL 9
REMARK VINA RESULT:      -8.3     11.959     13.647
REMARK  3 active torsions:
REMARK  status: ('A' for Active; 'I' for Inactive)
REMARK    1  A    between atoms: O_2  and  C_3 
REMARK    2  A    between atoms: C_5  and  C_26 
REMARK    3  A    between atoms: C_11  and  C_15 
ROOT
HETATM    1  C   UNL     1      30.332  51.102  40.742  1.00  0.00     0.096 A 
HETATM    2  C   UNL     1      31.392  51.633  41.488  1.00  0.00     0.051 A 
HETATM    3  C   UNL     1      32.477  50.824  41.874  1.00  0.00    -0.019 A 
HETATM    4  C   UNL     1      32.490  49.475  41.501  1.00  0.00     0.031 A 
HETATM    5  C   UNL     1      31.424  48.957  40.762  1.00  0.00     0.062 A 
HETATM    6  C   UNL     1      31.383  47.554  40.357  1.00  0.00     0.259 A 
HETATM    7  O   UNL     1      32.242  46.727  40.586  1.00  0.00    -0.267 OA
HETATM    8  N   UNL     1      30.237  47.145  39.641  1.00  0.00    -0.312 N 
HETATM    9  C   UNL     1      29.251  47.962  39.333  1.00  0.00     0.091 A 
HETATM   10  N   UNL     1      29.283  49.240  39.675  1.00  0.00    -0.342 N 
HETATM   11  H   UNL     1      28.524  49.881  39.442  1.00  0.00     0.167 HD
HETATM   12  C   UNL     1      30.342  49.745  40.380  1.00  0.00     0.083 A 
HETATM   13  H   UNL     1      30.191  46.163  39.372  1.00  0.00     0.170 HD
ENDROOT
BRANCH   9  14
HETATM   14  C   UNL     1      28.041  47.469  38.599  1.00  0.00     0.082 C 
HETATM   15  C   UNL     1      28.237  46.082  37.994  1.00  0.00     0.188 C 
HETATM   16  O   UNL     1      28.486  45.092  39.001  1.00  0.00    -0.350 OA
HETATM   17  C   UNL     1      27.580  45.084  40.030  1.00  0.00     0.075 A 
HETATM   18  C   UNL     1      27.553  43.930  40.816  1.00  0.00     0.040 A 
HETATM   19  C   UNL     1      26.786  46.191  40.353  1.00  0.00    -0.021 A 
HETATM   20  C   UNL     1      26.703  43.862  41.919  1.00  0.00     0.045 A 
HETATM   21  C   UNL     1      25.895  44.950  42.227  1.00  0.00     0.117 A 
HETATM   22  F   UNL     1      25.081  44.888  43.287  1.00  0.00    -0.206 F 
HETATM   23  C   UNL     1      25.926  46.107  41.455  1.00  0.00     0.052 A 
HETATM   24  C   UNL     1      26.820  47.440  39.521  1.00  0.00     0.056 C 
ENDBRANCH   9  14
BRANCH   1  25
HETATM   25  O   UNL     1      29.228  51.800  40.312  1.00  0.00    -0.354 OA
HETATM   26  C   UNL     1      28.367  52.333  41.319  1.00  0.00     0.210 C 
ENDBRANCH   1  25
BRANCH   3  27
HETATM   27  C   UNL     1      33.555  51.386  42.668  1.00  0.00     0.010 A 
HETATM   28  C   UNL     1      34.911  51.629  42.345  1.00  0.00     0.152 A 
HETATM   29  N   UNL     1      35.596  52.154  43.361  1.00  0.00    -0.187 NA
HETATM   30  N   UNL     1      34.688  52.256  44.342  1.00  0.00    -0.289 N 
HETATM   31  H   UNL     1      34.983  52.639  45.235  1.00  0.00     0.188 HD
HETATM   32  C   UNL     1      33.448  51.806  43.977  1.00  0.00     0.123 A 
ENDBRANCH   3  27
TORSDOF 3
ENDMDL
MODEL 10
REMARK VINA RESULT:      -8.3     15.633     18.019
REMARK  3 active torsions:
REMARK  status: ('A' for Active; 'I' for Inactive)
REMARK    1  A    between atoms: O_2  and  C_3 
REMARK    2  A    between atoms: C_5  and  C_26 
REMARK    3  A    between atoms: C_11  and  C_15 
ROOT
HETATM    1  C   UNL     1      37.126  42.931  64.897  1.00  0.00     0.096 A 
HETATM    2  C   UNL     1      37.782  41.717  64.658  1.00  0.00     0.051 A 
HETATM    3  C   UNL     1      39.118  41.695  64.213  1.00  0.00    -0.019 A 
HETATM    4  C   UNL     1      39.791  42.905  64.014  1.00  0.00     0.031 A 
HETATM    5  C   UNL     1      39.124  44.109  64.251  1.00  0.00     0.062 A 
HETATM    6  C   UNL     1      39.776  45.400  64.046  1.00  0.00     0.259 A 
HETATM    7  O   UNL     1      40.926  45.562  63.690  1.00  0.00    -0.267 OA
HETATM    8  N   UNL     1      38.986  46.544  64.290  1.00  0.00    -0.312 N 
HETATM    9  C   UNL     1      37.732  46.482  64.687  1.00  0.00     0.091 A 
HETATM   10  N   UNL     1      37.133  45.320  64.896  1.00  0.00    -0.342 N 
HETATM   11  H   UNL     1      36.162  45.260  65.204  1.00  0.00     0.167 HD
HETATM   12  C   UNL     1      37.801  44.144  64.683  1.00  0.00     0.083 A 
HETATM   13  H   UNL     1      39.427  47.449  64.131  1.00  0.00     0.170 HD
ENDROOT
BRANCH   9  14
HETATM   14  C   UNL     1      36.927  47.727  64.900  1.00  0.00     0.082 C 
HETATM   15  C   UNL     1      35.797  47.539  65.908  1.00  0.00     0.188 C 
HETATM   16  O   UNL     1      36.293  47.195  67.208  1.00  0.00    -0.350 OA
HETATM   17  C   UNL     1      37.276  48.026  67.682  1.00  0.00     0.075 A 
HETATM   18  C   UNL     1      37.520  47.968  69.055  1.00  0.00     0.040 A 
HETATM   19  C   UNL     1      38.067  48.823  66.845  1.00  0.00    -0.021 A 
HETATM   20  C   UNL     1      38.542  48.736  69.611  1.00  0.00     0.045 A 
HETATM   21  C   UNL     1      39.312  49.547  68.787  1.00  0.00     0.117 A 
HETATM   22  F   UNL     1      40.296  50.283  69.317  1.00  0.00    -0.206 F 
HETATM   23  C   UNL     1      39.083  49.600  67.415  1.00  0.00     0.052 A 
HETATM   24  C   UNL     1      37.819  48.878  65.365  1.00  0.00     0.056 C 
ENDBRANCH   9  14
BRANCH   1  25
HETATM   25  O   UNL     1      35.830  43.068  65.332  1.00  0.00    -0.354 OA
HETATM   26  C   UNL     1      35.051  41.874  65.433  1.00  0.00     0.210 C 
ENDBRANCH   1  25
BRANCH   3  27
HETATM   27  C   UNL     1      39.774  40.427  63.947  1.00  0.00     0.010 A 
HETATM   28  C   UNL     1      40.762  39.726  64.678  1.00  0.00     0.152 A 
HETATM   29  N   UNL     1      41.121  38.584  64.094  1.00  0.00    -0.187 NA
HETATM   30  N   UNL     1      40.367  38.538  62.986  1.00  0.00    -0.289 N 
HETATM   31  H   UNL     1      40.467  37.740  62.366  1.00  0.00     0.188 HD
HETATM   32  C   UNL     1      39.542  39.622  62.852  1.00  0.00     0.123 A 
ENDBRANCH   3  27
TORSDOF 3
ENDMDL
