MODEL 1
REMARK VINA RESULT:     -10.9      0.000      0.000
REMARK  4 active torsions:
REMARK  status: ('A' for Active; 'I' for Inactive)
REMARK    1  A    between atoms: C_2  and  N_3 
REMARK    2  A    between atoms: C_7  and  N_8 
REMARK       I    between atoms: N_8  and  C_9 
REMARK    3  A    between atoms: C_9  and  C_10 
REMARK    4  A    between atoms: C_10  and  N_11 
ROOT
HETATM    1  N   UNL     1      25.336  44.321  50.907  1.00  0.00    -0.326 N 
HETATM    2  C   UNL     1      26.524  43.776  50.464  1.00  0.00     0.242 C 
HETATM    3  O   UNL     1      26.960  43.835  49.314  1.00  0.00    -0.271 OA
HETATM    4  H   UNL     1      25.137  44.144  51.891  1.00  0.00     0.169 HD
ENDROOT
BRANCH   2   5
HETATM    5  C   UNL     1      27.253  42.918  51.502  1.00  0.00     0.257 C 
BRANCH   5   6
HETATM    6  N   UNL     1      28.005  43.601  52.556  1.00  0.00    -0.224 N 
HETATM    7  N   UNL     1      27.411  44.753  53.126  1.00  0.00    -0.180 NA
HETATM    8  C   UNL     1      27.905  45.260  54.221  1.00  0.00     0.153 A 
HETATM    9  C   UNL     1      29.031  44.659  54.874  1.00  0.00     0.028 A 
HETATM   10  C   UNL     1      29.608  43.553  54.306  1.00  0.00     0.116 A 
HETATM   11  C   UNL     1      29.719  44.939  56.084  1.00  0.00     0.005 A 
HETATM   12  N   UNL     1      30.635  43.142  55.107  1.00  0.00    -0.350 N 
HETATM   13  C   UNL     1      29.131  42.942  53.102  1.00  0.00     0.291 A 
HETATM   14  H   UNL     1      31.219  42.335  54.929  1.00  0.00     0.166 HD
HETATM   15  C   UNL     1      30.713  43.962  56.214  1.00  0.00     0.044 A 
HETATM   16  C   UNL     1      31.574  43.905  57.316  1.00  0.00     0.030 A 
HETATM   17  C   UNL     1      31.418  44.872  58.312  1.00  0.00     0.002 A 
HETATM   18  C   UNL     1      30.442  45.861  58.207  1.00  0.00     0.001 A 
HETATM   19  C   UNL     1      29.586  45.907  57.099  1.00  0.00     0.014 A 
HETATM   20  O   UNL     1      29.641  41.929  52.636  1.00  0.00    -0.264 OA
ENDBRANCH   5   6
ENDBRANCH   2   5
BRANCH   1  21
HETATM   21  C   UNL     1      24.372  45.030  50.161  1.00  0.00     0.035 A 
HETATM   22  C   UNL     1      24.354  46.424  50.047  1.00  0.00     0.044 A 
HETATM   23  C   UNL     1      23.372  47.067  49.258  1.00  0.00     0.005 A 
HETATM   24  C   UNL     1      22.409  46.293  48.611  1.00  0.00     0.046 A 
HETATM   25  C   UNL     1      23.120  48.437  48.933  1.00  0.00     0.003 A 
HETATM   26  N   UNL     1      21.576  47.168  47.939  1.00  0.00    -0.346 N 
HETATM   27  C   UNL     1      22.408  44.893  48.710  1.00  0.00     0.033 A 
HETATM   28  C   UNL     1      21.998  48.475  48.104  1.00  0.00     0.046 A 
HETATM   29  C   UNL     1      21.491  49.686  47.600  1.00  0.00     0.030 A 
HETATM   30  C   UNL     1      22.146  50.872  47.946  1.00  0.00     0.002 A 
HETATM   31  C   UNL     1      23.266  50.856  48.770  1.00  0.00     0.001 A 
HETATM   32  C   UNL     1      23.760  49.648  49.269  1.00  0.00     0.014 A 
HETATM   33  C   UNL     1      23.403  44.282  49.487  1.00  0.00     0.032 A 
BRANCH  26  34
HETATM   34  C   UNL     1      20.404  46.777  47.172  1.00  0.00     0.125 C 
HETATM   35  C   UNL     1      19.168  46.620  48.041  1.00  0.00     0.027 C 
ENDBRANCH  26  34
ENDBRANCH   1  21
TORSDOF 4
ENDMDL
MODEL 2
REMARK VINA RESULT:     -10.7      2.951     10.974
REMARK  4 active torsions:
REMARK  status: ('A' for Active; 'I' for Inactive)
REMARK    1  A    between atoms: C_2  and  N_3 
REMARK    2  A    between atoms: C_7  and  N_8 
REMARK       I    between atoms: N_8  and  C_9 
REMARK    3  A    between atoms: C_9  and  C_10 
REMARK    4  A    between atoms: C_10  and  N_11 
ROOT
HETATM    1  N   UNL     1      24.712  46.640  50.682  1.00  0.00    -0.326 N 
HETATM    2  C   UNL     1      24.799  47.696  49.797  1.00  0.00     0.242 C 
HETATM    3  O   UNL     1      25.653  48.582  49.813  1.00  0.00    -0.271 OA
HETATM    4  H   UNL     1      23.918  46.023  50.518  1.00  0.00     0.169 HD
ENDROOT
BRANCH   2   5
HETATM    5  C   UNL     1      23.627  47.799  48.818  1.00  0.00     0.257 C 
BRANCH   5   6
HETATM    6  N   UNL     1      22.447  48.561  49.231  1.00  0.00    -0.224 N 
HETATM    7  N   UNL     1      22.668  49.872  49.720  1.00  0.00    -0.180 NA
HETATM    8  C   UNL     1      21.659  50.683  49.873  1.00  0.00     0.153 A 
HETATM    9  C   UNL     1      20.325  50.278  49.536  1.00  0.00     0.028 A 
HETATM   10  C   UNL     1      20.120  49.003  49.078  1.00  0.00     0.116 A 
HETATM   11  C   UNL     1      19.076  50.952  49.528  1.00  0.00     0.005 A 
HETATM   12  N   UNL     1      18.792  48.852  48.799  1.00  0.00    -0.350 N 
HETATM   13  C   UNL     1      21.173  48.050  48.891  1.00  0.00     0.291 A 
HETATM   14  H   UNL     1      18.371  48.009  48.429  1.00  0.00     0.166 HD
HETATM   15  C   UNL     1      18.131  50.038  49.047  1.00  0.00     0.044 A 
HETATM   16  C   UNL     1      16.782  50.369  48.872  1.00  0.00     0.030 A 
HETATM   17  C   UNL     1      16.386  51.668  49.198  1.00  0.00     0.002 A 
HETATM   18  C   UNL     1      17.302  52.598  49.685  1.00  0.00     0.001 A 
HETATM   19  C   UNL     1      18.649  52.254  49.856  1.00  0.00     0.014 A 
HETATM   20  O   UNL     1      20.968  46.928  48.442  1.00  0.00    -0.264 OA
ENDBRANCH   5   6
ENDBRANCH   2   5
BRANCH   1  21
HETATM   21  C   UNL     1      25.545  46.358  51.784  1.00  0.00     0.035 A 
HETATM   22  C   UNL     1      26.499  45.335  51.791  1.00  0.00     0.044 A 
HETATM   23  C   UNL     1      27.320  45.126  52.924  1.00  0.00     0.005 A 
HETATM   24  C   UNL     1      27.151  45.942  54.042  1.00  0.00     0.046 A 
HETATM   25  C   UNL     1      28.376  44.207  53.211  1.00  0.00     0.003 A 
HETATM   26  N   UNL     1      28.056  45.510  54.994  1.00  0.00    -0.346 N 
HETATM   27  C   UNL     1      26.201  46.976  54.058  1.00  0.00     0.033 A 
HETATM   28  C   UNL     1      28.823  44.468  54.507  1.00  0.00     0.046 A 
HETATM   29  C   UNL     1      29.870  43.733  55.092  1.00  0.00     0.030 A 
HETATM   30  C   UNL     1      30.467  42.719  54.337  1.00  0.00     0.002 A 
HETATM   31  C   UNL     1      30.038  42.442  53.044  1.00  0.00     0.001 A 
HETATM   32  C   UNL     1      28.994  43.176  52.472  1.00  0.00     0.014 A 
HETATM   33  C   UNL     1      25.412  47.169  52.915  1.00  0.00     0.032 A 
BRANCH  26  34
HETATM   34  C   UNL     1      28.179  46.062  56.335  1.00  0.00     0.125 C 
HETATM   35  C   UNL     1      29.622  46.137  56.801  1.00  0.00     0.027 C 
ENDBRANCH  26  34
ENDBRANCH   1  21
TORSDOF 4
ENDMDL
MODEL 3
REMARK VINA RESULT:     -10.4      1.445      2.750
REMARK  4 active torsions:
REMARK  status: ('A' for Active; 'I' for Inactive)
REMARK    1  A    between atoms: C_2  and  N_3 
REMARK    2  A    between atoms: C_7  and  N_8 
REMARK       I    between atoms: N_8  and  C_9 
REMARK    3  A    between atoms: C_9  and  C_10 
REMARK    4  A    between atoms: C_10  and  N_11 
ROOT
HETATM    1  N   UNL     1      24.893  45.286  49.748  1.00  0.00    -0.326 N 
HETATM    2  C   UNL     1      24.629  44.231  50.599  1.00  0.00     0.242 C 
HETATM    3  O   UNL     1      23.563  44.019  51.176  1.00  0.00    -0.271 OA
HETATM    4  H   UNL     1      25.847  45.302  49.388  1.00  0.00     0.169 HD
ENDROOT
BRANCH   2   5
HETATM    5  C   UNL     1      25.846  43.361  50.924  1.00  0.00     0.257 C 
BRANCH   5   6
HETATM    6  N   UNL     1      26.823  43.871  51.888  1.00  0.00    -0.224 N 
HETATM    7  N   UNL     1      26.472  45.046  52.596  1.00  0.00    -0.180 NA
HETATM    8  C   UNL     1      27.177  45.412  53.630  1.00  0.00     0.153 A 
HETATM    9  C   UNL     1      28.296  44.634  54.077  1.00  0.00     0.028 A 
HETATM   10  C   UNL     1      28.636  43.507  53.375  1.00  0.00     0.116 A 
HETATM   11  C   UNL     1      29.178  44.744  55.184  1.00  0.00     0.005 A 
HETATM   12  N   UNL     1      29.702  42.919  53.993  1.00  0.00    -0.350 N 
HETATM   13  C   UNL     1      27.918  43.043  52.226  1.00  0.00     0.291 A 
HETATM   14  H   UNL     1      30.144  42.060  53.690  1.00  0.00     0.166 HD
HETATM   15  C   UNL     1      30.043  43.645  55.116  1.00  0.00     0.044 A 
HETATM   16  C   UNL     1      31.036  43.407  56.073  1.00  0.00     0.030 A 
HETATM   17  C   UNL     1      31.150  44.316  57.128  1.00  0.00     0.002 A 
HETATM   18  C   UNL     1      30.308  45.421  57.219  1.00  0.00     0.001 A 
HETATM   19  C   UNL     1      29.318  45.649  56.254  1.00  0.00     0.014 A 
HETATM   20  O   UNL     1      28.219  42.010  51.640  1.00  0.00    -0.264 OA
ENDBRANCH   5   6
ENDBRANCH   2   5
BRANCH   1  21
HETATM   21  C   UNL     1      24.033  46.339  49.375  1.00  0.00     0.035 A 
HETATM   22  C   UNL     1      22.926  46.172  48.536  1.00  0.00     0.044 A 
HETATM   23  C   UNL     1      22.090  47.270  48.225  1.00  0.00     0.005 A 
HETATM   24  C   UNL     1      22.396  48.525  48.751  1.00  0.00     0.046 A 
HETATM   25  C   UNL     1      20.901  47.404  47.442  1.00  0.00     0.003 A 
HETATM   26  N   UNL     1      21.439  49.403  48.276  1.00  0.00    -0.346 N 
HETATM   27  C   UNL     1      23.500  48.715  49.596  1.00  0.00     0.033 A 
HETATM   28  C   UNL     1      20.510  48.743  47.492  1.00  0.00     0.046 A 
HETATM   29  C   UNL     1      19.362  49.204  46.824  1.00  0.00     0.030 A 
HETATM   30  C   UNL     1      18.604  48.281  46.098  1.00  0.00     0.002 A 
HETATM   31  C   UNL     1      18.975  46.943  46.035  1.00  0.00     0.001 A 
HETATM   32  C   UNL     1      20.120  46.493  46.700  1.00  0.00     0.014 A 
HETATM   33  C   UNL     1      24.303  47.606  49.899  1.00  0.00     0.032 A 
BRANCH  26  34
HETATM   34  C   UNL     1      21.415  50.833  48.545  1.00  0.00     0.125 C 
HETATM   35  C   UNL     1      20.370  51.211  49.579  1.00  0.00     0.027 C 
ENDBRANCH  26  34
ENDBRANCH   1  21
TORSDOF 4
ENDMDL
MODEL 4
REMARK VINA RESULT:     -10.4      2.440     10.258
REMARK  4 active torsions:
REMARK  status: ('A' for Active; 'I' for Inactive)
REMARK    1  A    between atoms: C_2  and  N_3 
REMARK    2  A    between atoms: C_7  and  N_8 
REMARK       I    between atoms: N_8  and  C_9 
REMARK    3  A    between atoms: C_9  and  C_10 
REMARK    4  A    between atoms: C_10  and  N_11 
ROOT
HETATM    1  N   UNL     1      23.334  44.482  50.229  1.00  0.00    -0.326 N 
HETATM    2  C   UNL     1      23.251  44.385  48.855  1.00  0.00     0.242 C 
HETATM    3  O   UNL     1      24.170  44.075  48.097  1.00  0.00    -0.271 OA
HETATM    4  H   UNL     1      22.468  44.777  50.680  1.00  0.00     0.169 HD
ENDROOT
BRANCH   2   5
HETATM    5  C   UNL     1      21.914  44.846  48.267  1.00  0.00     0.257 C 
BRANCH   5   6
HETATM    6  N   UNL     1      21.445  46.194  48.595  1.00  0.00    -0.224 N 
HETATM    7  N   UNL     1      22.424  47.214  48.674  1.00  0.00    -0.180 NA
HETATM    8  C   UNL     1      22.054  48.463  48.718  1.00  0.00     0.153 A 
HETATM    9  C   UNL     1      20.668  48.828  48.670  1.00  0.00     0.028 A 
HETATM   10  C   UNL     1      19.728  47.833  48.608  1.00  0.00     0.116 A 
HETATM   11  C   UNL     1      19.990  50.074  48.627  1.00  0.00     0.005 A 
HETATM   12  N   UNL     1      18.492  48.409  48.543  1.00  0.00    -0.350 N 
HETATM   13  C   UNL     1      20.052  46.438  48.564  1.00  0.00     0.291 A 
HETATM   14  H   UNL     1      17.620  47.901  48.473  1.00  0.00     0.166 HD
HETATM   15  C   UNL     1      18.624  49.783  48.533  1.00  0.00     0.044 A 
HETATM   16  C   UNL     1      17.646  50.779  48.438  1.00  0.00     0.030 A 
HETATM   17  C   UNL     1      18.073  52.109  48.440  1.00  0.00     0.002 A 
HETATM   18  C   UNL     1      19.425  52.430  48.538  1.00  0.00     0.001 A 
HETATM   19  C   UNL     1      20.394  51.423  48.634  1.00  0.00     0.014 A 
HETATM   20  O   UNL     1      19.193  45.569  48.469  1.00  0.00    -0.264 OA
ENDBRANCH   5   6
ENDBRANCH   2   5
BRANCH   1  21
HETATM   21  C   UNL     1      24.462  44.276  51.049  1.00  0.00     0.035 A 
HETATM   22  C   UNL     1      24.996  45.257  51.891  1.00  0.00     0.044 A 
HETATM   23  C   UNL     1      26.116  44.971  52.707  1.00  0.00     0.005 A 
HETATM   24  C   UNL     1      26.692  43.702  52.647  1.00  0.00     0.046 A 
HETATM   25  C   UNL     1      26.849  45.736  53.666  1.00  0.00     0.003 A 
HETATM   26  N   UNL     1      27.763  43.706  53.519  1.00  0.00    -0.346 N 
HETATM   27  C   UNL     1      26.171  42.701  51.811  1.00  0.00     0.033 A 
HETATM   28  C   UNL     1      27.870  44.925  54.164  1.00  0.00     0.046 A 
HETATM   29  C   UNL     1      28.773  45.385  55.139  1.00  0.00     0.030 A 
HETATM   30  C   UNL     1      28.625  46.693  55.612  1.00  0.00     0.002 A 
HETATM   31  C   UNL     1      27.615  47.518  55.130  1.00  0.00     0.001 A 
HETATM   32  C   UNL     1      26.724  47.053  54.158  1.00  0.00     0.014 A 
HETATM   33  C   UNL     1      25.052  43.009  51.024  1.00  0.00     0.032 A 
BRANCH  26  34
HETATM   34  C   UNL     1      28.672  42.588  53.726  1.00  0.00     0.125 C 
HETATM   35  C   UNL     1      29.917  42.685  52.862  1.00  0.00     0.027 C 
ENDBRANCH  26  34
ENDBRANCH   1  21
TORSDOF 4
ENDMDL
MODEL 5
REMARK VINA RESULT:      -9.8      3.251      5.128
REMARK  4 active torsions:
REMARK  status: ('A' for Active; 'I' for Inactive)
REMARK    1  A    between atoms: C_2  and  N_3 
REMARK    2  A    between atoms: C_7  and  N_8 
REMARK       I    between atoms: N_8  and  C_9 
REMARK    3  A    between atoms: C_9  and  C_10 
REMARK    4  A    between atoms: C_10  and  N_11 
ROOT
HETATM    1  N   UNL     1      23.393  48.394  49.680  1.00  0.00    -0.326 N 
HETATM    2  C   UNL     1      24.523  48.830  49.018  1.00  0.00     0.242 C 
HETATM    3  O   UNL     1      24.546  49.397  47.926  1.00  0.00    -0.271 OA
HETATM    4  H   UNL     1      23.582  47.924  50.564  1.00  0.00     0.169 HD
ENDROOT
BRANCH   2   5
HETATM    5  C   UNL     1      25.841  48.423  49.682  1.00  0.00     0.257 C 
BRANCH   5   6
HETATM    6  N   UNL     1      25.968  47.052  50.181  1.00  0.00    -0.224 N 
HETATM    7  N   UNL     1      26.325  46.057  49.240  1.00  0.00    -0.180 NA
HETATM    8  C   UNL     1      26.690  44.876  49.655  1.00  0.00     0.153 A 
HETATM    9  C   UNL     1      26.756  44.570  51.055  1.00  0.00     0.028 A 
HETATM   10  C   UNL     1      26.394  45.536  51.957  1.00  0.00     0.116 A 
HETATM   11  C   UNL     1      27.177  43.426  51.782  1.00  0.00     0.005 A 
HETATM   12  N   UNL     1      26.560  45.035  53.216  1.00  0.00    -0.350 N 
HETATM   13  C   UNL     1      25.975  46.853  51.581  1.00  0.00     0.291 A 
HETATM   14  H   UNL     1      26.381  45.547  54.070  1.00  0.00     0.166 HD
HETATM   15  C   UNL     1      27.058  43.751  53.139  1.00  0.00     0.044 A 
HETATM   16  C   UNL     1      27.418  42.863  54.160  1.00  0.00     0.030 A 
HETATM   17  C   UNL     1      27.913  41.611  53.787  1.00  0.00     0.002 A 
HETATM   18  C   UNL     1      28.037  41.258  52.445  1.00  0.00     0.001 A 
HETATM   19  C   UNL     1      27.672  42.155  51.433  1.00  0.00     0.014 A 
HETATM   20  O   UNL     1      25.694  47.712  52.410  1.00  0.00    -0.264 OA
ENDBRANCH   5   6
ENDBRANCH   2   5
BRANCH   1  21
HETATM   21  C   UNL     1      22.050  48.479  49.257  1.00  0.00     0.035 A 
HETATM   22  C   UNL     1      21.214  49.562  49.550  1.00  0.00     0.044 A 
HETATM   23  C   UNL     1      19.884  49.592  49.070  1.00  0.00     0.005 A 
HETATM   24  C   UNL     1      19.411  48.518  48.316  1.00  0.00     0.046 A 
HETATM   25  C   UNL     1      18.827  50.549  49.175  1.00  0.00     0.003 A 
HETATM   26  N   UNL     1      18.095  48.799  48.000  1.00  0.00    -0.346 N 
HETATM   27  C   UNL     1      20.233  47.422  48.008  1.00  0.00     0.033 A 
HETATM   28  C   UNL     1      17.722  50.035  48.495  1.00  0.00     0.046 A 
HETATM   29  C   UNL     1      16.511  50.745  48.406  1.00  0.00     0.030 A 
HETATM   30  C   UNL     1      16.434  51.999  49.020  1.00  0.00     0.002 A 
HETATM   31  C   UNL     1      17.523  52.530  49.701  1.00  0.00     0.001 A 
HETATM   32  C   UNL     1      18.721  51.816  49.787  1.00  0.00     0.014 A 
HETATM   33  C   UNL     1      21.551  47.426  48.486  1.00  0.00     0.032 A 
BRANCH  26  34
HETATM   34  C   UNL     1      17.210  47.912  47.259  1.00  0.00     0.125 C 
HETATM   35  C   UNL     1      17.318  48.107  45.757  1.00  0.00     0.027 C 
ENDBRANCH  26  34
ENDBRANCH   1  21
TORSDOF 4
ENDMDL
MODEL 6
REMARK VINA RESULT:      -9.6      3.674      6.445
REMARK  4 active torsions:
REMARK  status: ('A' for Active; 'I' for Inactive)
REMARK    1  A    between atoms: C_2  and  N_3 
REMARK    2  A    between atoms: C_7  and  N_8 
REMARK       I    between atoms: N_8  and  C_9 
REMARK    3  A    between atoms: C_9  and  C_10 
REMARK    4  A    between atoms: C_10  and  N_11 
ROOT
HETATM    1  N   UNL     1      25.454  43.937  50.940  1.00  0.00    -0.326 N 
HETATM    2  C   UNL     1      25.901  45.232  50.774  1.00  0.00     0.242 C 
HETATM    3  O   UNL     1      26.285  45.733  49.718  1.00  0.00    -0.271 OA
HETATM    4  H   UNL     1      25.203  43.702  51.899  1.00  0.00     0.169 HD
ENDROOT
BRANCH   2   5
HETATM    5  C   UNL     1      26.042  46.024  52.077  1.00  0.00     0.257 C 
BRANCH   5   6
HETATM    6  N   UNL     1      26.879  45.463  53.140  1.00  0.00    -0.224 N 
HETATM    7  N   UNL     1      27.697  44.360  52.797  1.00  0.00    -0.180 NA
HETATM    8  C   UNL     1      28.635  43.972  53.616  1.00  0.00     0.153 A 
HETATM    9  C   UNL     1      28.867  44.657  54.855  1.00  0.00     0.028 A 
HETATM   10  C   UNL     1      28.059  45.713  55.183  1.00  0.00     0.116 A 
HETATM   11  C   UNL     1      29.836  44.510  55.881  1.00  0.00     0.005 A 
HETATM   12  N   UNL     1      28.477  46.222  56.380  1.00  0.00    -0.350 N 
HETATM   13  C   UNL     1      27.003  46.195  54.343  1.00  0.00     0.291 A 
HETATM   14  H   UNL     1      28.064  47.019  56.846  1.00  0.00     0.166 HD
HETATM   15  C   UNL     1      29.577  45.515  56.821  1.00  0.00     0.044 A 
HETATM   16  C   UNL     1      30.362  45.696  57.966  1.00  0.00     0.030 A 
HETATM   17  C   UNL     1      31.440  44.828  58.157  1.00  0.00     0.002 A 
HETATM   18  C   UNL     1      31.717  43.814  57.243  1.00  0.00     0.001 A 
HETATM   19  C   UNL     1      30.924  43.643  56.102  1.00  0.00     0.014 A 
HETATM   20  O   UNL     1      26.320  47.168  54.643  1.00  0.00    -0.264 OA
ENDBRANCH   5   6
ENDBRANCH   2   5
BRANCH   1  21
HETATM   21  C   UNL     1      25.357  42.920  49.968  1.00  0.00     0.035 A 
HETATM   22  C   UNL     1      26.304  41.901  49.818  1.00  0.00     0.044 A 
HETATM   23  C   UNL     1      26.127  40.897  48.838  1.00  0.00     0.005 A 
HETATM   24  C   UNL     1      25.006  40.946  48.010  1.00  0.00     0.046 A 
HETATM   25  C   UNL     1      26.886  39.741  48.474  1.00  0.00     0.003 A 
HETATM   26  N   UNL     1      25.097  39.871  47.147  1.00  0.00    -0.346 N 
HETATM   27  C   UNL     1      24.042  41.958  48.144  1.00  0.00     0.033 A 
HETATM   28  C   UNL     1      26.221  39.113  47.419  1.00  0.00     0.046 A 
HETATM   29  C   UNL     1      26.712  37.934  46.832  1.00  0.00     0.030 A 
HETATM   30  C   UNL     1      27.898  37.389  47.335  1.00  0.00     0.002 A 
HETATM   31  C   UNL     1      28.576  37.997  48.384  1.00  0.00     0.001 A 
HETATM   32  C   UNL     1      28.082  39.172  48.960  1.00  0.00     0.014 A 
HETATM   33  C   UNL     1      24.235  42.932  49.134  1.00  0.00     0.032 A 
BRANCH  26  34
HETATM   34  C   UNL     1      24.150  39.577  46.081  1.00  0.00     0.125 C 
HETATM   35  C   UNL     1      22.988  38.723  46.557  1.00  0.00     0.027 C 
ENDBRANCH  26  34
ENDBRANCH   1  21
TORSDOF 4
ENDMDL
MODEL 7
REMARK VINA RESULT:      -9.5      2.617      3.728
REMARK  4 active torsions:
REMARK  status: ('A' for Active; 'I' for Inactive)
REMARK    1  A    between atoms: C_2  and  N_3 
REMARK    2  A    between atoms: C_7  and  N_8 
REMARK       I    between atoms: N_8  and  C_9 
REMARK    3  A    between atoms: C_9  and  C_10 
REMARK    4  A    between atoms: C_10  and  N_11 
ROOT
HETATM    1  N   UNL     1      24.745  45.454  49.834  1.00  0.00    -0.326 N 
HETATM    2  C   UNL     1      24.948  45.220  51.179  1.00  0.00     0.242 C 
HETATM    3  O   UNL     1      24.248  44.510  51.901  1.00  0.00    -0.271 OA
HETATM    4  H   UNL     1      25.421  46.093  49.416  1.00  0.00     0.169 HD
ENDROOT
BRANCH   2   5
HETATM    5  C   UNL     1      26.074  46.049  51.804  1.00  0.00     0.257 C 
BRANCH   5   6
HETATM    6  N   UNL     1      26.881  45.433  52.859  1.00  0.00    -0.224 N 
HETATM    7  N   UNL     1      27.638  44.290  52.505  1.00  0.00    -0.180 NA
HETATM    8  C   UNL     1      28.555  43.845  53.318  1.00  0.00     0.153 A 
HETATM    9  C   UNL     1      28.826  44.504  54.562  1.00  0.00     0.028 A 
HETATM   10  C   UNL     1      28.077  45.600  54.902  1.00  0.00     0.116 A 
HETATM   11  C   UNL     1      29.787  44.295  55.585  1.00  0.00     0.005 A 
HETATM   12  N   UNL     1      28.525  46.074  56.102  1.00  0.00    -0.350 N 
HETATM   13  C   UNL     1      27.047  46.146  54.069  1.00  0.00     0.291 A 
HETATM   14  H   UNL     1      28.156  46.888  56.576  1.00  0.00     0.166 HD
HETATM   15  C   UNL     1      29.586  45.305  56.534  1.00  0.00     0.044 A 
HETATM   16  C   UNL     1      30.381  45.433  57.679  1.00  0.00     0.030 A 
HETATM   17  C   UNL     1      31.410  44.505  57.860  1.00  0.00     0.002 A 
HETATM   18  C   UNL     1      31.631  43.486  56.936  1.00  0.00     0.001 A 
HETATM   19  C   UNL     1      30.827  43.369  55.795  1.00  0.00     0.014 A 
HETATM   20  O   UNL     1      26.419  47.152  54.379  1.00  0.00    -0.264 OA
ENDBRANCH   5   6
ENDBRANCH   2   5
BRANCH   1  21
HETATM   21  C   UNL     1      23.709  44.965  49.012  1.00  0.00     0.035 A 
HETATM   22  C   UNL     1      22.428  45.523  48.969  1.00  0.00     0.044 A 
HETATM   23  C   UNL     1      21.444  44.996  48.099  1.00  0.00     0.005 A 
HETATM   24  C   UNL     1      21.764  43.899  47.300  1.00  0.00     0.046 A 
HETATM   25  C   UNL     1      20.091  45.361  47.816  1.00  0.00     0.003 A 
HETATM   26  N   UNL     1      20.630  43.585  46.576  1.00  0.00    -0.346 N 
HETATM   27  C   UNL     1      23.044  43.323  47.326  1.00  0.00     0.033 A 
HETATM   28  C   UNL     1      19.604  44.469  46.859  1.00  0.00     0.046 A 
HETATM   29  C   UNL     1      18.294  44.564  46.358  1.00  0.00     0.030 A 
HETATM   30  C   UNL     1      17.473  45.586  46.843  1.00  0.00     0.002 A 
HETATM   31  C   UNL     1      17.937  46.485  47.796  1.00  0.00     0.001 A 
HETATM   32  C   UNL     1      19.241  46.382  48.290  1.00  0.00     0.014 A 
HETATM   33  C   UNL     1      24.003  43.876  48.187  1.00  0.00     0.032 A 
BRANCH  26  34
HETATM   34  C   UNL     1      20.515  42.468  45.651  1.00  0.00     0.125 C 
HETATM   35  C   UNL     1      20.938  42.837  44.240  1.00  0.00     0.027 C 
ENDBRANCH  26  34
ENDBRANCH   1  21
TORSDOF 4
ENDMDL
MODEL 8
REMARK VINA RESULT:      -9.5      4.777     10.186
REMARK  4 active torsions:
REMARK  status: ('A' for Active; 'I' for Inactive)
REMARK    1  A    between atoms: C_2  and  N_3 
REMARK    2  A    between atoms: C_7  and  N_8 
REMARK       I    between atoms: N_8  and  C_9 
REMARK    3  A    between atoms: C_9  and  C_10 
REMARK    4  A    between atoms: C_10  and  N_11 
ROOT
HETATM    1  N   UNL     1      26.629  41.897  51.480  1.00  0.00    -0.326 N 
HETATM    2  C   UNL     1      27.276  40.730  51.126  1.00  0.00     0.242 C 
HETATM    3  O   UNL     1      28.387  40.374  51.518  1.00  0.00    -0.271 OA
HETATM    4  H   UNL     1      25.723  42.025  51.029  1.00  0.00     0.169 HD
ENDROOT
BRANCH   2   5
HETATM    5  C   UNL     1      26.563  39.914  50.044  1.00  0.00     0.257 C 
BRANCH   5   6
HETATM    6  N   UNL     1      27.244  39.723  48.762  1.00  0.00    -0.224 N 
HETATM    7  N   UNL     1      27.427  38.389  48.325  1.00  0.00    -0.180 NA
HETATM    8  C   UNL     1      27.801  38.156  47.097  1.00  0.00     0.153 A 
HETATM    9  C   UNL     1      28.012  39.230  46.171  1.00  0.00     0.028 A 
HETATM   10  C   UNL     1      27.846  40.518  46.608  1.00  0.00     0.116 A 
HETATM   11  C   UNL     1      28.340  39.275  44.791  1.00  0.00     0.005 A 
HETATM   12  N   UNL     1      28.071  41.363  45.559  1.00  0.00    -0.350 N 
HETATM   13  C   UNL     1      27.446  40.857  47.942  1.00  0.00     0.291 A 
HETATM   14  H   UNL     1      27.999  42.372  45.603  1.00  0.00     0.166 HD
HETATM   15  C   UNL     1      28.356  40.627  44.428  1.00  0.00     0.044 A 
HETATM   16  C   UNL     1      28.614  41.053  43.119  1.00  0.00     0.030 A 
HETATM   17  C   UNL     1      28.863  40.073  42.155  1.00  0.00     0.002 A 
HETATM   18  C   UNL     1      28.860  38.720  42.488  1.00  0.00     0.001 A 
HETATM   19  C   UNL     1      28.601  38.307  43.801  1.00  0.00     0.014 A 
HETATM   20  O   UNL     1      27.267  42.017  48.296  1.00  0.00    -0.264 OA
ENDBRANCH   5   6
ENDBRANCH   2   5
BRANCH   1  21
HETATM   21  C   UNL     1      27.090  42.924  52.329  1.00  0.00     0.035 A 
HETATM   22  C   UNL     1      28.077  42.738  53.302  1.00  0.00     0.044 A 
HETATM   23  C   UNL     1      28.510  43.822  54.102  1.00  0.00     0.005 A 
HETATM   24  C   UNL     1      27.925  45.074  53.919  1.00  0.00     0.046 A 
HETATM   25  C   UNL     1      29.495  43.947  55.130  1.00  0.00     0.003 A 
HETATM   26  N   UNL     1      28.515  45.929  54.831  1.00  0.00    -0.346 N 
HETATM   27  C   UNL     1      26.935  45.285  52.947  1.00  0.00     0.033 A 
HETATM   28  C   UNL     1      29.484  45.272  55.567  1.00  0.00     0.046 A 
HETATM   29  C   UNL     1      30.350  45.725  56.578  1.00  0.00     0.030 A 
HETATM   30  C   UNL     1      31.242  44.809  57.145  1.00  0.00     0.002 A 
HETATM   31  C   UNL     1      31.270  43.485  56.724  1.00  0.00     0.001 A 
HETATM   32  C   UNL     1      30.403  43.042  55.721  1.00  0.00     0.014 A 
HETATM   33  C   UNL     1      26.535  44.195  52.160  1.00  0.00     0.032 A 
BRANCH  26  34
HETATM   34  C   UNL     1      28.158  47.328  55.012  1.00  0.00     0.125 C 
HETATM   35  C   UNL     1      26.875  47.502  55.805  1.00  0.00     0.027 C 
ENDBRANCH  26  34
ENDBRANCH   1  21
TORSDOF 4
ENDMDL
MODEL 9
REMARK VINA RESULT:      -9.3      4.987      9.947
REMARK  4 active torsions:
REMARK  status: ('A' for Active; 'I' for Inactive)
REMARK    1  A    between atoms: C_2  and  N_3 
REMARK    2  A    between atoms: C_7  and  N_8 
REMARK       I    between atoms: N_8  and  C_9 
REMARK    3  A    between atoms: C_9  and  C_10 
REMARK    4  A    between atoms: C_10  and  N_11 
ROOT
HETATM    1  N   UNL     1      25.968  42.299  51.209  1.00  0.00    -0.326 N 
HETATM    2  C   UNL     1      26.296  42.050  49.892  1.00  0.00     0.242 C 
HETATM    3  O   UNL     1      27.175  42.622  49.247  1.00  0.00    -0.271 OA
HETATM    4  H   UNL     1      25.192  41.738  51.559  1.00  0.00     0.169 HD
ENDROOT
BRANCH   2   5
HETATM    5  C   UNL     1      25.361  41.068  49.182  1.00  0.00     0.257 C 
BRANCH   5   6
HETATM    6  N   UNL     1      25.895  40.298  48.056  1.00  0.00    -0.224 N 
HETATM    7  N   UNL     1      25.827  40.901  46.776  1.00  0.00    -0.180 NA
HETATM    8  C   UNL     1      26.494  40.385  45.782  1.00  0.00     0.153 A 
HETATM    9  C   UNL     1      27.315  39.223  45.965  1.00  0.00     0.028 A 
HETATM   10  C   UNL     1      27.362  38.639  47.203  1.00  0.00     0.116 A 
HETATM   11  C   UNL     1      28.188  38.504  45.108  1.00  0.00     0.005 A 
HETATM   12  N   UNL     1      28.218  37.577  47.148  1.00  0.00    -0.350 N 
HETATM   13  C   UNL     1      26.652  39.139  48.343  1.00  0.00     0.291 A 
HETATM   14  H   UNL     1      28.450  36.979  47.931  1.00  0.00     0.166 HD
HETATM   15  C   UNL     1      28.755  37.483  45.880  1.00  0.00     0.044 A 
HETATM   16  C   UNL     1      29.698  36.585  45.367  1.00  0.00     0.030 A 
HETATM   17  C   UNL     1      30.074  36.732  44.030  1.00  0.00     0.002 A 
HETATM   18  C   UNL     1      29.523  37.735  43.235  1.00  0.00     0.001 A 
HETATM   19  C   UNL     1      28.579  38.627  43.760  1.00  0.00     0.014 A 
HETATM   20  O   UNL     1      26.743  38.620  49.450  1.00  0.00    -0.264 OA
ENDBRANCH   5   6
ENDBRANCH   2   5
BRANCH   1  21
HETATM   21  C   UNL     1      26.536  43.250  52.083  1.00  0.00     0.035 A 
HETATM   22  C   UNL     1      27.583  42.962  52.964  1.00  0.00     0.044 A 
HETATM   23  C   UNL     1      28.122  43.973  53.794  1.00  0.00     0.005 A 
HETATM   24  C   UNL     1      27.581  45.257  53.734  1.00  0.00     0.046 A 
HETATM   25  C   UNL     1      29.185  43.992  54.749  1.00  0.00     0.003 A 
HETATM   26  N   UNL     1      28.274  46.027  54.650  1.00  0.00    -0.346 N 
HETATM   27  C   UNL     1      26.531  45.570  52.856  1.00  0.00     0.033 A 
HETATM   28  C   UNL     1      29.265  45.285  55.267  1.00  0.00     0.046 A 
HETATM   29  C   UNL     1      30.223  45.637  56.235  1.00  0.00     0.030 A 
HETATM   30  C   UNL     1      31.112  44.652  56.673  1.00  0.00     0.002 A 
HETATM   31  C   UNL     1      31.051  43.357  56.170  1.00  0.00     0.001 A 
HETATM   32  C   UNL     1      30.093  43.016  55.211  1.00  0.00     0.014 A 
HETATM   33  C   UNL     1      26.027  44.550  52.036  1.00  0.00     0.032 A 
BRANCH  26  34
HETATM   34  C   UNL     1      27.994  47.424  54.944  1.00  0.00     0.125 C 
HETATM   35  C   UNL     1      26.596  47.631  55.501  1.00  0.00     0.027 C 
ENDBRANCH  26  34
ENDBRANCH   1  21
TORSDOF 4
ENDMDL
MODEL 10
REMARK VINA RESULT:      -9.2      4.368      9.521
REMARK  4 active torsions:
REMARK  status: ('A' for Active; 'I' for Inactive)
REMARK    1  A    between atoms: C_2  and  N_3 
REMARK    2  A    between atoms: C_7  and  N_8 
REMARK       I    between atoms: N_8  and  C_9 
REMARK    3  A    between atoms: C_9  and  C_10 
REMARK    4  A    between atoms: C_10  and  N_11 
ROOT
HETATM    1  N   UNL     1      25.641  43.205  50.516  1.00  0.00    -0.326 N 
HETATM    2  C   UNL     1      24.316  42.836  50.398  1.00  0.00     0.242 C 
HETATM    3  O   UNL     1      23.404  43.168  51.155  1.00  0.00    -0.271 OA
HETATM    4  H   UNL     1      26.250  42.807  49.803  1.00  0.00     0.169 HD
ENDROOT
BRANCH   2   5
HETATM    5  C   UNL     1      24.040  41.815  49.291  1.00  0.00     0.257 C 
BRANCH   5   6
HETATM    6  N   UNL     1      25.183  41.131  48.682  1.00  0.00    -0.224 N 
HETATM    7  N   UNL     1      25.973  40.320  49.531  1.00  0.00    -0.180 NA
HETATM    8  C   UNL     1      26.846  39.501  49.014  1.00  0.00     0.153 A 
HETATM    9  C   UNL     1      27.009  39.392  47.593  1.00  0.00     0.028 A 
HETATM   10  C   UNL     1      26.250  40.193  46.781  1.00  0.00     0.116 A 
HETATM   11  C   UNL     1      27.805  38.558  46.765  1.00  0.00     0.005 A 
HETATM   12  N   UNL     1      26.551  39.901  45.481  1.00  0.00    -0.350 N 
HETATM   13  C   UNL     1      25.276  41.123  47.271  1.00  0.00     0.291 A 
HETATM   14  H   UNL     1      26.121  40.336  44.676  1.00  0.00     0.166 HD
HETATM   15  C   UNL     1      27.488  38.888  45.442  1.00  0.00     0.044 A 
HETATM   16  C   UNL     1      28.064  38.238  44.344  1.00  0.00     0.030 A 
HETATM   17  C   UNL     1      28.990  37.225  44.603  1.00  0.00     0.002 A 
HETATM   18  C   UNL     1      29.330  36.879  45.909  1.00  0.00     0.001 A 
HETATM   19  C   UNL     1      28.747  37.537  46.999  1.00  0.00     0.014 A 
HETATM   20  O   UNL     1      24.582  41.799  46.521  1.00  0.00    -0.264 OA
ENDBRANCH   5   6
ENDBRANCH   2   5
BRANCH   1  21
HETATM   21  C   UNL     1      26.235  44.005  51.514  1.00  0.00     0.035 A 
HETATM   22  C   UNL     1      27.240  43.549  52.374  1.00  0.00     0.044 A 
HETATM   23  C   UNL     1      27.810  44.416  53.335  1.00  0.00     0.005 A 
HETATM   24  C   UNL     1      27.343  45.727  53.427  1.00  0.00     0.046 A 
HETATM   25  C   UNL     1      28.846  44.255  54.307  1.00  0.00     0.003 A 
HETATM   26  N   UNL     1      28.051  46.335  54.446  1.00  0.00    -0.346 N 
HETATM   27  C   UNL     1      26.337  46.207  52.573  1.00  0.00     0.033 A 
HETATM   28  C   UNL     1      28.982  45.466  54.986  1.00  0.00     0.046 A 
HETATM   29  C   UNL     1      29.931  45.639  56.009  1.00  0.00     0.030 A 
HETATM   30  C   UNL     1      30.752  44.557  56.339  1.00  0.00     0.002 A 
HETATM   31  C   UNL     1      30.633  43.341  55.676  1.00  0.00     0.001 A 
HETATM   32  C   UNL     1      29.685  43.177  54.662  1.00  0.00     0.014 A 
HETATM   33  C   UNL     1      25.800  45.328  51.620  1.00  0.00     0.032 A 
BRANCH  26  34
HETATM   34  C   UNL     1      27.840  47.699  54.907  1.00  0.00     0.125 C 
HETATM   35  C   UNL     1      26.627  47.824  55.812  1.00  0.00     0.027 C 
ENDBRANCH  26  34
ENDBRANCH   1  21
TORSDOF 4
ENDMDL
