MODEL 1
REMARK VINA RESULT:      -7.9      0.000      0.000
REMARK  2 active torsions:
REMARK  status: ('A' for Active; 'I' for Inactive)
REMARK    1  A    between atoms: C_8  and  S_9 
REMARK    2  A    between atoms: S_9  and  C_10 
ROOT
HETATM    1  C   UNL     1      30.866  43.270  55.589  1.00  0.00     0.002 A 
HETATM    2  C   UNL     1      29.874  43.199  54.610  1.00  0.00     0.034 A 
HETATM    3  C   UNL     1      28.947  44.222  54.447  1.00  0.00     0.087 A 
HETATM    4  C   UNL     1      29.011  45.351  55.308  1.00  0.00     0.087 A 
HETATM    5  N   UNL     1      28.120  46.358  55.215  1.00  0.00    -0.231 NA
HETATM    6  C   UNL     1      27.144  46.242  54.289  1.00  0.00     0.167 A 
HETATM    7 CL   UNL     1      26.041  47.547  54.291  1.00  0.00    -0.059 Cl
HETATM    8  C   UNL     1      27.101  45.152  53.452  1.00  0.00     0.193 A 
HETATM    9  N   UNL     1      28.006  44.127  53.482  1.00  0.00    -0.232 NA
HETATM   10  C   UNL     1      30.013  45.414  56.267  1.00  0.00     0.034 A 
HETATM   11  C   UNL     1      30.941  44.383  56.415  1.00  0.00     0.002 A 
ENDROOT
BRANCH   8  12
HETATM   12  S   UNL     1      25.872  44.996  52.207  1.00  0.00     0.201 S 
HETATM   13  O   UNL     1      24.626  44.674  52.870  1.00  0.00    -0.221 OA
HETATM   14  O   UNL     1      25.995  46.129  51.309  1.00  0.00    -0.221 OA
BRANCH  12  15
HETATM   15  C   UNL     1      26.338  43.568  51.228  1.00  0.00     0.141 C 
HETATM   16  C   UNL     1      26.712  44.024  49.823  1.00  0.00     0.252 C 
HETATM   17  N   UNL     1      26.992  42.836  48.941  1.00  0.00    -0.074 N 
HETATM   18  H   UNL     1      27.834  42.337  49.266  1.00  0.00     0.277 HD
HETATM   19  H   UNL     1      27.223  43.172  47.994  1.00  0.00     0.277 HD
HETATM   20  C   UNL     1      25.847  41.880  48.838  1.00  0.00     0.232 C 
HETATM   21  C   UNL     1      25.490  41.391  50.231  1.00  0.00     0.029 C 
HETATM   22  C   UNL     1      25.185  42.552  51.178  1.00  0.00     0.024 C 
ENDBRANCH  12  15
ENDBRANCH   8  12
TORSDOF 2
ENDMDL
MODEL 2
REMARK VINA RESULT:      -7.9      2.953      3.894
REMARK  2 active torsions:
REMARK  status: ('A' for Active; 'I' for Inactive)
REMARK    1  A    between atoms: C_8  and  S_9 
REMARK    2  A    between atoms: S_9  and  C_10 
ROOT
HETATM    1  C   UNL     1      29.889  45.235  55.944  1.00  0.00     0.002 A 
HETATM    2  C   UNL     1      28.944  45.383  54.928  1.00  0.00     0.034 A 
HETATM    3  C   UNL     1      28.727  44.378  53.992  1.00  0.00     0.087 A 
HETATM    4  C   UNL     1      29.498  43.186  54.073  1.00  0.00     0.087 A 
HETATM    5  N   UNL     1      29.351  42.192  53.175  1.00  0.00    -0.231 NA
HETATM    6  C   UNL     1      28.462  42.382  52.176  1.00  0.00     0.167 A 
HETATM    7 CL   UNL     1      28.392  41.083  51.068  1.00  0.00    -0.059 Cl
HETATM    8  C   UNL     1      27.712  43.532  52.117  1.00  0.00     0.193 A 
HETATM    9  N   UNL     1      27.797  44.549  53.027  1.00  0.00    -0.232 NA
HETATM   10  C   UNL     1      30.423  43.047  55.099  1.00  0.00     0.034 A 
HETATM   11  C   UNL     1      30.625  44.061  56.035  1.00  0.00     0.002 A 
ENDROOT
BRANCH   8  12
HETATM   12  S   UNL     1      26.515  43.787  50.858  1.00  0.00     0.201 S 
HETATM   13  O   UNL     1      27.172  43.563  49.587  1.00  0.00    -0.221 OA
HETATM   14  O   UNL     1      25.307  43.077  51.234  1.00  0.00    -0.221 OA
BRANCH  12  15
HETATM   15  C   UNL     1      26.081  45.525  50.932  1.00  0.00     0.141 C 
HETATM   16  C   UNL     1      24.565  45.667  50.843  1.00  0.00     0.252 C 
HETATM   17  N   UNL     1      24.176  47.120  50.781  1.00  0.00    -0.074 N 
HETATM   18  H   UNL     1      24.412  47.594  51.666  1.00  0.00     0.277 HD
HETATM   19  H   UNL     1      23.150  47.186  50.702  1.00  0.00     0.277 HD
HETATM   20  C   UNL     1      24.787  47.859  49.634  1.00  0.00     0.232 C 
HETATM   21  C   UNL     1      26.300  47.755  49.734  1.00  0.00     0.029 C 
HETATM   22  C   UNL     1      26.764  46.299  49.793  1.00  0.00     0.024 C 
ENDBRANCH  12  15
ENDBRANCH   8  12
TORSDOF 2
ENDMDL
MODEL 3
REMARK VINA RESULT:      -7.6      2.615      3.306
REMARK  2 active torsions:
REMARK  status: ('A' for Active; 'I' for Inactive)
REMARK    1  A    between atoms: C_8  and  S_9 
REMARK    2  A    between atoms: S_9  and  C_10 
ROOT
HETATM    1  C   UNL     1      30.609  42.910  54.545  1.00  0.00     0.002 A 
HETATM    2  C   UNL     1      29.617  43.010  53.569  1.00  0.00     0.034 A 
HETATM    3  C   UNL     1      28.685  44.041  53.589  1.00  0.00     0.087 A 
HETATM    4  C   UNL     1      28.744  45.000  54.638  1.00  0.00     0.087 A 
HETATM    5  N   UNL     1      27.848  46.003  54.724  1.00  0.00    -0.231 NA
HETATM    6  C   UNL     1      26.873  46.048  53.792  1.00  0.00     0.167 A 
HETATM    7 CL   UNL     1      25.764  47.328  54.024  1.00  0.00    -0.059 Cl
HETATM    8  C   UNL     1      26.835  45.125  52.774  1.00  0.00     0.193 A 
HETATM    9  N   UNL     1      27.745  44.115  52.622  1.00  0.00    -0.232 NA
HETATM   10  C   UNL     1      29.745  44.896  55.594  1.00  0.00     0.034 A 
HETATM   11  C   UNL     1      30.678  43.859  55.556  1.00  0.00     0.002 A 
ENDROOT
BRANCH   8  12
HETATM   12  S   UNL     1      25.607  45.187  51.520  1.00  0.00     0.201 S 
HETATM   13  O   UNL     1      26.094  44.409  50.400  1.00  0.00    -0.221 OA
HETATM   14  O   UNL     1      24.320  44.924  52.136  1.00  0.00    -0.221 OA
BRANCH  12  15
HETATM   15  C   UNL     1      25.531  46.897  50.986  1.00  0.00     0.141 C 
HETATM   16  C   UNL     1      24.271  47.107  50.154  1.00  0.00     0.252 C 
HETATM   17  N   UNL     1      24.240  48.502  49.589  1.00  0.00    -0.074 N 
HETATM   18  H   UNL     1      24.147  49.195  50.348  1.00  0.00     0.277 HD
HETATM   19  H   UNL     1      23.389  48.610  49.017  1.00  0.00     0.277 HD
HETATM   20  C   UNL     1      25.426  48.836  48.742  1.00  0.00     0.232 C 
HETATM   21  C   UNL     1      26.686  48.666  49.575  1.00  0.00     0.029 C 
HETATM   22  C   UNL     1      26.783  47.262  50.172  1.00  0.00     0.024 C 
ENDBRANCH  12  15
ENDBRANCH   8  12
TORSDOF 2
ENDMDL
MODEL 4
REMARK VINA RESULT:      -7.3      5.024      7.670
REMARK  2 active torsions:
REMARK  status: ('A' for Active; 'I' for Inactive)
REMARK    1  A    between atoms: C_8  and  S_9 
REMARK    2  A    between atoms: S_9  and  C_10 
ROOT
HETATM    1  C   UNL     1      21.113  49.830  48.651  1.00  0.00     0.002 A 
HETATM    2  C   UNL     1      21.757  48.652  49.032  1.00  0.00     0.034 A 
HETATM    3  C   UNL     1      23.140  48.591  49.152  1.00  0.00     0.087 A 
HETATM    4  C   UNL     1      23.906  49.754  48.865  1.00  0.00     0.087 A 
HETATM    5  N   UNL     1      25.252  49.744  48.935  1.00  0.00    -0.231 NA
HETATM    6  C   UNL     1      25.850  48.577  49.262  1.00  0.00     0.167 A 
HETATM    7 CL   UNL     1      27.556  48.663  49.274  1.00  0.00    -0.059 Cl
HETATM    8  C   UNL     1      25.097  47.464  49.553  1.00  0.00     0.193 A 
HETATM    9  N   UNL     1      23.730  47.437  49.534  1.00  0.00    -0.232 NA
HETATM   10  C   UNL     1      23.252  50.923  48.501  1.00  0.00     0.034 A 
HETATM   11  C   UNL     1      21.862  50.971  48.392  1.00  0.00     0.002 A 
ENDROOT
BRANCH   8  12
HETATM   12  S   UNL     1      25.844  45.947  50.027  1.00  0.00     0.201 S 
HETATM   13  O   UNL     1      24.787  44.964  50.143  1.00  0.00    -0.221 OA
HETATM   14  O   UNL     1      27.004  45.733  49.183  1.00  0.00    -0.221 OA
BRANCH  12  15
HETATM   15  C   UNL     1      26.503  46.214  51.674  1.00  0.00     0.141 C 
HETATM   16  C   UNL     1      26.769  44.865  52.332  1.00  0.00     0.252 C 
HETATM   17  N   UNL     1      27.209  45.054  53.759  1.00  0.00    -0.074 N 
HETATM   18  H   UNL     1      28.126  45.525  53.793  1.00  0.00     0.277 HD
HETATM   19  H   UNL     1      27.362  44.128  54.185  1.00  0.00     0.277 HD
HETATM   20  C   UNL     1      26.224  45.803  54.599  1.00  0.00     0.232 C 
HETATM   21  C   UNL     1      25.980  47.165  53.971  1.00  0.00     0.029 C 
HETATM   22  C   UNL     1      25.521  47.043  52.517  1.00  0.00     0.024 C 
ENDBRANCH  12  15
ENDBRANCH   8  12
TORSDOF 2
ENDMDL
MODEL 5
REMARK VINA RESULT:      -7.2      2.470      2.841
REMARK  2 active torsions:
REMARK  status: ('A' for Active; 'I' for Inactive)
REMARK    1  A    between atoms: C_8  and  S_9 
REMARK    2  A    between atoms: S_9  and  C_10 
ROOT
HETATM    1  C   UNL     1      30.534  43.382  55.111  1.00  0.00     0.002 A 
HETATM    2  C   UNL     1      29.976  42.770  53.988  1.00  0.00     0.034 A 
HETATM    3  C   UNL     1      28.860  43.305  53.355  1.00  0.00     0.087 A 
HETATM    4  C   UNL     1      28.275  44.490  53.879  1.00  0.00     0.087 A 
HETATM    5  N   UNL     1      27.175  45.036  53.324  1.00  0.00    -0.231 NA
HETATM    6  C   UNL     1      26.629  44.397  52.266  1.00  0.00     0.167 A 
HETATM    7 CL   UNL     1      25.212  45.145  51.673  1.00  0.00    -0.059 Cl
HETATM    8  C   UNL     1      27.213  43.261  51.760  1.00  0.00     0.193 A 
HETATM    9  N   UNL     1      28.351  42.694  52.263  1.00  0.00    -0.232 NA
HETATM   10  C   UNL     1      28.850  45.096  54.988  1.00  0.00     0.034 A 
HETATM   11  C   UNL     1      29.975  44.551  55.608  1.00  0.00     0.002 A 
ENDROOT
BRANCH   8  12
HETATM   12  S   UNL     1      26.554  42.436  50.356  1.00  0.00     0.201 S 
HETATM   13  O   UNL     1      25.180  42.095  50.661  1.00  0.00    -0.221 OA
HETATM   14  O   UNL     1      26.912  43.199  49.175  1.00  0.00    -0.221 OA
BRANCH  12  15
HETATM   15  C   UNL     1      27.464  40.897  50.214  1.00  0.00     0.141 C 
HETATM   16  C   UNL     1      28.439  40.997  49.046  1.00  0.00     0.252 C 
HETATM   17  N   UNL     1      29.132  39.679  48.825  1.00  0.00    -0.074 N 
HETATM   18  H   UNL     1      29.738  39.453  49.628  1.00  0.00     0.277 HD
HETATM   19  H   UNL     1      29.770  39.770  48.020  1.00  0.00     0.277 HD
HETATM   20  C   UNL     1      28.196  38.544  48.562  1.00  0.00     0.232 C 
HETATM   21  C   UNL     1      27.243  38.411  49.738  1.00  0.00     0.029 C 
HETATM   22  C   UNL     1      26.498  39.718  50.011  1.00  0.00     0.024 C 
ENDBRANCH  12  15
ENDBRANCH   8  12
TORSDOF 2
ENDMDL
MODEL 6
REMARK VINA RESULT:      -7.1      5.069      7.302
REMARK  2 active torsions:
REMARK  status: ('A' for Active; 'I' for Inactive)
REMARK    1  A    between atoms: C_8  and  S_9 
REMARK    2  A    between atoms: S_9  and  C_10 
ROOT
HETATM    1  C   UNL     1      21.153  49.684  48.615  1.00  0.00     0.002 A 
HETATM    2  C   UNL     1      21.878  48.599  49.110  1.00  0.00     0.034 A 
HETATM    3  C   UNL     1      23.265  48.636  49.192  1.00  0.00     0.087 A 
HETATM    4  C   UNL     1      23.949  49.800  48.748  1.00  0.00     0.087 A 
HETATM    5  N   UNL     1      25.294  49.879  48.776  1.00  0.00    -0.231 NA
HETATM    6  C   UNL     1      25.972  48.798  49.218  1.00  0.00     0.167 A 
HETATM    7 CL   UNL     1      27.670  48.986  49.164  1.00  0.00    -0.059 Cl
HETATM    8  C   UNL     1      25.299  47.684  49.659  1.00  0.00     0.193 A 
HETATM    9  N   UNL     1      23.936  47.573  49.687  1.00  0.00    -0.232 NA
HETATM   10  C   UNL     1      23.213  50.877  48.272  1.00  0.00     0.034 A 
HETATM   11  C   UNL     1      21.821  50.828  48.202  1.00  0.00     0.002 A 
ENDROOT
BRANCH   8  12
HETATM   12  S   UNL     1      26.152  46.281  50.283  1.00  0.00     0.201 S 
HETATM   13  O   UNL     1      27.179  45.938  49.321  1.00  0.00    -0.221 OA
HETATM   14  O   UNL     1      26.457  46.524  51.680  1.00  0.00    -0.221 OA
BRANCH  12  15
HETATM   15  C   UNL     1      24.961  44.940  50.289  1.00  0.00     0.141 C 
HETATM   16  C   UNL     1      25.435  43.853  51.247  1.00  0.00     0.252 C 
HETATM   17  N   UNL     1      24.518  42.661  51.184  1.00  0.00    -0.074 N 
HETATM   18  H   UNL     1      23.582  42.907  51.540  1.00  0.00     0.277 HD
HETATM   19  H   UNL     1      24.872  41.935  51.826  1.00  0.00     0.277 HD
HETATM   20  C   UNL     1      24.398  42.065  49.818  1.00  0.00     0.232 C 
HETATM   21  C   UNL     1      23.891  43.131  48.861  1.00  0.00     0.029 C 
HETATM   22  C   UNL     1      24.785  44.371  48.871  1.00  0.00     0.024 C 
ENDBRANCH  12  15
ENDBRANCH   8  12
TORSDOF 2
ENDMDL
MODEL 7
REMARK VINA RESULT:      -7.1      5.394      8.142
REMARK  2 active torsions:
REMARK  status: ('A' for Active; 'I' for Inactive)
REMARK    1  A    between atoms: C_8  and  S_9 
REMARK    2  A    between atoms: S_9  and  C_10 
ROOT
HETATM    1  C   UNL     1      21.487  51.255  48.550  1.00  0.00     0.002 A 
HETATM    2  C   UNL     1      22.688  50.754  49.053  1.00  0.00     0.034 A 
HETATM    3  C   UNL     1      22.953  49.389  49.062  1.00  0.00     0.087 A 
HETATM    4  C   UNL     1      21.968  48.495  48.560  1.00  0.00     0.087 A 
HETATM    5  N   UNL     1      22.159  47.161  48.572  1.00  0.00    -0.231 NA
HETATM    6  C   UNL     1      23.312  46.701  49.106  1.00  0.00     0.167 A 
HETATM    7 CL   UNL     1      23.428  44.997  49.117  1.00  0.00    -0.059 Cl
HETATM    8  C   UNL     1      24.262  47.577  49.574  1.00  0.00     0.193 A 
HETATM    9  N   UNL     1      24.131  48.938  49.546  1.00  0.00    -0.232 NA
HETATM   10  C   UNL     1      20.785  49.009  48.049  1.00  0.00     0.034 A 
HETATM   11  C   UNL     1      20.536  50.382  48.039  1.00  0.00     0.002 A 
ENDROOT
BRANCH   8  12
HETATM   12  S   UNL     1      25.790  47.011  50.231  1.00  0.00     0.201 S 
HETATM   13  O   UNL     1      26.275  45.965  49.354  1.00  0.00    -0.221 OA
HETATM   14  O   UNL     1      26.596  48.172  50.561  1.00  0.00    -0.221 OA
BRANCH  12  15
HETATM   15  C   UNL     1      25.399  46.247  51.805  1.00  0.00     0.141 C 
HETATM   16  C   UNL     1      25.997  47.085  52.930  1.00  0.00     0.252 C 
HETATM   17  N   UNL     1      25.790  46.406  54.258  1.00  0.00    -0.074 N 
HETATM   18  H   UNL     1      24.786  46.368  54.490  1.00  0.00     0.277 HD
HETATM   19  H   UNL     1      26.219  46.983  54.997  1.00  0.00     0.277 HD
HETATM   20  C   UNL     1      26.377  45.033  54.330  1.00  0.00     0.232 C 
HETATM   21  C   UNL     1      25.760  44.178  53.234  1.00  0.00     0.029 C 
HETATM   22  C   UNL     1      25.943  44.810  51.854  1.00  0.00     0.024 C 
ENDBRANCH  12  15
ENDBRANCH   8  12
TORSDOF 2
ENDMDL
MODEL 8
REMARK VINA RESULT:      -6.9      2.293      2.663
REMARK  2 active torsions:
REMARK  status: ('A' for Active; 'I' for Inactive)
REMARK    1  A    between atoms: C_8  and  S_9 
REMARK    2  A    between atoms: S_9  and  C_10 
ROOT
HETATM    1  C   UNL     1      30.436  43.227  54.949  1.00  0.00     0.002 A 
HETATM    2  C   UNL     1      29.928  43.090  53.656  1.00  0.00     0.034 A 
HETATM    3  C   UNL     1      28.887  43.891  53.202  1.00  0.00     0.087 A 
HETATM    4  C   UNL     1      28.326  44.855  54.083  1.00  0.00     0.087 A 
HETATM    5  N   UNL     1      27.295  45.637  53.706  1.00  0.00    -0.231 NA
HETATM    6  C   UNL     1      26.794  45.451  52.466  1.00  0.00     0.167 A 
HETATM    7 CL   UNL     1      25.460  46.458  52.109  1.00  0.00    -0.059 Cl
HETATM    8  C   UNL     1      27.355  44.526  51.617  1.00  0.00     0.193 A 
HETATM    9  N   UNL     1      28.426  43.740  51.941  1.00  0.00    -0.232 NA
HETATM   10  C   UNL     1      28.852  44.990  55.361  1.00  0.00     0.034 A 
HETATM   11  C   UNL     1      29.902  44.185  55.801  1.00  0.00     0.002 A 
ENDROOT
BRANCH   8  12
HETATM   12  S   UNL     1      26.756  44.296  49.982  1.00  0.00     0.201 S 
HETATM   13  O   UNL     1      27.016  45.519  49.251  1.00  0.00    -0.221 OA
HETATM   14  O   UNL     1      27.219  43.005  49.510  1.00  0.00    -0.221 OA
BRANCH  12  15
HETATM   15  C   UNL     1      24.976  44.131  50.127  1.00  0.00     0.141 C 
HETATM   16  C   UNL     1      24.586  42.677  49.886  1.00  0.00     0.252 C 
HETATM   17  N   UNL     1      23.088  42.529  49.880  1.00  0.00    -0.074 N 
HETATM   18  H   UNL     1      22.703  42.731  50.815  1.00  0.00     0.277 HD
HETATM   19  H   UNL     1      22.853  41.541  49.697  1.00  0.00     0.277 HD
HETATM   20  C   UNL     1      22.402  43.376  48.857  1.00  0.00     0.232 C 
HETATM   21  C   UNL     1      22.755  44.832  49.111  1.00  0.00     0.029 C 
HETATM   22  C   UNL     1      24.268  45.054  49.121  1.00  0.00     0.024 C 
ENDBRANCH  12  15
ENDBRANCH   8  12
TORSDOF 2
ENDMDL
MODEL 9
REMARK VINA RESULT:      -6.9     13.326     14.599
REMARK  2 active torsions:
REMARK  status: ('A' for Active; 'I' for Inactive)
REMARK    1  A    between atoms: C_8  and  S_9 
REMARK    2  A    between atoms: S_9  and  C_10 
ROOT
HETATM    1  C   UNL     1      38.134  51.402  41.687  1.00  0.00     0.002 A 
HETATM    2  C   UNL     1      36.883  50.880  41.355  1.00  0.00     0.034 A 
HETATM    3  C   UNL     1      35.758  51.159  42.121  1.00  0.00     0.087 A 
HETATM    4  C   UNL     1      35.897  51.983  43.272  1.00  0.00     0.087 A 
HETATM    5  N   UNL     1      34.847  52.262  44.069  1.00  0.00    -0.231 NA
HETATM    6  C   UNL     1      33.658  51.706  43.748  1.00  0.00     0.167 A 
HETATM    7 CL   UNL     1      32.408  52.083  44.851  1.00  0.00    -0.059 Cl
HETATM    8  C   UNL     1      33.532  50.924  42.625  1.00  0.00     0.193 A 
HETATM    9  N   UNL     1      34.559  50.647  41.766  1.00  0.00    -0.232 NA
HETATM   10  C   UNL     1      37.145  52.507  43.582  1.00  0.00     0.034 A 
HETATM   11  C   UNL     1      38.264  52.224  42.799  1.00  0.00     0.002 A 
ENDROOT
BRANCH   8  12
HETATM   12  S   UNL     1      31.990  50.228  42.157  1.00  0.00     0.201 S 
HETATM   13  O   UNL     1      32.165  49.631  40.849  1.00  0.00    -0.221 OA
HETATM   14  O   UNL     1      31.476  49.472  43.283  1.00  0.00    -0.221 OA
BRANCH  12  15
HETATM   15  C   UNL     1      30.862  51.608  41.963  1.00  0.00     0.141 C 
HETATM   16  C   UNL     1      29.491  51.082  41.553  1.00  0.00     0.252 C 
HETATM   17  N   UNL     1      28.554  52.224  41.265  1.00  0.00    -0.074 N 
HETATM   18  H   UNL     1      28.361  52.757  42.127  1.00  0.00     0.277 HD
HETATM   19  H   UNL     1      27.642  51.840  40.973  1.00  0.00     0.277 HD
HETATM   20  C   UNL     1      29.042  53.149  40.197  1.00  0.00     0.232 C 
HETATM   21  C   UNL     1      30.392  53.709  40.613  1.00  0.00     0.029 C 
HETATM   22  C   UNL     1      31.397  52.596  40.914  1.00  0.00     0.024 C 
ENDBRANCH  12  15
ENDBRANCH   8  12
TORSDOF 2
ENDMDL
MODEL 10
REMARK VINA RESULT:      -6.9     13.952     14.644
REMARK  2 active torsions:
REMARK  status: ('A' for Active; 'I' for Inactive)
REMARK    1  A    between atoms: C_8  and  S_9 
REMARK    2  A    between atoms: S_9  and  C_10 
ROOT
HETATM    1  C   UNL     1      34.014  50.971  42.486  1.00  0.00     0.002 A 
HETATM    2  C   UNL     1      33.277  50.871  41.305  1.00  0.00     0.034 A 
HETATM    3  C   UNL     1      31.967  51.329  41.232  1.00  0.00     0.087 A 
HETATM    4  C   UNL     1      31.371  51.896  42.392  1.00  0.00     0.087 A 
HETATM    5  N   UNL     1      30.094  52.329  42.386  1.00  0.00    -0.231 NA
HETATM    6  C   UNL     1      29.391  52.178  41.243  1.00  0.00     0.167 A 
HETATM    7 CL   UNL     1      27.772  52.713  41.362  1.00  0.00    -0.059 Cl
HETATM    8  C   UNL     1      29.983  51.643  40.124  1.00  0.00     0.193 A 
HETATM    9  N   UNL     1      31.284  51.228  40.070  1.00  0.00    -0.232 NA
HETATM   10  C   UNL     1      32.121  52.002  43.555  1.00  0.00     0.034 A 
HETATM   11  C   UNL     1      33.438  51.545  43.611  1.00  0.00     0.002 A 
ENDROOT
BRANCH   8  12
HETATM   12  S   UNL     1      29.108  51.478  38.610  1.00  0.00     0.201 S 
HETATM   13  O   UNL     1      28.415  52.728  38.375  1.00  0.00    -0.221 OA
HETATM   14  O   UNL     1      30.008  50.903  37.629  1.00  0.00    -0.221 OA
BRANCH  12  15
HETATM   15  C   UNL     1      27.858  50.223  38.895  1.00  0.00     0.141 C 
HETATM   16  C   UNL     1      28.460  48.848  38.628  1.00  0.00     0.252 C 
HETATM   17  N   UNL     1      27.404  47.782  38.741  1.00  0.00    -0.074 N 
HETATM   18  H   UNL     1      27.064  47.713  39.712  1.00  0.00     0.277 HD
HETATM   19  H   UNL     1      27.833  46.866  38.538  1.00  0.00     0.277 HD
HETATM   20  C   UNL     1      26.248  47.978  37.814  1.00  0.00     0.232 C 
HETATM   21  C   UNL     1      25.618  49.332  38.096  1.00  0.00     0.029 C 
HETATM   22  C   UNL     1      26.640  50.464  37.990  1.00  0.00     0.024 C 
ENDBRANCH  12  15
ENDBRANCH   8  12
TORSDOF 2
ENDMDL
