MODEL 1
REMARK VINA RESULT:     -10.1      0.000      0.000
REMARK  8 active torsions:
REMARK  status: ('A' for Active; 'I' for Inactive)
REMARK    1  A    between atoms: C_3  and  C_4 
REMARK       I    between atoms: C_4  and  N_5 
REMARK    2  A    between atoms: N_5  and  C_6 
REMARK    3  A    between atoms: C_14  and  N_15 
REMARK       I    between atoms: N_15  and  C_16 
REMARK    4  A    between atoms: C_16  and  C_17 
REMARK       I    between atoms: C_17  and  N_18 
REMARK    5  A    between atoms: N_18  and  N_19 
REMARK    6  A    between atoms: C_20  and  C_21 
REMARK    7  A    between atoms: C_22  and  O_23 
REMARK    8  A    between atoms: C_25  and  O_26 
ROOT
HETATM    1  N   UNL     1      26.018  44.583  50.544  1.00  0.00    -0.318 N 
HETATM    2  C   UNL     1      26.442  45.795  50.047  1.00  0.00     0.315 C 
HETATM    3  O   UNL     1      27.377  46.026  49.290  1.00  0.00    -0.262 OA
HETATM    4  H   UNL     1      25.160  44.612  51.110  1.00  0.00     0.169 HD
ENDROOT
BRANCH   1   5
HETATM    5  C   UNL     1      26.628  43.316  50.388  1.00  0.00     0.051 A 
HETATM    6  C   UNL     1      27.399  42.775  51.440  1.00  0.00     0.059 A 
HETATM    7  C   UNL     1      28.071  41.550  51.272  1.00  0.00     0.019 A 
HETATM    8  C   UNL     1      27.947  40.839  50.080  1.00  0.00     0.001 A 
HETATM    9  C   UNL     1      27.157  41.348  49.054  1.00  0.00     0.002 A 
HETATM   10  C   UNL     1      26.507  42.578  49.205  1.00  0.00     0.030 A 
BRANCH   6  11
HETATM   11  C   UNL     1      27.491  43.480  52.753  1.00  0.00     0.258 C 
HETATM   12  N   UNL     1      28.781  43.736  53.186  1.00  0.00    -0.323 N 
HETATM   13  H   UNL     1      29.536  43.364  52.624  1.00  0.00     0.169 HD
HETATM   14  O   UNL     1      26.453  43.714  53.357  1.00  0.00    -0.267 OA
BRANCH  12  15
HETATM   15  C   UNL     1      29.171  44.368  54.385  1.00  0.00     0.035 A 
HETATM   16  C   UNL     1      28.586  45.535  54.881  1.00  0.00     0.031 A 
HETATM   17  C   UNL     1      29.032  46.096  56.084  1.00  0.00     0.026 A 
HETATM   18  C   UNL     1      30.067  45.494  56.792  1.00  0.00     0.034 A 
HETATM   19 CL   UNL     1      30.613  46.184  58.269  1.00  0.00    -0.084 Cl
HETATM   20  C   UNL     1      30.663  44.333  56.308  1.00  0.00     0.026 A 
HETATM   21  C   UNL     1      30.217  43.774  55.107  1.00  0.00     0.031 A 
ENDBRANCH  12  15
ENDBRANCH   6  11
ENDBRANCH   1   5
BRANCH   2  22
HETATM   22  C   UNL     1      25.552  46.974  50.479  1.00  0.00     0.329 C 
HETATM   23  N   UNL     1      24.553  47.224  49.555  1.00  0.00    -0.239 N 
HETATM   24  H   UNL     1      24.522  46.639  48.721  1.00  0.00     0.192 HD
HETATM   25  O   UNL     1      25.759  47.551  51.536  1.00  0.00    -0.261 OA
BRANCH  23  26
HETATM   26  N   UNL     1      23.673  48.246  49.735  1.00  0.00    -0.183 NA
HETATM   27  C   UNL     1      22.627  48.209  48.971  1.00  0.00     0.153 C 
BRANCH  27  28
HETATM   28  C   UNL     1      21.602  49.268  49.030  1.00  0.00     0.016 A 
HETATM   29  C   UNL     1      20.316  49.036  49.537  1.00  0.00     0.080 A 
HETATM   30  C   UNL     1      19.386  50.071  49.599  1.00  0.00     0.074 A 
HETATM   31  C   UNL     1      19.744  51.336  49.142  1.00  0.00     0.068 A 
HETATM   32  C   UNL     1      21.015  51.580  48.629  1.00  0.00     0.037 A 
HETATM   33  C   UNL     1      21.951  50.546  48.575  1.00  0.00     0.018 A 
BRANCH  29  34
HETATM   34  O   UNL     1      19.900  47.817  49.998  1.00  0.00    -0.360 OA
HETATM   35  H   UNL     1      20.120  47.757  50.956  1.00  0.00     0.217 HD
ENDBRANCH  29  34
BRANCH  31  36
HETATM   36  O   UNL     1      18.868  52.379  49.182  1.00  0.00    -0.361 OA
HETATM   37  H   UNL     1      19.023  52.884  49.999  1.00  0.00     0.217 HD
ENDBRANCH  31  36
ENDBRANCH  27  28
ENDBRANCH  23  26
ENDBRANCH   2  22
TORSDOF 8
ENDMDL
MODEL 2
REMARK VINA RESULT:     -10.1      3.422      6.027
REMARK  8 active torsions:
REMARK  status: ('A' for Active; 'I' for Inactive)
REMARK    1  A    between atoms: C_3  and  C_4 
REMARK       I    between atoms: C_4  and  N_5 
REMARK    2  A    between atoms: N_5  and  C_6 
REMARK    3  A    between atoms: C_14  and  N_15 
REMARK       I    between atoms: N_15  and  C_16 
REMARK    4  A    between atoms: C_16  and  C_17 
REMARK       I    between atoms: C_17  and  N_18 
REMARK    5  A    between atoms: N_18  and  N_19 
REMARK    6  A    between atoms: C_20  and  C_21 
REMARK    7  A    between atoms: C_22  and  O_23 
REMARK    8  A    between atoms: C_25  and  O_26 
ROOT
HETATM    1  N   UNL     1      28.068  45.099  54.421  1.00  0.00    -0.318 N 
HETATM    2  C   UNL     1      26.845  44.481  54.285  1.00  0.00     0.315 C 
HETATM    3  O   UNL     1      26.433  43.470  54.840  1.00  0.00    -0.262 OA
HETATM    4  H   UNL     1      28.176  45.985  53.910  1.00  0.00     0.169 HD
ENDROOT
BRANCH   1   5
HETATM    5  C   UNL     1      29.192  44.653  55.155  1.00  0.00     0.051 A 
HETATM    6  C   UNL     1      29.967  43.577  54.668  1.00  0.00     0.059 A 
HETATM    7  C   UNL     1      31.043  43.077  55.423  1.00  0.00     0.019 A 
HETATM    8  C   UNL     1      31.381  43.666  56.640  1.00  0.00     0.001 A 
HETATM    9  C   UNL     1      30.646  44.751  57.107  1.00  0.00     0.002 A 
HETATM   10  C   UNL     1      29.559  45.237  56.374  1.00  0.00     0.030 A 
BRANCH   6  11
HETATM   11  C   UNL     1      29.672  42.974  53.334  1.00  0.00     0.258 C 
HETATM   12  N   UNL     1      28.816  41.887  53.365  1.00  0.00    -0.323 N 
HETATM   13  H   UNL     1      28.528  41.554  54.277  1.00  0.00     0.169 HD
HETATM   14  O   UNL     1      30.241  43.434  52.353  1.00  0.00    -0.267 OA
BRANCH  12  15
HETATM   15  C   UNL     1      28.374  41.114  52.271  1.00  0.00     0.035 A 
HETATM   16  C   UNL     1      29.090  40.042  51.730  1.00  0.00     0.031 A 
HETATM   17  C   UNL     1      28.577  39.323  50.645  1.00  0.00     0.026 A 
HETATM   18  C   UNL     1      27.349  39.675  50.093  1.00  0.00     0.034 A 
HETATM   19 CL   UNL     1      26.720  38.790  48.760  1.00  0.00    -0.084 Cl
HETATM   20  C   UNL     1      26.627  40.743  50.618  1.00  0.00     0.026 A 
HETATM   21  C   UNL     1      27.140  41.460  51.703  1.00  0.00     0.031 A 
ENDBRANCH  12  15
ENDBRANCH   6  11
ENDBRANCH   1   5
BRANCH   2  22
HETATM   22  C   UNL     1      25.884  45.236  53.350  1.00  0.00     0.329 C 
HETATM   23  N   UNL     1      26.435  46.424  52.902  1.00  0.00    -0.239 N 
HETATM   24  H   UNL     1      27.367  46.668  53.234  1.00  0.00     0.192 HD
HETATM   25  O   UNL     1      24.793  44.762  53.071  1.00  0.00    -0.261 OA
BRANCH  23  26
HETATM   26  N   UNL     1      25.735  47.256  52.086  1.00  0.00    -0.183 NA
HETATM   27  C   UNL     1      26.131  47.274  50.852  1.00  0.00     0.153 C 
BRANCH  27  28
HETATM   28  C   UNL     1      25.488  48.154  49.858  1.00  0.00     0.016 A 
HETATM   29  C   UNL     1      26.225  49.012  49.032  1.00  0.00     0.080 A 
HETATM   30  C   UNL     1      25.580  49.808  48.087  1.00  0.00     0.074 A 
HETATM   31  C   UNL     1      24.194  49.748  47.980  1.00  0.00     0.068 A 
HETATM   32  C   UNL     1      23.447  48.906  48.798  1.00  0.00     0.037 A 
HETATM   33  C   UNL     1      24.093  48.101  49.739  1.00  0.00     0.018 A 
BRANCH  29  34
HETATM   34  O   UNL     1      27.588  49.121  49.089  1.00  0.00    -0.360 OA
HETATM   35  H   UNL     1      27.890  48.780  49.961  1.00  0.00     0.217 HD
ENDBRANCH  29  34
BRANCH  31  36
HETATM   36  O   UNL     1      23.519  50.508  47.071  1.00  0.00    -0.361 OA
HETATM   37  H   UNL     1      22.579  50.262  47.100  1.00  0.00     0.217 HD
ENDBRANCH  31  36
ENDBRANCH  27  28
ENDBRANCH  23  26
ENDBRANCH   2  22
TORSDOF 8
ENDMDL
MODEL 3
REMARK VINA RESULT:      -9.8      3.294      5.735
REMARK  8 active torsions:
REMARK  status: ('A' for Active; 'I' for Inactive)
REMARK    1  A    between atoms: C_3  and  C_4 
REMARK       I    between atoms: C_4  and  N_5 
REMARK    2  A    between atoms: N_5  and  C_6 
REMARK    3  A    between atoms: C_14  and  N_15 
REMARK       I    between atoms: N_15  and  C_16 
REMARK    4  A    between atoms: C_16  and  C_17 
REMARK       I    between atoms: C_17  and  N_18 
REMARK    5  A    between atoms: N_18  and  N_19 
REMARK    6  A    between atoms: C_20  and  C_21 
REMARK    7  A    between atoms: C_22  and  O_23 
REMARK    8  A    between atoms: C_25  and  O_26 
ROOT
HETATM    1  N   UNL     1      27.859  45.780  54.650  1.00  0.00    -0.318 N 
HETATM    2  C   UNL     1      27.670  47.127  54.439  1.00  0.00     0.315 C 
HETATM    3  O   UNL     1      28.450  48.050  54.641  1.00  0.00    -0.262 OA
HETATM    4  H   UNL     1      27.091  45.171  54.340  1.00  0.00     0.169 HD
ENDROOT
BRANCH   1   5
HETATM    5  C   UNL     1      28.965  45.140  55.257  1.00  0.00     0.051 A 
HETATM    6  C   UNL     1      29.519  43.984  54.665  1.00  0.00     0.059 A 
HETATM    7  C   UNL     1      30.571  43.296  55.296  1.00  0.00     0.019 A 
HETATM    8  C   UNL     1      31.105  43.773  56.491  1.00  0.00     0.001 A 
HETATM    9  C   UNL     1      30.590  44.934  57.060  1.00  0.00     0.002 A 
HETATM   10  C   UNL     1      29.526  45.608  56.451  1.00  0.00     0.030 A 
BRANCH   6  11
HETATM   11  C   UNL     1      29.014  43.491  53.349  1.00  0.00     0.258 C 
HETATM   12  N   UNL     1      27.689  43.089  53.348  1.00  0.00    -0.323 N 
HETATM   13  H   UNL     1      27.207  43.094  54.238  1.00  0.00     0.169 HD
HETATM   14  O   UNL     1      29.803  43.423  52.415  1.00  0.00    -0.267 OA
BRANCH  12  15
HETATM   15  C   UNL     1      26.953  42.570  52.263  1.00  0.00     0.035 A 
HETATM   16  C   UNL     1      27.207  41.334  51.664  1.00  0.00     0.031 A 
HETATM   17  C   UNL     1      26.423  40.890  50.593  1.00  0.00     0.026 A 
HETATM   18  C   UNL     1      25.386  41.683  50.112  1.00  0.00     0.034 A 
HETATM   19 CL   UNL     1      24.425  41.137  48.796  1.00  0.00    -0.084 Cl
HETATM   20  C   UNL     1      25.124  42.920  50.695  1.00  0.00     0.026 A 
HETATM   21  C   UNL     1      25.906  43.361  51.766  1.00  0.00     0.031 A 
ENDBRANCH  12  15
ENDBRANCH   6  11
ENDBRANCH   1   5
BRANCH   2  22
HETATM   22  C   UNL     1      26.307  47.458  53.805  1.00  0.00     0.329 C 
HETATM   23  N   UNL     1      26.214  46.973  52.513  1.00  0.00    -0.239 N 
HETATM   24  H   UNL     1      27.023  46.484  52.131  1.00  0.00     0.192 HD
HETATM   25  O   UNL     1      25.457  48.062  54.444  1.00  0.00    -0.261 OA
BRANCH  23  26
HETATM   26  N   UNL     1      25.099  47.184  51.764  1.00  0.00    -0.183 NA
HETATM   27  C   UNL     1      25.167  46.753  50.544  1.00  0.00     0.153 C 
BRANCH  27  28
HETATM   28  C   UNL     1      24.046  46.940  49.604  1.00  0.00     0.016 A 
HETATM   29  C   UNL     1      23.655  48.207  49.150  1.00  0.00     0.080 A 
HETATM   30  C   UNL     1      22.606  48.337  48.242  1.00  0.00     0.074 A 
HETATM   31  C   UNL     1      21.944  47.196  47.799  1.00  0.00     0.068 A 
HETATM   32  C   UNL     1      22.315  45.932  48.248  1.00  0.00     0.037 A 
HETATM   33  C   UNL     1      23.373  45.799  49.151  1.00  0.00     0.018 A 
BRANCH  29  34
HETATM   34  O   UNL     1      24.262  49.367  49.548  1.00  0.00    -0.360 OA
HETATM   35  H   UNL     1      25.020  49.542  48.944  1.00  0.00     0.217 HD
ENDBRANCH  29  34
BRANCH  31  36
HETATM   36  O   UNL     1      20.912  47.273  46.912  1.00  0.00    -0.361 OA
HETATM   37  H   UNL     1      21.051  48.049  46.343  1.00  0.00     0.217 HD
ENDBRANCH  31  36
ENDBRANCH  27  28
ENDBRANCH  23  26
ENDBRANCH   2  22
TORSDOF 8
ENDMDL
MODEL 4
REMARK VINA RESULT:      -9.3      3.963      8.541
REMARK  8 active torsions:
REMARK  status: ('A' for Active; 'I' for Inactive)
REMARK    1  A    between atoms: C_3  and  C_4 
REMARK       I    between atoms: C_4  and  N_5 
REMARK    2  A    between atoms: N_5  and  C_6 
REMARK    3  A    between atoms: C_14  and  N_15 
REMARK       I    between atoms: N_15  and  C_16 
REMARK    4  A    between atoms: C_16  and  C_17 
REMARK       I    between atoms: C_17  and  N_18 
REMARK    5  A    between atoms: N_18  and  N_19 
REMARK    6  A    between atoms: C_20  and  C_21 
REMARK    7  A    between atoms: C_22  and  O_23 
REMARK    8  A    between atoms: C_25  and  O_26 
ROOT
HETATM    1  N   UNL     1      24.586  44.894  50.815  1.00  0.00    -0.318 N 
HETATM    2  C   UNL     1      24.891  46.209  51.086  1.00  0.00     0.315 C 
HETATM    3  O   UNL     1      24.530  47.217  50.488  1.00  0.00    -0.262 OA
HETATM    4  H   UNL     1      24.940  44.209  51.495  1.00  0.00     0.169 HD
ENDROOT
BRANCH   1   5
HETATM    5  C   UNL     1      23.868  44.375  49.713  1.00  0.00     0.051 A 
HETATM    6  C   UNL     1      24.456  43.385  48.895  1.00  0.00     0.059 A 
HETATM    7  C   UNL     1      23.783  42.913  47.753  1.00  0.00     0.019 A 
HETATM    8  C   UNL     1      22.511  43.388  47.442  1.00  0.00     0.001 A 
HETATM    9  C   UNL     1      21.909  44.336  48.264  1.00  0.00     0.002 A 
HETATM   10  C   UNL     1      22.583  44.828  49.387  1.00  0.00     0.030 A 
BRANCH   6  11
HETATM   11  C   UNL     1      25.787  42.807  49.245  1.00  0.00     0.258 C 
HETATM   12  N   UNL     1      25.771  41.455  49.547  1.00  0.00    -0.323 N 
HETATM   13  H   UNL     1      24.867  41.002  49.576  1.00  0.00     0.169 HD
HETATM   14  O   UNL     1      26.750  43.560  49.299  1.00  0.00    -0.267 OA
BRANCH  12  15
HETATM   15  C   UNL     1      26.866  40.650  49.925  1.00  0.00     0.035 A 
HETATM   16  C   UNL     1      27.665  40.891  51.045  1.00  0.00     0.031 A 
HETATM   17  C   UNL     1      28.732  40.038  51.353  1.00  0.00     0.026 A 
HETATM   18  C   UNL     1      29.005  38.943  50.538  1.00  0.00     0.034 A 
HETATM   19 CL   UNL     1      30.315  37.896  50.917  1.00  0.00    -0.084 Cl
HETATM   20  C   UNL     1      28.221  38.693  49.416  1.00  0.00     0.026 A 
HETATM   21  C   UNL     1      27.156  39.545  49.111  1.00  0.00     0.031 A 
ENDBRANCH  12  15
ENDBRANCH   6  11
ENDBRANCH   1   5
BRANCH   2  22
HETATM   22  C   UNL     1      25.748  46.387  52.351  1.00  0.00     0.329 C 
HETATM   23  N   UNL     1      26.290  45.186  52.772  1.00  0.00    -0.239 N 
HETATM   24  H   UNL     1      26.065  44.350  52.235  1.00  0.00     0.192 HD
HETATM   25  O   UNL     1      25.897  47.493  52.848  1.00  0.00    -0.261 OA
BRANCH  23  26
HETATM   26  N   UNL     1      27.059  45.119  53.892  1.00  0.00    -0.183 NA
HETATM   27  C   UNL     1      28.278  44.726  53.698  1.00  0.00     0.153 C 
BRANCH  27  28
HETATM   28  C   UNL     1      29.220  44.574  54.823  1.00  0.00     0.016 A 
HETATM   29  C   UNL     1      29.313  45.521  55.852  1.00  0.00     0.080 A 
HETATM   30  C   UNL     1      30.197  45.326  56.911  1.00  0.00     0.074 A 
HETATM   31  C   UNL     1      30.995  44.186  56.930  1.00  0.00     0.068 A 
HETATM   32  C   UNL     1      30.919  43.241  55.911  1.00  0.00     0.037 A 
HETATM   33  C   UNL     1      30.026  43.430  54.855  1.00  0.00     0.018 A 
BRANCH  29  34
HETATM   34  O   UNL     1      28.561  46.663  55.892  1.00  0.00    -0.360 OA
HETATM   35  H   UNL     1      27.701  46.453  56.324  1.00  0.00     0.217 HD
ENDBRANCH  29  34
BRANCH  31  36
HETATM   36  O   UNL     1      31.876  43.953  57.944  1.00  0.00    -0.361 OA
HETATM   37  H   UNL     1      31.398  44.015  58.789  1.00  0.00     0.217 HD
ENDBRANCH  31  36
ENDBRANCH  27  28
ENDBRANCH  23  26
ENDBRANCH   2  22
TORSDOF 8
ENDMDL
MODEL 5
REMARK VINA RESULT:      -9.1      3.671      9.478
REMARK  8 active torsions:
REMARK  status: ('A' for Active; 'I' for Inactive)
REMARK    1  A    between atoms: C_3  and  C_4 
REMARK       I    between atoms: C_4  and  N_5 
REMARK    2  A    between atoms: N_5  and  C_6 
REMARK    3  A    between atoms: C_14  and  N_15 
REMARK       I    between atoms: N_15  and  C_16 
REMARK    4  A    between atoms: C_16  and  C_17 
REMARK       I    between atoms: C_17  and  N_18 
REMARK    5  A    between atoms: N_18  and  N_19 
REMARK    6  A    between atoms: C_20  and  C_21 
REMARK    7  A    between atoms: C_22  and  O_23 
REMARK    8  A    between atoms: C_25  and  O_26 
ROOT
HETATM    1  N   UNL     1      25.203  42.474  50.492  1.00  0.00    -0.318 N 
HETATM    2  C   UNL     1      26.337  43.249  50.586  1.00  0.00     0.315 C 
HETATM    3  O   UNL     1      27.065  43.652  49.686  1.00  0.00    -0.262 OA
HETATM    4  H   UNL     1      24.702  42.314  51.375  1.00  0.00     0.169 HD
ENDROOT
BRANCH   1   5
HETATM    5  C   UNL     1      24.661  41.860  49.339  1.00  0.00     0.051 A 
HETATM    6  C   UNL     1      23.517  42.412  48.721  1.00  0.00     0.059 A 
HETATM    7  C   UNL     1      22.925  41.771  47.617  1.00  0.00     0.019 A 
HETATM    8  C   UNL     1      23.486  40.606  47.099  1.00  0.00     0.001 A 
HETATM    9  C   UNL     1      24.634  40.077  47.679  1.00  0.00     0.002 A 
HETATM   10  C   UNL     1      25.214  40.695  48.792  1.00  0.00     0.030 A 
BRANCH   6  11
HETATM   11  C   UNL     1      22.939  43.698  49.211  1.00  0.00     0.258 C 
HETATM   12  N   UNL     1      23.177  44.791  48.395  1.00  0.00    -0.323 N 
HETATM   13  H   UNL     1      23.774  44.643  47.591  1.00  0.00     0.169 HD
HETATM   14  O   UNL     1      22.370  43.701  50.295  1.00  0.00    -0.267 OA
BRANCH  12  15
HETATM   15  C   UNL     1      22.769  46.124  48.609  1.00  0.00     0.035 A 
HETATM   16  C   UNL     1      23.574  47.105  49.195  1.00  0.00     0.031 A 
HETATM   17  C   UNL     1      23.092  48.408  49.366  1.00  0.00     0.026 A 
HETATM   18  C   UNL     1      21.803  48.734  48.958  1.00  0.00     0.034 A 
HETATM   19 CL   UNL     1      21.213  50.335  49.169  1.00  0.00    -0.084 Cl
HETATM   20  C   UNL     1      20.987  47.767  48.377  1.00  0.00     0.026 A 
HETATM   21  C   UNL     1      21.470  46.466  48.205  1.00  0.00     0.031 A 
ENDBRANCH  12  15
ENDBRANCH   6  11
ENDBRANCH   1   5
BRANCH   2  22
HETATM   22  C   UNL     1      26.652  43.694  52.025  1.00  0.00     0.329 C 
HETATM   23  N   UNL     1      27.959  44.131  52.149  1.00  0.00    -0.239 N 
HETATM   24  H   UNL     1      28.549  44.100  51.318  1.00  0.00     0.192 HD
HETATM   25  O   UNL     1      25.789  43.654  52.889  1.00  0.00    -0.261 OA
BRANCH  23  26
HETATM   26  N   UNL     1      28.449  44.542  53.349  1.00  0.00    -0.183 NA
HETATM   27  C   UNL     1      29.349  43.767  53.868  1.00  0.00     0.153 C 
BRANCH  27  28
HETATM   28  C   UNL     1      29.948  44.068  55.182  1.00  0.00     0.016 A 
HETATM   29  C   UNL     1      29.698  45.268  55.860  1.00  0.00     0.080 A 
HETATM   30  C   UNL     1      30.264  45.501  57.112  1.00  0.00     0.074 A 
HETATM   31  C   UNL     1      31.088  44.533  57.677  1.00  0.00     0.068 A 
HETATM   32  C   UNL     1      31.352  43.339  57.012  1.00  0.00     0.037 A 
HETATM   33  C   UNL     1      30.778  43.100  55.761  1.00  0.00     0.018 A 
BRANCH  29  34
HETATM   34  O   UNL     1      28.901  46.261  55.359  1.00  0.00    -0.360 OA
HETATM   35  H   UNL     1      29.463  46.872  54.830  1.00  0.00     0.217 HD
ENDBRANCH  29  34
BRANCH  31  36
HETATM   36  O   UNL     1      31.665  44.717  58.898  1.00  0.00    -0.361 OA
HETATM   37  H   UNL     1      31.057  44.384  59.581  1.00  0.00     0.217 HD
ENDBRANCH  31  36
ENDBRANCH  27  28
ENDBRANCH  23  26
ENDBRANCH   2  22
TORSDOF 8
ENDMDL
MODEL 6
REMARK VINA RESULT:      -9.0      4.502     10.319
REMARK  8 active torsions:
REMARK  status: ('A' for Active; 'I' for Inactive)
REMARK    1  A    between atoms: C_3  and  C_4 
REMARK       I    between atoms: C_4  and  N_5 
REMARK    2  A    between atoms: N_5  and  C_6 
REMARK    3  A    between atoms: C_14  and  N_15 
REMARK       I    between atoms: N_15  and  C_16 
REMARK    4  A    between atoms: C_16  and  C_17 
REMARK       I    between atoms: C_17  and  N_18 
REMARK    5  A    between atoms: N_18  and  N_19 
REMARK    6  A    between atoms: C_20  and  C_21 
REMARK    7  A    between atoms: C_22  and  O_23 
REMARK    8  A    between atoms: C_25  and  O_26 
ROOT
HETATM    1  N   UNL     1      21.691  46.687  48.963  1.00  0.00    -0.318 N 
HETATM    2  C   UNL     1      22.526  47.698  48.543  1.00  0.00     0.315 C 
HETATM    3  O   UNL     1      22.550  48.270  47.460  1.00  0.00    -0.262 OA
HETATM    4  H   UNL     1      21.799  46.402  49.945  1.00  0.00     0.169 HD
ENDROOT
BRANCH   1   5
HETATM    5  C   UNL     1      20.724  45.985  48.206  1.00  0.00     0.051 A 
HETATM    6  C   UNL     1      19.373  46.397  48.236  1.00  0.00     0.059 A 
HETATM    7  C   UNL     1      18.390  45.664  47.546  1.00  0.00     0.019 A 
HETATM    8  C   UNL     1      18.747  44.549  46.792  1.00  0.00     0.001 A 
HETATM    9  C   UNL     1      20.081  44.159  46.727  1.00  0.00     0.002 A 
HETATM   10  C   UNL     1      21.060  44.868  47.431  1.00  0.00     0.030 A 
BRANCH   6  11
HETATM   11  C   UNL     1      18.975  47.630  48.978  1.00  0.00     0.258 C 
HETATM   12  N   UNL     1      18.243  48.542  48.236  1.00  0.00    -0.323 N 
HETATM   13  H   UNL     1      18.107  48.333  47.255  1.00  0.00     0.169 HD
HETATM   14  O   UNL     1      19.367  47.765  50.129  1.00  0.00    -0.267 OA
BRANCH  12  15
HETATM   15  C   UNL     1      17.747  49.791  48.664  1.00  0.00     0.035 A 
HETATM   16  C   UNL     1      16.410  50.181  48.560  1.00  0.00     0.031 A 
HETATM   17  C   UNL     1      16.000  51.440  49.015  1.00  0.00     0.026 A 
HETATM   18  C   UNL     1      16.927  52.316  49.570  1.00  0.00     0.034 A 
HETATM   19 CL   UNL     1      16.422  53.861  50.128  1.00  0.00    -0.084 Cl
HETATM   20  C   UNL     1      18.264  51.944  49.677  1.00  0.00     0.026 A 
HETATM   21  C   UNL     1      18.672  50.686  49.223  1.00  0.00     0.031 A 
ENDBRANCH  12  15
ENDBRANCH   6  11
ENDBRANCH   1   5
BRANCH   2  22
HETATM   22  C   UNL     1      23.496  48.178  49.637  1.00  0.00     0.329 C 
HETATM   23  N   UNL     1      24.019  47.118  50.356  1.00  0.00    -0.239 N 
HETATM   24  H   UNL     1      23.712  46.179  50.107  1.00  0.00     0.192 HD
HETATM   25  O   UNL     1      23.736  49.369  49.773  1.00  0.00    -0.261 OA
BRANCH  23  26
HETATM   26  N   UNL     1      24.878  47.329  51.389  1.00  0.00    -0.183 NA
HETATM   27  C   UNL     1      25.249  46.260  52.021  1.00  0.00     0.153 C 
BRANCH  27  28
HETATM   28  C   UNL     1      26.153  46.336  53.184  1.00  0.00     0.016 A 
HETATM   29  C   UNL     1      26.048  47.349  54.147  1.00  0.00     0.080 A 
HETATM   30  C   UNL     1      26.906  47.370  55.245  1.00  0.00     0.074 A 
HETATM   31  C   UNL     1      27.875  46.379  55.369  1.00  0.00     0.068 A 
HETATM   32  C   UNL     1      27.996  45.371  54.417  1.00  0.00     0.037 A 
HETATM   33  C   UNL     1      27.131  45.344  53.321  1.00  0.00     0.018 A 
BRANCH  29  34
HETATM   34  O   UNL     1      25.120  48.353  54.082  1.00  0.00    -0.360 OA
HETATM   35  H   UNL     1      25.281  48.871  53.260  1.00  0.00     0.217 HD
ENDBRANCH  29  34
BRANCH  31  36
HETATM   36  O   UNL     1      28.737  46.358  56.425  1.00  0.00    -0.361 OA
HETATM   37  H   UNL     1      29.380  47.079  56.314  1.00  0.00     0.217 HD
ENDBRANCH  31  36
ENDBRANCH  27  28
ENDBRANCH  23  26
ENDBRANCH   2  22
TORSDOF 8
ENDMDL
MODEL 7
REMARK VINA RESULT:      -9.0      3.757      6.091
REMARK  8 active torsions:
REMARK  status: ('A' for Active; 'I' for Inactive)
REMARK    1  A    between atoms: C_3  and  C_4 
REMARK       I    between atoms: C_4  and  N_5 
REMARK    2  A    between atoms: N_5  and  C_6 
REMARK    3  A    between atoms: C_14  and  N_15 
REMARK       I    between atoms: N_15  and  C_16 
REMARK    4  A    between atoms: C_16  and  C_17 
REMARK       I    between atoms: C_17  and  N_18 
REMARK    5  A    between atoms: N_18  and  N_19 
REMARK    6  A    between atoms: C_20  and  C_21 
REMARK    7  A    between atoms: C_22  and  O_23 
REMARK    8  A    between atoms: C_25  and  O_26 
ROOT
HETATM    1  N   UNL     1      24.705  47.241  50.835  1.00  0.00    -0.318 N 
HETATM    2  C   UNL     1      25.039  48.078  49.793  1.00  0.00     0.315 C 
HETATM    3  O   UNL     1      26.151  48.347  49.355  1.00  0.00    -0.262 OA
HETATM    4  H   UNL     1      23.697  47.104  50.986  1.00  0.00     0.169 HD
ENDROOT
BRANCH   1   5
HETATM    5  C   UNL     1      25.574  46.572  51.727  1.00  0.00     0.051 A 
HETATM    6  C   UNL     1      25.997  45.255  51.439  1.00  0.00     0.059 A 
HETATM    7  C   UNL     1      26.803  44.551  52.353  1.00  0.00     0.019 A 
HETATM    8  C   UNL     1      27.225  45.161  53.532  1.00  0.00     0.001 A 
HETATM    9  C   UNL     1      26.843  46.472  53.804  1.00  0.00     0.002 A 
HETATM   10  C   UNL     1      26.021  47.169  52.912  1.00  0.00     0.030 A 
BRANCH   6  11
HETATM   11  C   UNL     1      25.620  44.603  50.150  1.00  0.00     0.258 C 
HETATM   12  N   UNL     1      24.704  43.571  50.268  1.00  0.00    -0.323 N 
HETATM   13  H   UNL     1      24.432  43.303  51.205  1.00  0.00     0.169 HD
HETATM   14  O   UNL     1      26.178  44.977  49.127  1.00  0.00    -0.267 OA
BRANCH  12  15
HETATM   15  C   UNL     1      24.180  42.770  49.232  1.00  0.00     0.035 A 
HETATM   16  C   UNL     1      23.029  43.084  48.506  1.00  0.00     0.031 A 
HETATM   17  C   UNL     1      22.578  42.235  47.488  1.00  0.00     0.026 A 
HETATM   18  C   UNL     1      23.274  41.066  47.197  1.00  0.00     0.034 A 
HETATM   19 CL   UNL     1      22.720  40.024  45.947  1.00  0.00    -0.084 Cl
HETATM   20  C   UNL     1      24.421  40.737  47.915  1.00  0.00     0.026 A 
HETATM   21  C   UNL     1      24.870  41.587  48.930  1.00  0.00     0.031 A 
ENDBRANCH  12  15
ENDBRANCH   6  11
ENDBRANCH   1   5
BRANCH   2  22
HETATM   22  C   UNL     1      23.815  48.678  49.079  1.00  0.00     0.329 C 
HETATM   23  N   UNL     1      22.710  48.723  49.911  1.00  0.00    -0.239 N 
HETATM   24  H   UNL     1      22.815  48.359  50.857  1.00  0.00     0.192 HD
HETATM   25  O   UNL     1      23.900  49.063  47.922  1.00  0.00    -0.261 OA
BRANCH  23  26
HETATM   26  N   UNL     1      21.516  49.193  49.463  1.00  0.00    -0.183 NA
HETATM   27  C   UNL     1      21.197  50.375  49.890  1.00  0.00     0.153 C 
BRANCH  27  28
HETATM   28  C   UNL     1      19.915  51.002  49.514  1.00  0.00     0.016 A 
HETATM   29  C   UNL     1      18.702  50.637  50.112  1.00  0.00     0.080 A 
HETATM   30  C   UNL     1      17.517  51.273  49.746  1.00  0.00     0.074 A 
HETATM   31  C   UNL     1      17.551  52.267  48.773  1.00  0.00     0.068 A 
HETATM   32  C   UNL     1      18.748  52.634  48.165  1.00  0.00     0.037 A 
HETATM   33  C   UNL     1      19.937  52.004  48.537  1.00  0.00     0.018 A 
BRANCH  29  34
HETATM   34  O   UNL     1      18.599  49.667  51.071  1.00  0.00    -0.360 OA
HETATM   35  H   UNL     1      17.881  49.047  50.809  1.00  0.00     0.217 HD
ENDBRANCH  29  34
BRANCH  31  36
HETATM   36  O   UNL     1      16.418  52.916  48.382  1.00  0.00    -0.361 OA
HETATM   37  H   UNL     1      15.660  52.524  48.848  1.00  0.00     0.217 HD
ENDBRANCH  31  36
ENDBRANCH  27  28
ENDBRANCH  23  26
ENDBRANCH   2  22
TORSDOF 8
ENDMDL
MODEL 8
REMARK VINA RESULT:      -8.8      1.843      2.464
REMARK  8 active torsions:
REMARK  status: ('A' for Active; 'I' for Inactive)
REMARK    1  A    between atoms: C_3  and  C_4 
REMARK       I    between atoms: C_4  and  N_5 
REMARK    2  A    between atoms: N_5  and  C_6 
REMARK    3  A    between atoms: C_14  and  N_15 
REMARK       I    between atoms: N_15  and  C_16 
REMARK    4  A    between atoms: C_16  and  C_17 
REMARK       I    between atoms: C_17  and  N_18 
REMARK    5  A    between atoms: N_18  and  N_19 
REMARK    6  A    between atoms: C_20  and  C_21 
REMARK    7  A    between atoms: C_22  and  O_23 
REMARK    8  A    between atoms: C_25  and  O_26 
ROOT
HETATM    1  N   UNL     1      24.904  44.179  48.938  1.00  0.00    -0.318 N 
HETATM    2  C   UNL     1      23.701  44.598  49.459  1.00  0.00     0.315 C 
HETATM    3  O   UNL     1      22.837  43.934  50.020  1.00  0.00    -0.262 OA
HETATM    4  H   UNL     1      25.512  44.923  48.573  1.00  0.00     0.169 HD
ENDROOT
BRANCH   1   5
HETATM    5  C   UNL     1      25.391  42.855  48.826  1.00  0.00     0.051 A 
HETATM    6  C   UNL     1      26.550  42.471  49.537  1.00  0.00     0.059 A 
HETATM    7  C   UNL     1      27.086  41.180  49.379  1.00  0.00     0.019 A 
HETATM    8  C   UNL     1      26.455  40.254  48.551  1.00  0.00     0.001 A 
HETATM    9  C   UNL     1      25.292  40.614  47.877  1.00  0.00     0.002 A 
HETATM   10  C   UNL     1      24.767  41.904  48.010  1.00  0.00     0.030 A 
BRANCH   6  11
HETATM   11  C   UNL     1      27.204  43.419  50.487  1.00  0.00     0.258 C 
HETATM   12  N   UNL     1      27.295  42.965  51.791  1.00  0.00    -0.323 N 
HETATM   13  H   UNL     1      26.852  42.079  52.001  1.00  0.00     0.169 HD
HETATM   14  O   UNL     1      27.544  44.518  50.066  1.00  0.00    -0.267 OA
BRANCH  12  15
HETATM   15  C   UNL     1      27.845  43.644  52.898  1.00  0.00     0.035 A 
HETATM   16  C   UNL     1      29.038  43.280  53.527  1.00  0.00     0.031 A 
HETATM   17  C   UNL     1      29.517  44.014  54.619  1.00  0.00     0.026 A 
HETATM   18  C   UNL     1      28.802  45.110  55.090  1.00  0.00     0.034 A 
HETATM   19 CL   UNL     1      29.392  46.010  56.430  1.00  0.00    -0.084 Cl
HETATM   20  C   UNL     1      27.609  45.482  54.477  1.00  0.00     0.026 A 
HETATM   21  C   UNL     1      27.133  44.750  53.386  1.00  0.00     0.031 A 
ENDBRANCH  12  15
ENDBRANCH   6  11
ENDBRANCH   1   5
BRANCH   2  22
HETATM   22  C   UNL     1      23.489  46.118  49.352  1.00  0.00     0.329 C 
HETATM   23  N   UNL     1      22.176  46.430  49.047  1.00  0.00    -0.239 N 
HETATM   24  H   UNL     1      21.523  45.658  48.918  1.00  0.00     0.192 HD
HETATM   25  O   UNL     1      24.418  46.888  49.548  1.00  0.00    -0.261 OA
BRANCH  23  26
HETATM   26  N   UNL     1      21.784  47.722  48.880  1.00  0.00    -0.183 NA
HETATM   27  C   UNL     1      20.553  47.967  49.203  1.00  0.00     0.153 C 
BRANCH  27  28
HETATM   28  C   UNL     1      19.977  49.316  49.045  1.00  0.00     0.016 A 
HETATM   29  C   UNL     1      19.280  49.956  50.078  1.00  0.00     0.080 A 
HETATM   30  C   UNL     1      18.774  51.242  49.895  1.00  0.00     0.074 A 
HETATM   31  C   UNL     1      18.960  51.879  48.672  1.00  0.00     0.068 A 
HETATM   32  C   UNL     1      19.644  51.252  47.634  1.00  0.00     0.037 A 
HETATM   33  C   UNL     1      20.160  49.968  47.819  1.00  0.00     0.018 A 
BRANCH  29  34
HETATM   34  O   UNL     1      19.060  49.386  51.302  1.00  0.00    -0.360 OA
HETATM   35  H   UNL     1      19.611  49.858  51.967  1.00  0.00     0.217 HD
ENDBRANCH  29  34
BRANCH  31  36
HETATM   36  O   UNL     1      18.483  53.135  48.446  1.00  0.00    -0.361 OA
HETATM   37  H   UNL     1      18.970  53.758  49.012  1.00  0.00     0.217 HD
ENDBRANCH  31  36
ENDBRANCH  27  28
ENDBRANCH  23  26
ENDBRANCH   2  22
TORSDOF 8
ENDMDL
MODEL 9
REMARK VINA RESULT:      -8.8      3.035      8.537
REMARK  8 active torsions:
REMARK  status: ('A' for Active; 'I' for Inactive)
REMARK    1  A    between atoms: C_3  and  C_4 
REMARK       I    between atoms: C_4  and  N_5 
REMARK    2  A    between atoms: N_5  and  C_6 
REMARK    3  A    between atoms: C_14  and  N_15 
REMARK       I    between atoms: N_15  and  C_16 
REMARK    4  A    between atoms: C_16  and  C_17 
REMARK       I    between atoms: C_17  and  N_18 
REMARK    5  A    between atoms: N_18  and  N_19 
REMARK    6  A    between atoms: C_20  and  C_21 
REMARK    7  A    between atoms: C_22  and  O_23 
REMARK    8  A    between atoms: C_25  and  O_26 
ROOT
HETATM    1  N   UNL     1      22.942  45.772  48.410  1.00  0.00    -0.318 N 
HETATM    2  C   UNL     1      22.201  44.687  48.822  1.00  0.00     0.315 C 
HETATM    3  O   UNL     1      21.038  44.657  49.208  1.00  0.00    -0.262 OA
HETATM    4  H   UNL     1      23.883  45.556  48.056  1.00  0.00     0.169 HD
ENDROOT
BRANCH   1   5
HETATM    5  C   UNL     1      22.575  47.137  48.435  1.00  0.00     0.051 A 
HETATM    6  C   UNL     1      23.323  48.051  49.210  1.00  0.00     0.059 A 
HETATM    7  C   UNL     1      22.926  49.398  49.301  1.00  0.00     0.019 A 
HETATM    8  C   UNL     1      21.815  49.852  48.595  1.00  0.00     0.001 A 
HETATM    9  C   UNL     1      21.095  48.965  47.799  1.00  0.00     0.002 A 
HETATM   10  C   UNL     1      21.469  47.620  47.723  1.00  0.00     0.030 A 
BRANCH   6  11
HETATM   11  C   UNL     1      24.559  47.608  49.919  1.00  0.00     0.258 C 
HETATM   12  N   UNL     1      24.342  47.034  51.161  1.00  0.00    -0.323 N 
HETATM   13  H   UNL     1      23.391  47.032  51.506  1.00  0.00     0.169 HD
HETATM   14  O   UNL     1      25.641  47.835  49.393  1.00  0.00    -0.267 OA
BRANCH  12  15
HETATM   15  C   UNL     1      25.313  46.541  52.057  1.00  0.00     0.035 A 
HETATM   16  C   UNL     1      25.776  47.241  53.174  1.00  0.00     0.031 A 
HETATM   17  C   UNL     1      26.740  46.676  54.016  1.00  0.00     0.026 A 
HETATM   18  C   UNL     1      27.249  45.410  53.742  1.00  0.00     0.034 A 
HETATM   19 CL   UNL     1      28.433  44.717  54.778  1.00  0.00    -0.084 Cl
HETATM   20  C   UNL     1      26.802  44.702  52.631  1.00  0.00     0.026 A 
HETATM   21  C   UNL     1      25.838  45.267  51.791  1.00  0.00     0.031 A 
ENDBRANCH  12  15
ENDBRANCH   6  11
ENDBRANCH   1   5
BRANCH   2  22
HETATM   22  C   UNL     1      22.958  43.353  48.703  1.00  0.00     0.329 C 
HETATM   23  N   UNL     1      24.328  43.546  48.664  1.00  0.00    -0.239 N 
HETATM   24  H   UNL     1      24.672  44.504  48.702  1.00  0.00     0.192 HD
HETATM   25  O   UNL     1      22.348  42.295  48.674  1.00  0.00    -0.261 OA
BRANCH  23  26
HETATM   26  N   UNL     1      25.179  42.494  48.533  1.00  0.00    -0.183 NA
HETATM   27  C   UNL     1      26.154  42.467  49.386  1.00  0.00     0.153 C 
BRANCH  27  28
HETATM   28  C   UNL     1      27.176  41.404  49.345  1.00  0.00     0.016 A 
HETATM   29  C   UNL     1      27.826  41.038  48.159  1.00  0.00     0.080 A 
HETATM   30  C   UNL     1      28.804  40.045  48.169  1.00  0.00     0.074 A 
HETATM   31  C   UNL     1      29.120  39.414  49.368  1.00  0.00     0.068 A 
HETATM   32  C   UNL     1      28.477  39.761  50.552  1.00  0.00     0.037 A 
HETATM   33  C   UNL     1      27.504  40.762  50.546  1.00  0.00     0.018 A 
BRANCH  29  34
HETATM   34  O   UNL     1      27.560  41.616  46.948  1.00  0.00    -0.360 OA
HETATM   35  H   UNL     1      28.216  41.282  46.295  1.00  0.00     0.217 HD
ENDBRANCH  29  34
BRANCH  31  36
HETATM   36  O   UNL     1      30.068  38.437  49.427  1.00  0.00    -0.361 OA
HETATM   37  H   UNL     1      30.739  38.695  50.082  1.00  0.00     0.217 HD
ENDBRANCH  31  36
ENDBRANCH  27  28
ENDBRANCH  23  26
ENDBRANCH   2  22
TORSDOF 8
ENDMDL
MODEL 10
REMARK VINA RESULT:      -8.8      3.497      9.008
REMARK  8 active torsions:
REMARK  status: ('A' for Active; 'I' for Inactive)
REMARK    1  A    between atoms: C_3  and  C_4 
REMARK       I    between atoms: C_4  and  N_5 
REMARK    2  A    between atoms: N_5  and  C_6 
REMARK    3  A    between atoms: C_14  and  N_15 
REMARK       I    between atoms: N_15  and  C_16 
REMARK    4  A    between atoms: C_16  and  C_17 
REMARK       I    between atoms: C_17  and  N_18 
REMARK    5  A    between atoms: N_18  and  N_19 
REMARK    6  A    between atoms: C_20  and  C_21 
REMARK    7  A    between atoms: C_22  and  O_23 
REMARK    8  A    between atoms: C_25  and  O_26 
ROOT
HETATM    1  N   UNL     1      23.247  49.308  49.118  1.00  0.00    -0.318 N 
HETATM    2  C   UNL     1      24.433  49.478  48.440  1.00  0.00     0.315 C 
HETATM    3  O   UNL     1      24.628  50.039  47.368  1.00  0.00    -0.262 OA
HETATM    4  H   UNL     1      23.325  48.866  50.043  1.00  0.00     0.169 HD
ENDROOT
BRANCH   1   5
HETATM    5  C   UNL     1      21.942  49.647  48.689  1.00  0.00     0.051 A 
HETATM    6  C   UNL     1      21.197  48.730  47.916  1.00  0.00     0.059 A 
HETATM    7  C   UNL     1      19.928  49.082  47.421  1.00  0.00     0.019 A 
HETATM    8  C   UNL     1      19.376  50.324  47.726  1.00  0.00     0.001 A 
HETATM    9  C   UNL     1      20.089  51.218  48.519  1.00  0.00     0.002 A 
HETATM   10  C   UNL     1      21.362  50.885  48.993  1.00  0.00     0.030 A 
BRANCH   6  11
HETATM   11  C   UNL     1      21.734  47.365  47.635  1.00  0.00     0.258 C 
HETATM   12  N   UNL     1      22.026  46.613  48.760  1.00  0.00    -0.323 N 
HETATM   13  H   UNL     1      21.923  47.070  49.658  1.00  0.00     0.169 HD
HETATM   14  O   UNL     1      21.928  47.048  46.469  1.00  0.00    -0.267 OA
BRANCH  12  15
HETATM   15  C   UNL     1      22.555  45.306  48.803  1.00  0.00     0.035 A 
HETATM   16  C   UNL     1      22.003  44.216  48.126  1.00  0.00     0.031 A 
HETATM   17  C   UNL     1      22.595  42.950  48.218  1.00  0.00     0.026 A 
HETATM   18  C   UNL     1      23.738  42.770  48.991  1.00  0.00     0.034 A 
HETATM   19 CL   UNL     1      24.464  41.216  49.103  1.00  0.00    -0.084 Cl
HETATM   20  C   UNL     1      24.296  43.846  49.675  1.00  0.00     0.026 A 
HETATM   21  C   UNL     1      23.705  45.109  49.581  1.00  0.00     0.031 A 
ENDBRANCH  12  15
ENDBRANCH   6  11
ENDBRANCH   1   5
BRANCH   2  22
HETATM   22  C   UNL     1      25.652  48.927  49.200  1.00  0.00     0.329 C 
HETATM   23  N   UNL     1      25.275  48.047  50.199  1.00  0.00    -0.239 N 
HETATM   24  H   UNL     1      24.279  47.876  50.328  1.00  0.00     0.192 HD
HETATM   25  O   UNL     1      26.784  49.262  48.882  1.00  0.00    -0.261 OA
BRANCH  23  26
HETATM   26  N   UNL     1      26.202  47.468  51.009  1.00  0.00    -0.183 NA
HETATM   27  C   UNL     1      25.792  47.202  52.209  1.00  0.00     0.153 C 
BRANCH  27  28
HETATM   28  C   UNL     1      26.696  46.603  53.209  1.00  0.00     0.016 A 
HETATM   29  C   UNL     1      27.143  45.279  53.113  1.00  0.00     0.080 A 
HETATM   30  C   UNL     1      28.018  44.760  54.066  1.00  0.00     0.074 A 
HETATM   31  C   UNL     1      28.434  45.568  55.119  1.00  0.00     0.068 A 
HETATM   32  C   UNL     1      27.992  46.883  55.232  1.00  0.00     0.037 A 
HETATM   33  C   UNL     1      27.123  47.407  54.273  1.00  0.00     0.018 A 
BRANCH  29  34
HETATM   34  O   UNL     1      26.771  44.432  52.105  1.00  0.00    -0.360 OA
HETATM   35  H   UNL     1      26.257  43.690  52.499  1.00  0.00     0.217 HD
ENDBRANCH  29  34
BRANCH  31  36
HETATM   36  O   UNL     1      29.288  45.105  56.075  1.00  0.00    -0.361 OA
HETATM   37  H   UNL     1      29.001  44.214  56.340  1.00  0.00     0.217 HD
ENDBRANCH  31  36
ENDBRANCH  27  28
ENDBRANCH  23  26
ENDBRANCH   2  22
TORSDOF 8
ENDMDL
