MODEL 1
REMARK VINA RESULT:      -9.6      0.000      0.000
REMARK  8 active torsions:
REMARK  status: ('A' for Active; 'I' for Inactive)
REMARK    1  A    between atoms: O_2  and  C_3 
REMARK    2  A    between atoms: C_11  and  C_12 
REMARK       I    between atoms: C_12  and  N_13 
REMARK    3  A    between atoms: N_13  and  C_14 
REMARK    4  A    between atoms: C_14  and  C_15 
REMARK    5  A    between atoms: C_15  and  C_16 
REMARK    6  A    between atoms: C_16  and  C_17 
REMARK    7  A    between atoms: C_17  and  O_18 
REMARK    8  A    between atoms: O_18  and  C_19 
ROOT
HETATM    1  C   UNL     1      22.967  48.118  49.102  1.00  0.00     0.268 C 
HETATM    2  N   UNL     1      24.204  48.562  49.493  1.00  0.00    -0.345 N 
HETATM    3  O   UNL     1      22.753  46.949  48.794  1.00  0.00    -0.266 OA
HETATM    4  H   UNL     1      24.360  49.546  49.656  1.00  0.00     0.163 HD
ENDROOT
BRANCH   2   5
HETATM    5  C   UNL     1      25.344  47.688  49.454  1.00  0.00     0.217 C 
BRANCH   5   6
HETATM    6  C   UNL     1      25.787  47.354  50.869  1.00  0.00    -0.085 C 
BRANCH   6   7
HETATM    7  C   UNL     1      26.166  47.068  52.083  1.00  0.00    -0.078 C 
BRANCH   7   8
HETATM    8  C   UNL     1      26.608  46.734  53.498  1.00  0.00     0.269 C 
BRANCH   8   9
HETATM    9  O   UNL     1      26.831  45.329  53.577  1.00  0.00    -0.339 OA
BRANCH   9  10
HETATM   10  C   UNL     1      27.912  44.912  54.304  1.00  0.00     0.072 A 
HETATM   11  C   UNL     1      28.374  45.479  55.495  1.00  0.00     0.069 A 
HETATM   12  C   UNL     1      29.491  44.980  56.155  1.00  0.00     0.069 A 
HETATM   13  C   UNL     1      30.166  43.873  55.600  1.00  0.00    -0.007 A 
HETATM   14  N   UNL     1      29.894  45.567  57.297  1.00  0.00    -0.260 NA
HETATM   15  C   UNL     1      29.707  43.294  54.407  1.00  0.00     0.016 A 
HETATM   16  C   UNL     1      31.291  43.380  56.274  1.00  0.00     0.015 A 
HETATM   17  C   UNL     1      28.585  43.816  53.766  1.00  0.00     0.038 A 
HETATM   18  C   UNL     1      31.709  43.985  57.452  1.00  0.00     0.020 A 
HETATM   19  C   UNL     1      30.983  45.064  57.918  1.00  0.00     0.117 A 
ENDBRANCH   9  10
ENDBRANCH   8   9
ENDBRANCH   7   8
ENDBRANCH   6   7
ENDBRANCH   5   6
ENDBRANCH   2   5
BRANCH   1  20
HETATM   20  C   UNL     1      21.923  49.117  49.077  1.00  0.00     0.102 A 
HETATM   21  N   UNL     1      20.741  48.920  49.760  1.00  0.00    -0.351 N 
HETATM   22  C   UNL     1      19.897  49.994  49.613  1.00  0.00     0.045 A 
HETATM   23  H   UNL     1      20.544  48.088  50.301  1.00  0.00     0.166 HD
HETATM   24  C   UNL     1      18.617  50.218  50.145  1.00  0.00     0.067 A 
HETATM   25  C   UNL     1      20.544  50.907  48.787  1.00  0.00    -0.007 A 
HETATM   26  C   UNL     1      17.980  51.420  49.819  1.00  0.00     0.070 A 
HETATM   27  C   UNL     1      18.607  52.342  48.978  1.00  0.00     0.038 A 
HETATM   28  C   UNL     1      19.885  52.104  48.457  1.00  0.00     0.016 A 
HETATM   29  C   UNL     1      21.815  50.352  48.461  1.00  0.00     0.049 A 
BRANCH  26  30
HETATM   30  O   UNL     1      16.738  51.805  50.254  1.00  0.00    -0.356 OA
HETATM   31  C   UNL     1      15.751  52.033  49.257  1.00  0.00     0.210 C 
ENDBRANCH  26  30
ENDBRANCH   1  20
TORSDOF 8
ENDMDL
MODEL 2
REMARK VINA RESULT:      -9.6      1.572      1.658
REMARK  8 active torsions:
REMARK  status: ('A' for Active; 'I' for Inactive)
REMARK    1  A    between atoms: O_2  and  C_3 
REMARK    2  A    between atoms: C_11  and  C_12 
REMARK       I    between atoms: C_12  and  N_13 
REMARK    3  A    between atoms: N_13  and  C_14 
REMARK    4  A    between atoms: C_14  and  C_15 
REMARK    5  A    between atoms: C_15  and  C_16 
REMARK    6  A    between atoms: C_16  and  C_17 
REMARK    7  A    between atoms: C_17  and  O_18 
REMARK    8  A    between atoms: O_18  and  C_19 
ROOT
HETATM    1  C   UNL     1      24.351  49.622  48.347  1.00  0.00     0.268 C 
HETATM    2  N   UNL     1      24.602  48.637  49.268  1.00  0.00    -0.345 N 
HETATM    3  O   UNL     1      25.225  50.081  47.618  1.00  0.00    -0.266 OA
HETATM    4  H   UNL     1      23.877  48.346  49.907  1.00  0.00     0.163 HD
ENDROOT
BRANCH   2   5
HETATM    5  C   UNL     1      25.942  48.171  49.498  1.00  0.00     0.217 C 
BRANCH   5   6
HETATM    6  C   UNL     1      26.011  47.429  50.822  1.00  0.00    -0.085 C 
BRANCH   6   7
HETATM    7  C   UNL     1      26.069  46.793  51.959  1.00  0.00    -0.078 C 
BRANCH   7   8
HETATM    8  C   UNL     1      26.136  46.051  53.283  1.00  0.00     0.269 C 
BRANCH   8   9
HETATM    9  O   UNL     1      27.107  46.693  54.107  1.00  0.00    -0.339 OA
BRANCH   9  10
HETATM   10  C   UNL     1      28.074  45.899  54.660  1.00  0.00     0.072 A 
HETATM   11  C   UNL     1      28.764  46.148  55.849  1.00  0.00     0.069 A 
HETATM   12  C   UNL     1      29.737  45.276  56.323  1.00  0.00     0.069 A 
HETATM   13  C   UNL     1      30.025  44.113  55.578  1.00  0.00    -0.007 A 
HETATM   14  N   UNL     1      30.373  45.566  57.473  1.00  0.00    -0.260 NA
HETATM   15  C   UNL     1      29.334  43.854  54.384  1.00  0.00     0.016 A 
HETATM   16  C   UNL     1      31.008  43.243  56.065  1.00  0.00     0.015 A 
HETATM   17  C   UNL     1      28.364  44.746  53.932  1.00  0.00     0.038 A 
HETATM   18  C   UNL     1      31.666  43.541  57.252  1.00  0.00     0.020 A 
HETATM   19  C   UNL     1      31.316  44.703  57.912  1.00  0.00     0.117 A 
ENDBRANCH   9  10
ENDBRANCH   8   9
ENDBRANCH   7   8
ENDBRANCH   6   7
ENDBRANCH   5   6
ENDBRANCH   2   5
BRANCH   1  20
HETATM   20  C   UNL     1      22.984  50.086  48.285  1.00  0.00     0.102 A 
HETATM   21  N   UNL     1      22.006  49.325  47.680  1.00  0.00    -0.351 N 
HETATM   22  C   UNL     1      20.782  49.946  47.744  1.00  0.00     0.045 A 
HETATM   23  H   UNL     1      22.186  48.424  47.258  1.00  0.00     0.166 HD
HETATM   24  C   UNL     1      19.528  49.522  47.278  1.00  0.00     0.067 A 
HETATM   25  C   UNL     1      20.979  51.162  48.390  1.00  0.00    -0.007 A 
HETATM   26  C   UNL     1      18.438  50.376  47.480  1.00  0.00     0.070 A 
HETATM   27  C   UNL     1      18.618  51.608  48.113  1.00  0.00     0.038 A 
HETATM   28  C   UNL     1      19.877  52.015  48.575  1.00  0.00     0.016 A 
HETATM   29  C   UNL     1      22.360  51.239  48.730  1.00  0.00     0.049 A 
BRANCH  26  30
HETATM   30  O   UNL     1      17.146  50.120  47.098  1.00  0.00    -0.356 OA
HETATM   31  C   UNL     1      16.126  50.435  48.037  1.00  0.00     0.210 C 
ENDBRANCH  26  30
ENDBRANCH   1  20
TORSDOF 8
ENDMDL
MODEL 3
REMARK VINA RESULT:      -9.1      2.349     12.189
REMARK  8 active torsions:
REMARK  status: ('A' for Active; 'I' for Inactive)
REMARK    1  A    between atoms: O_2  and  C_3 
REMARK    2  A    between atoms: C_11  and  C_12 
REMARK       I    between atoms: C_12  and  N_13 
REMARK    3  A    between atoms: N_13  and  C_14 
REMARK    4  A    between atoms: C_14  and  C_15 
REMARK    5  A    between atoms: C_15  and  C_16 
REMARK    6  A    between atoms: C_16  and  C_17 
REMARK    7  A    between atoms: C_17  and  O_18 
REMARK    8  A    between atoms: O_18  and  C_19 
ROOT
HETATM    1  C   UNL     1      26.922  43.294  51.523  1.00  0.00     0.268 C 
HETATM    2  N   UNL     1      26.818  44.336  50.638  1.00  0.00    -0.345 N 
HETATM    3  O   UNL     1      26.240  42.278  51.428  1.00  0.00    -0.266 OA
HETATM    4  H   UNL     1      27.333  45.189  50.799  1.00  0.00     0.163 HD
ENDROOT
BRANCH   2   5
HETATM    5  C   UNL     1      25.816  44.328  49.608  1.00  0.00     0.217 C 
BRANCH   5   6
HETATM    6  C   UNL     1      25.062  45.647  49.611  1.00  0.00    -0.085 C 
BRANCH   6   7
HETATM    7  C   UNL     1      24.414  46.779  49.612  1.00  0.00    -0.078 C 
BRANCH   7   8
HETATM    8  C   UNL     1      23.660  48.098  49.613  1.00  0.00     0.269 C 
BRANCH   8   9
HETATM    9  O   UNL     1      22.375  47.879  49.036  1.00  0.00    -0.339 OA
BRANCH   9  10
HETATM   10  C   UNL     1      21.526  48.951  48.989  1.00  0.00     0.072 A 
HETATM   11  C   UNL     1      20.230  48.999  49.510  1.00  0.00     0.069 A 
HETATM   12  C   UNL     1      19.444  50.141  49.405  1.00  0.00     0.069 A 
HETATM   13  C   UNL     1      19.979  51.273  48.755  1.00  0.00    -0.007 A 
HETATM   14  N   UNL     1      18.202  50.132  49.922  1.00  0.00    -0.260 NA
HETATM   15  C   UNL     1      21.280  51.234  48.231  1.00  0.00     0.016 A 
HETATM   16  C   UNL     1      19.177  52.417  48.654  1.00  0.00     0.015 A 
HETATM   17  C   UNL     1      22.046  50.076  48.351  1.00  0.00     0.038 A 
HETATM   18  C   UNL     1      17.894  52.408  49.186  1.00  0.00     0.020 A 
HETATM   19  C   UNL     1      17.457  51.253  49.805  1.00  0.00     0.117 A 
ENDBRANCH   9  10
ENDBRANCH   8   9
ENDBRANCH   7   8
ENDBRANCH   6   7
ENDBRANCH   5   6
ENDBRANCH   2   5
BRANCH   1  20
HETATM   20  C   UNL     1      27.890  43.466  52.582  1.00  0.00     0.102 A 
HETATM   21  N   UNL     1      27.841  44.565  53.413  1.00  0.00    -0.351 N 
HETATM   22  C   UNL     1      28.842  44.524  54.352  1.00  0.00     0.045 A 
HETATM   23  H   UNL     1      27.143  45.293  53.330  1.00  0.00     0.166 HD
HETATM   24  C   UNL     1      29.145  45.419  55.391  1.00  0.00     0.067 A 
HETATM   25  C   UNL     1      29.580  43.371  54.107  1.00  0.00    -0.007 A 
HETATM   26  C   UNL     1      30.243  45.120  56.205  1.00  0.00     0.070 A 
HETATM   27  C   UNL     1      31.007  43.976  55.964  1.00  0.00     0.038 A 
HETATM   28  C   UNL     1      30.689  43.092  54.924  1.00  0.00     0.016 A 
HETATM   29  C   UNL     1      28.973  42.712  52.999  1.00  0.00     0.049 A 
BRANCH  26  30
HETATM   30  O   UNL     1      30.675  45.875  57.265  1.00  0.00    -0.356 OA
HETATM   31  C   UNL     1      30.415  45.363  58.565  1.00  0.00     0.210 C 
ENDBRANCH  26  30
ENDBRANCH   1  20
TORSDOF 8
ENDMDL
MODEL 4
REMARK VINA RESULT:      -9.0      1.365      1.829
REMARK  8 active torsions:
REMARK  status: ('A' for Active; 'I' for Inactive)
REMARK    1  A    between atoms: O_2  and  C_3 
REMARK    2  A    between atoms: C_11  and  C_12 
REMARK       I    between atoms: C_12  and  N_13 
REMARK    3  A    between atoms: N_13  and  C_14 
REMARK    4  A    between atoms: C_14  and  C_15 
REMARK    5  A    between atoms: C_15  and  C_16 
REMARK    6  A    between atoms: C_16  and  C_17 
REMARK    7  A    between atoms: C_17  and  O_18 
REMARK    8  A    between atoms: O_18  and  C_19 
ROOT
HETATM    1  C   UNL     1      23.752  49.287  49.132  1.00  0.00     0.268 C 
HETATM    2  N   UNL     1      23.652  47.926  49.273  1.00  0.00    -0.345 N 
HETATM    3  O   UNL     1      24.833  49.866  49.071  1.00  0.00    -0.266 OA
HETATM    4  H   UNL     1      22.749  47.497  49.405  1.00  0.00     0.163 HD
ENDROOT
BRANCH   2   5
HETATM    5  C   UNL     1      24.826  47.120  49.468  1.00  0.00     0.217 C 
BRANCH   5   6
HETATM    6  C   UNL     1      25.025  46.847  50.949  1.00  0.00    -0.085 C 
BRANCH   6   7
HETATM    7  C   UNL     1      25.195  46.614  52.221  1.00  0.00    -0.078 C 
BRANCH   7   8
HETATM    8  C   UNL     1      25.393  46.343  53.703  1.00  0.00     0.269 C 
BRANCH   8   9
HETATM    9  O   UNL     1      26.520  47.094  54.148  1.00  0.00    -0.339 OA
BRANCH   9  10
HETATM   10  C   UNL     1      27.552  46.391  54.707  1.00  0.00     0.072 A 
HETATM   11  C   UNL     1      28.136  45.231  54.189  1.00  0.00     0.069 A 
HETATM   12  C   UNL     1      29.181  44.588  54.841  1.00  0.00     0.069 A 
HETATM   13  C   UNL     1      29.658  45.130  56.054  1.00  0.00    -0.007 A 
HETATM   14  N   UNL     1      29.704  43.473  54.300  1.00  0.00    -0.260 NA
HETATM   15  C   UNL     1      29.080  46.295  56.579  1.00  0.00     0.016 A 
HETATM   16  C   UNL     1      30.711  44.472  56.702  1.00  0.00     0.015 A 
HETATM   17  C   UNL     1      28.032  46.919  55.904  1.00  0.00     0.038 A 
HETATM   18  C   UNL     1      31.251  43.320  56.145  1.00  0.00     0.020 A 
HETATM   19  C   UNL     1      30.718  42.865  54.954  1.00  0.00     0.117 A 
ENDBRANCH   9  10
ENDBRANCH   8   9
ENDBRANCH   7   8
ENDBRANCH   6   7
ENDBRANCH   5   6
ENDBRANCH   2   5
BRANCH   1  20
HETATM   20  C   UNL     1      22.498  50.002  49.056  1.00  0.00     0.102 A 
HETATM   21  N   UNL     1      21.413  49.607  49.809  1.00  0.00    -0.351 N 
HETATM   22  C   UNL     1      20.333  50.428  49.595  1.00  0.00     0.045 A 
HETATM   23  H   UNL     1      21.433  48.816  50.440  1.00  0.00     0.166 HD
HETATM   24  C   UNL     1      19.049  50.401  50.162  1.00  0.00     0.067 A 
HETATM   25  C   UNL     1      20.725  51.373  48.653  1.00  0.00    -0.007 A 
HETATM   26  C   UNL     1      18.136  51.375  49.747  1.00  0.00     0.070 A 
HETATM   27  C   UNL     1      18.504  52.323  48.789  1.00  0.00     0.038 A 
HETATM   28  C   UNL     1      19.791  52.338  48.235  1.00  0.00     0.016 A 
HETATM   29  C   UNL     1      22.084  51.102  48.325  1.00  0.00     0.049 A 
BRANCH  26  30
HETATM   30  O   UNL     1      16.847  51.501  50.199  1.00  0.00    -0.356 OA
HETATM   31  C   UNL     1      16.267  52.797  50.130  1.00  0.00     0.210 C 
ENDBRANCH  26  30
ENDBRANCH   1  20
TORSDOF 8
ENDMDL
MODEL 5
REMARK VINA RESULT:      -8.8      2.357     12.259
REMARK  8 active torsions:
REMARK  status: ('A' for Active; 'I' for Inactive)
REMARK    1  A    between atoms: O_2  and  C_3 
REMARK    2  A    between atoms: C_11  and  C_12 
REMARK       I    between atoms: C_12  and  N_13 
REMARK    3  A    between atoms: N_13  and  C_14 
REMARK    4  A    between atoms: C_14  and  C_15 
REMARK    5  A    between atoms: C_15  and  C_16 
REMARK    6  A    between atoms: C_16  and  C_17 
REMARK    7  A    between atoms: C_17  and  O_18 
REMARK    8  A    between atoms: O_18  and  C_19 
ROOT
HETATM    1  C   UNL     1      25.541  44.832  52.206  1.00  0.00     0.268 C 
HETATM    2  N   UNL     1      25.766  45.380  50.969  1.00  0.00    -0.345 N 
HETATM    3  O   UNL     1      24.466  44.326  52.517  1.00  0.00    -0.266 OA
HETATM    4  H   UNL     1      26.633  45.861  50.781  1.00  0.00     0.163 HD
ENDROOT
BRANCH   2   5
HETATM    5  C   UNL     1      24.704  45.483  50.007  1.00  0.00     0.217 C 
BRANCH   5   6
HETATM    6  C   UNL     1      24.564  46.924  49.546  1.00  0.00    -0.085 C 
BRANCH   6   7
HETATM    7  C   UNL     1      24.442  48.161  49.151  1.00  0.00    -0.078 C 
BRANCH   7   8
HETATM    8  C   UNL     1      24.302  49.602  48.691  1.00  0.00     0.269 C 
BRANCH   8   9
HETATM    9  O   UNL     1      23.233  49.669  47.750  1.00  0.00    -0.339 OA
BRANCH   9  10
HETATM   10  C   UNL     1      22.063  50.234  48.180  1.00  0.00     0.072 A 
HETATM   11  C   UNL     1      20.921  50.456  47.406  1.00  0.00     0.069 A 
HETATM   12  C   UNL     1      19.781  51.044  47.940  1.00  0.00     0.069 A 
HETATM   13  C   UNL     1      19.788  51.421  49.300  1.00  0.00    -0.007 A 
HETATM   14  N   UNL     1      18.711  51.238  47.149  1.00  0.00    -0.260 NA
HETATM   15  C   UNL     1      20.929  51.198  50.086  1.00  0.00     0.016 A 
HETATM   16  C   UNL     1      18.633  52.013  49.827  1.00  0.00     0.015 A 
HETATM   17  C   UNL     1      22.059  50.607  49.523  1.00  0.00     0.038 A 
HETATM   18  C   UNL     1      17.528  52.215  49.011  1.00  0.00     0.020 A 
HETATM   19  C   UNL     1      17.615  51.813  47.692  1.00  0.00     0.117 A 
ENDBRANCH   9  10
ENDBRANCH   8   9
ENDBRANCH   7   8
ENDBRANCH   6   7
ENDBRANCH   5   6
ENDBRANCH   2   5
BRANCH   1  20
HETATM   20  C   UNL     1      26.653  44.885  53.127  1.00  0.00     0.102 A 
HETATM   21  N   UNL     1      27.515  43.817  53.255  1.00  0.00    -0.351 N 
HETATM   22  C   UNL     1      28.504  44.082  54.170  1.00  0.00     0.045 A 
HETATM   23  H   UNL     1      27.419  42.959  52.726  1.00  0.00     0.166 HD
HETATM   24  C   UNL     1      29.586  43.290  54.589  1.00  0.00     0.067 A 
HETATM   25  C   UNL     1      28.261  45.357  54.671  1.00  0.00    -0.007 A 
HETATM   26  C   UNL     1      30.446  43.825  55.554  1.00  0.00     0.070 A 
HETATM   27  C   UNL     1      30.209  45.097  56.081  1.00  0.00     0.038 A 
HETATM   28  C   UNL     1      29.126  45.875  55.650  1.00  0.00     0.016 A 
HETATM   29  C   UNL     1      27.102  45.854  54.007  1.00  0.00     0.049 A 
BRANCH  26  30
HETATM   30  O   UNL     1      31.550  43.197  56.070  1.00  0.00    -0.356 OA
HETATM   31  C   UNL     1      31.898  43.511  57.412  1.00  0.00     0.210 C 
ENDBRANCH  26  30
ENDBRANCH   1  20
TORSDOF 8
ENDMDL
MODEL 6
REMARK VINA RESULT:      -8.6      2.286      2.453
REMARK  8 active torsions:
REMARK  status: ('A' for Active; 'I' for Inactive)
REMARK    1  A    between atoms: O_2  and  C_3 
REMARK    2  A    between atoms: C_11  and  C_12 
REMARK       I    between atoms: C_12  and  N_13 
REMARK    3  A    between atoms: N_13  and  C_14 
REMARK    4  A    between atoms: C_14  and  C_15 
REMARK    5  A    between atoms: C_15  and  C_16 
REMARK    6  A    between atoms: C_16  and  C_17 
REMARK    7  A    between atoms: C_17  and  O_18 
REMARK    8  A    between atoms: O_18  and  C_19 
ROOT
HETATM    1  C   UNL     1      20.792  45.319  48.582  1.00  0.00     0.268 C 
HETATM    2  N   UNL     1      21.844  44.999  49.402  1.00  0.00    -0.345 N 
HETATM    3  O   UNL     1      20.222  44.485  47.885  1.00  0.00    -0.266 OA
HETATM    4  H   UNL     1      22.341  45.726  49.894  1.00  0.00     0.163 HD
ENDROOT
BRANCH   2   5
HETATM    5  C   UNL     1      22.401  43.674  49.398  1.00  0.00     0.217 C 
BRANCH   5   6
HETATM    6  C   UNL     1      23.775  43.690  50.047  1.00  0.00    -0.085 C 
BRANCH   6   7
HETATM    7  C   UNL     1      24.953  43.704  50.605  1.00  0.00    -0.078 C 
BRANCH   7   8
HETATM    8  C   UNL     1      26.327  43.721  51.253  1.00  0.00     0.269 C 
BRANCH   8   9
HETATM    9  O   UNL     1      26.155  43.787  52.666  1.00  0.00    -0.339 OA
BRANCH   9  10
HETATM   10  C   UNL     1      27.287  43.736  53.433  1.00  0.00     0.072 A 
HETATM   11  C   UNL     1      27.741  44.731  54.302  1.00  0.00     0.069 A 
HETATM   12  C   UNL     1      28.912  44.581  55.034  1.00  0.00     0.069 A 
HETATM   13  C   UNL     1      29.653  43.389  54.889  1.00  0.00    -0.007 A 
HETATM   14  N   UNL     1      29.305  45.574  55.854  1.00  0.00    -0.260 NA
HETATM   15  C   UNL     1      29.203  42.382  54.022  1.00  0.00     0.016 A 
HETATM   16  C   UNL     1      30.832  43.250  55.632  1.00  0.00     0.015 A 
HETATM   17  C   UNL     1      28.025  42.560  53.299  1.00  0.00     0.038 A 
HETATM   18  C   UNL     1      31.239  44.274  56.478  1.00  0.00     0.020 A 
HETATM   19  C   UNL     1      30.448  45.404  56.554  1.00  0.00     0.117 A 
ENDBRANCH   9  10
ENDBRANCH   8   9
ENDBRANCH   7   8
ENDBRANCH   6   7
ENDBRANCH   5   6
ENDBRANCH   2   5
BRANCH   1  20
HETATM   20  C   UNL     1      20.392  46.708  48.591  1.00  0.00     0.102 A 
HETATM   21  N   UNL     1      19.498  47.179  49.529  1.00  0.00    -0.351 N 
HETATM   22  C   UNL     1      19.267  48.523  49.365  1.00  0.00     0.045 A 
HETATM   23  H   UNL     1      19.083  46.595  50.243  1.00  0.00     0.166 HD
HETATM   24  C   UNL     1      18.453  49.398  50.102  1.00  0.00     0.067 A 
HETATM   25  C   UNL     1      20.019  48.932  48.269  1.00  0.00    -0.007 A 
HETATM   26  C   UNL     1      18.407  50.737  49.698  1.00  0.00     0.070 A 
HETATM   27  C   UNL     1      19.142  51.163  48.590  1.00  0.00     0.038 A 
HETATM   28  C   UNL     1      19.953  50.277  47.867  1.00  0.00     0.016 A 
HETATM   29  C   UNL     1      20.725  47.789  47.793  1.00  0.00     0.049 A 
BRANCH  26  30
HETATM   30  O   UNL     1      17.674  51.724  50.304  1.00  0.00    -0.356 OA
HETATM   31  C   UNL     1      16.410  52.028  49.730  1.00  0.00     0.210 C 
ENDBRANCH  26  30
ENDBRANCH   1  20
TORSDOF 8
ENDMDL
MODEL 7
REMARK VINA RESULT:      -8.4      3.208      4.867
REMARK  8 active torsions:
REMARK  status: ('A' for Active; 'I' for Inactive)
REMARK    1  A    between atoms: O_2  and  C_3 
REMARK    2  A    between atoms: C_11  and  C_12 
REMARK       I    between atoms: C_12  and  N_13 
REMARK    3  A    between atoms: N_13  and  C_14 
REMARK    4  A    between atoms: C_14  and  C_15 
REMARK    5  A    between atoms: C_15  and  C_16 
REMARK    6  A    between atoms: C_16  and  C_17 
REMARK    7  A    between atoms: C_17  and  O_18 
REMARK    8  A    between atoms: O_18  and  C_19 
ROOT
HETATM    1  C   UNL     1      24.118  43.089  50.065  1.00  0.00     0.268 C 
HETATM    2  N   UNL     1      25.260  42.560  49.521  1.00  0.00    -0.345 N 
HETATM    3  O   UNL     1      23.431  42.477  50.877  1.00  0.00    -0.266 OA
HETATM    4  H   UNL     1      25.751  43.058  48.793  1.00  0.00     0.163 HD
ENDROOT
BRANCH   2   5
HETATM    5  C   UNL     1      25.648  41.205  49.800  1.00  0.00     0.217 C 
BRANCH   5   6
HETATM    6  C   UNL     1      26.728  41.187  50.869  1.00  0.00    -0.085 C 
BRANCH   6   7
HETATM    7  C   UNL     1      27.655  41.172  51.786  1.00  0.00    -0.078 C 
BRANCH   7   8
HETATM    8  C   UNL     1      28.737  41.155  52.852  1.00  0.00     0.269 C 
BRANCH   8   9
HETATM    9  O   UNL     1      29.522  42.337  52.713  1.00  0.00    -0.339 OA
BRANCH   9  10
HETATM   10  C   UNL     1      29.532  43.203  53.771  1.00  0.00     0.072 A 
HETATM   11  C   UNL     1      30.421  43.179  54.849  1.00  0.00     0.069 A 
HETATM   12  C   UNL     1      30.342  44.106  55.880  1.00  0.00     0.069 A 
HETATM   13  C   UNL     1      29.336  45.094  55.827  1.00  0.00    -0.007 A 
HETATM   14  N   UNL     1      31.223  44.035  56.896  1.00  0.00    -0.260 NA
HETATM   15  C   UNL     1      28.441  45.128  54.747  1.00  0.00     0.016 A 
HETATM   16  C   UNL     1      29.266  46.023  56.873  1.00  0.00     0.015 A 
HETATM   17  C   UNL     1      28.543  44.185  53.727  1.00  0.00     0.038 A 
HETATM   18  C   UNL     1      30.174  45.949  57.922  1.00  0.00     0.020 A 
HETATM   19  C   UNL     1      31.124  44.947  57.887  1.00  0.00     0.117 A 
ENDBRANCH   9  10
ENDBRANCH   8   9
ENDBRANCH   7   8
ENDBRANCH   6   7
ENDBRANCH   5   6
ENDBRANCH   2   5
BRANCH   1  20
HETATM   20  C   UNL     1      23.773  44.421  49.623  1.00  0.00     0.102 A 
HETATM   21  N   UNL     1      24.445  45.523  50.108  1.00  0.00    -0.351 N 
HETATM   22  C   UNL     1      23.968  46.683  49.549  1.00  0.00     0.045 A 
HETATM   23  H   UNL     1      25.197  45.462  50.782  1.00  0.00     0.166 HD
HETATM   24  C   UNL     1      24.372  48.013  49.742  1.00  0.00     0.067 A 
HETATM   25  C   UNL     1      22.934  46.323  48.690  1.00  0.00    -0.007 A 
HETATM   26  C   UNL     1      23.692  49.008  49.030  1.00  0.00     0.070 A 
HETATM   27  C   UNL     1      22.641  48.668  48.176  1.00  0.00     0.038 A 
HETATM   28  C   UNL     1      22.251  47.334  47.993  1.00  0.00     0.016 A 
HETATM   29  C   UNL     1      22.823  44.903  48.739  1.00  0.00     0.049 A 
BRANCH  26  30
HETATM   30  O   UNL     1      23.958  50.351  49.092  1.00  0.00    -0.356 OA
HETATM   31  C   UNL     1      22.853  51.232  48.935  1.00  0.00     0.210 C 
ENDBRANCH  26  30
ENDBRANCH   1  20
TORSDOF 8
ENDMDL
MODEL 8
REMARK VINA RESULT:      -8.2      1.977      2.558
REMARK  8 active torsions:
REMARK  status: ('A' for Active; 'I' for Inactive)
REMARK    1  A    between atoms: O_2  and  C_3 
REMARK    2  A    between atoms: C_11  and  C_12 
REMARK       I    between atoms: C_12  and  N_13 
REMARK    3  A    between atoms: N_13  and  C_14 
REMARK    4  A    between atoms: C_14  and  C_15 
REMARK    5  A    between atoms: C_15  and  C_16 
REMARK    6  A    between atoms: C_16  and  C_17 
REMARK    7  A    between atoms: C_17  and  O_18 
REMARK    8  A    between atoms: O_18  and  C_19 
ROOT
HETATM    1  C   UNL     1      22.447  50.043  49.334  1.00  0.00     0.268 C 
HETATM    2  N   UNL     1      22.989  48.933  48.739  1.00  0.00    -0.345 N 
HETATM    3  O   UNL     1      23.129  50.872  49.929  1.00  0.00    -0.266 OA
HETATM    4  H   UNL     1      22.387  48.232  48.334  1.00  0.00     0.163 HD
ENDROOT
BRANCH   2   5
HETATM    5  C   UNL     1      24.387  48.632  48.881  1.00  0.00     0.217 C 
BRANCH   5   6
HETATM    6  C   UNL     1      24.588  47.633  50.009  1.00  0.00    -0.085 C 
BRANCH   6   7
HETATM    7  C   UNL     1      24.760  46.777  50.977  1.00  0.00    -0.078 C 
BRANCH   7   8
HETATM    8  C   UNL     1      24.962  45.781  52.106  1.00  0.00     0.269 C 
BRANCH   8   9
HETATM    9  O   UNL     1      26.172  45.068  51.863  1.00  0.00    -0.339 OA
BRANCH   9  10
HETATM   10  C   UNL     1      27.092  45.044  52.876  1.00  0.00     0.072 A 
HETATM   11  C   UNL     1      28.077  44.073  53.073  1.00  0.00     0.069 A 
HETATM   12  C   UNL     1      28.963  44.139  54.142  1.00  0.00     0.069 A 
HETATM   13  C   UNL     1      28.857  45.220  55.042  1.00  0.00    -0.007 A 
HETATM   14  N   UNL     1      29.890  43.175  54.286  1.00  0.00    -0.260 NA
HETATM   15  C   UNL     1      27.873  46.202  54.850  1.00  0.00     0.016 A 
HETATM   16  C   UNL     1      29.755  45.275  56.116  1.00  0.00     0.015 A 
HETATM   17  C   UNL     1      26.997  46.110  53.770  1.00  0.00     0.038 A 
HETATM   18  C   UNL     1      30.712  44.280  56.266  1.00  0.00     0.020 A 
HETATM   19  C   UNL     1      30.738  43.261  55.334  1.00  0.00     0.117 A 
ENDBRANCH   9  10
ENDBRANCH   8   9
ENDBRANCH   7   8
ENDBRANCH   6   7
ENDBRANCH   5   6
ENDBRANCH   2   5
BRANCH   1  20
HETATM   20  C   UNL     1      21.013  50.180  49.215  1.00  0.00     0.102 A 
HETATM   21  N   UNL     1      20.239  49.135  48.756  1.00  0.00    -0.351 N 
HETATM   22  C   UNL     1      18.908  49.473  48.734  1.00  0.00     0.045 A 
HETATM   23  H   UNL     1      20.622  48.238  48.484  1.00  0.00     0.166 HD
HETATM   24  C   UNL     1      17.788  48.714  48.360  1.00  0.00     0.067 A 
HETATM   25  C   UNL     1      18.819  50.790  49.171  1.00  0.00    -0.007 A 
HETATM   26  C   UNL     1      16.534  49.328  48.436  1.00  0.00     0.070 A 
HETATM   27  C   UNL     1      16.424  50.655  48.856  1.00  0.00     0.038 A 
HETATM   28  C   UNL     1      17.553  51.398  49.229  1.00  0.00     0.016 A 
HETATM   29  C   UNL     1      20.141  51.223  49.476  1.00  0.00     0.049 A 
BRANCH  26  30
HETATM   30  O   UNL     1      15.338  48.736  48.118  1.00  0.00    -0.356 OA
HETATM   31  C   UNL     1      15.127  48.412  46.750  1.00  0.00     0.210 C 
ENDBRANCH  26  30
ENDBRANCH   1  20
TORSDOF 8
ENDMDL
MODEL 9
REMARK VINA RESULT:      -8.1      5.350      8.895
REMARK  8 active torsions:
REMARK  status: ('A' for Active; 'I' for Inactive)
REMARK    1  A    between atoms: O_2  and  C_3 
REMARK    2  A    between atoms: C_11  and  C_12 
REMARK       I    between atoms: C_12  and  N_13 
REMARK    3  A    between atoms: N_13  and  C_14 
REMARK    4  A    between atoms: C_14  and  C_15 
REMARK    5  A    between atoms: C_15  and  C_16 
REMARK    6  A    between atoms: C_16  and  C_17 
REMARK    7  A    between atoms: C_17  and  O_18 
REMARK    8  A    between atoms: O_18  and  C_19 
ROOT
HETATM    1  C   UNL     1      26.419  44.325  49.801  1.00  0.00     0.268 C 
HETATM    2  N   UNL     1      25.359  44.496  50.656  1.00  0.00    -0.345 N 
HETATM    3  O   UNL     1      26.998  45.269  49.273  1.00  0.00    -0.266 OA
HETATM    4  H   UNL     1      24.856  43.694  51.002  1.00  0.00     0.163 HD
ENDROOT
BRANCH   2   5
HETATM    5  C   UNL     1      24.806  45.802  50.887  1.00  0.00     0.217 C 
BRANCH   5   6
HETATM    6  C   UNL     1      25.561  46.490  52.012  1.00  0.00    -0.085 C 
BRANCH   6   7
HETATM    7  C   UNL     1      26.208  47.080  52.979  1.00  0.00    -0.078 C 
BRANCH   7   8
HETATM    8  C   UNL     1      26.963  47.766  54.104  1.00  0.00     0.269 C 
BRANCH   8   9
HETATM    9  O   UNL     1      26.873  46.948  55.268  1.00  0.00    -0.339 OA
BRANCH   9  10
HETATM   10  C   UNL     1      27.930  46.119  55.528  1.00  0.00     0.072 A 
HETATM   11  C   UNL     1      28.746  46.153  56.661  1.00  0.00     0.069 A 
HETATM   12  C   UNL     1      29.802  45.265  56.826  1.00  0.00     0.069 A 
HETATM   13  C   UNL     1      30.046  44.309  55.818  1.00  0.00    -0.007 A 
HETATM   14  N   UNL     1      30.559  45.345  57.936  1.00  0.00    -0.260 NA
HETATM   15  C   UNL     1      29.229  44.265  54.678  1.00  0.00     0.016 A 
HETATM   16  C   UNL     1      31.113  43.420  55.996  1.00  0.00     0.015 A 
HETATM   17  C   UNL     1      28.177  45.168  54.538  1.00  0.00     0.038 A 
HETATM   18  C   UNL     1      31.896  43.501  57.141  1.00  0.00     0.020 A 
HETATM   19  C   UNL     1      31.580  44.472  58.072  1.00  0.00     0.117 A 
ENDBRANCH   9  10
ENDBRANCH   8   9
ENDBRANCH   7   8
ENDBRANCH   6   7
ENDBRANCH   5   6
ENDBRANCH   2   5
BRANCH   1  20
HETATM   20  C   UNL     1      26.815  42.956  49.562  1.00  0.00     0.102 A 
HETATM   21  N   UNL     1      26.547  42.344  48.355  1.00  0.00    -0.351 N 
HETATM   22  C   UNL     1      27.018  41.054  48.336  1.00  0.00     0.045 A 
HETATM   23  H   UNL     1      26.071  42.807  47.592  1.00  0.00     0.166 HD
HETATM   24  C   UNL     1      26.978  40.091  47.315  1.00  0.00     0.067 A 
HETATM   25  C   UNL     1      27.590  40.814  49.581  1.00  0.00    -0.007 A 
HETATM   26  C   UNL     1      27.542  38.839  47.581  1.00  0.00     0.070 A 
HETATM   27  C   UNL     1      28.106  38.573  48.831  1.00  0.00     0.038 A 
HETATM   28  C   UNL     1      28.140  39.546  49.838  1.00  0.00     0.016 A 
HETATM   29  C   UNL     1      27.463  42.013  50.340  1.00  0.00     0.049 A 
BRANCH  26  30
HETATM   30  O   UNL     1      27.597  37.789  46.702  1.00  0.00    -0.356 OA
HETATM   31  C   UNL     1      28.870  37.194  46.492  1.00  0.00     0.210 C 
ENDBRANCH  26  30
ENDBRANCH   1  20
TORSDOF 8
ENDMDL
MODEL 10
REMARK VINA RESULT:      -8.1      2.236      3.336
REMARK  8 active torsions:
REMARK  status: ('A' for Active; 'I' for Inactive)
REMARK    1  A    between atoms: O_2  and  C_3 
REMARK    2  A    between atoms: C_11  and  C_12 
REMARK       I    between atoms: C_12  and  N_13 
REMARK    3  A    between atoms: N_13  and  C_14 
REMARK    4  A    between atoms: C_14  and  C_15 
REMARK    5  A    between atoms: C_15  and  C_16 
REMARK    6  A    between atoms: C_16  and  C_17 
REMARK    7  A    between atoms: C_17  and  O_18 
REMARK    8  A    between atoms: O_18  and  C_19 
ROOT
HETATM    1  C   UNL     1      22.198  50.886  49.172  1.00  0.00     0.268 C 
HETATM    2  N   UNL     1      22.752  50.289  48.068  1.00  0.00    -0.345 N 
HETATM    3  O   UNL     1      22.860  51.179  50.164  1.00  0.00    -0.266 OA
HETATM    4  H   UNL     1      22.161  49.987  47.308  1.00  0.00     0.163 HD
ENDROOT
BRANCH   2   5
HETATM    5  C   UNL     1      24.128  49.878  48.068  1.00  0.00     0.217 C 
BRANCH   5   6
HETATM    6  C   UNL     1      24.329  48.748  49.064  1.00  0.00    -0.085 C 
BRANCH   6   7
HETATM    7  C   UNL     1      24.503  47.778  49.918  1.00  0.00    -0.078 C 
BRANCH   7   8
HETATM    8  C   UNL     1      24.704  46.648  50.913  1.00  0.00     0.269 C 
BRANCH   8   9
HETATM    9  O   UNL     1      25.293  47.189  52.093  1.00  0.00    -0.339 OA
BRANCH   9  10
HETATM   10  C   UNL     1      26.224  46.417  52.732  1.00  0.00     0.072 A 
HETATM   11  C   UNL     1      26.782  45.230  52.252  1.00  0.00     0.069 A 
HETATM   12  C   UNL     1      27.720  44.515  52.986  1.00  0.00     0.069 A 
HETATM   13  C   UNL     1      28.113  45.012  54.247  1.00  0.00    -0.007 A 
HETATM   14  N   UNL     1      28.223  43.375  52.477  1.00  0.00    -0.260 NA
HETATM   15  C   UNL     1      27.561  46.205  54.736  1.00  0.00     0.016 A 
HETATM   16  C   UNL     1      29.060  44.282  54.978  1.00  0.00     0.015 A 
HETATM   17  C   UNL     1      26.621  46.901  53.978  1.00  0.00     0.038 A 
HETATM   18  C   UNL     1      29.578  43.105  54.454  1.00  0.00     0.020 A 
HETATM   19  C   UNL     1      29.133  42.699  53.211  1.00  0.00     0.117 A 
ENDBRANCH   9  10
ENDBRANCH   8   9
ENDBRANCH   7   8
ENDBRANCH   6   7
ENDBRANCH   5   6
ENDBRANCH   2   5
BRANCH   1  20
HETATM   20  C   UNL     1      20.780  51.152  49.095  1.00  0.00     0.102 A 
HETATM   21  N   UNL     1      20.131  51.177  47.879  1.00  0.00    -0.351 N 
HETATM   22  C   UNL     1      18.791  51.435  48.035  1.00  0.00     0.045 A 
HETATM   23  H   UNL     1      20.599  51.016  46.996  1.00  0.00     0.166 HD
HETATM   24  C   UNL     1      17.770  51.529  47.076  1.00  0.00     0.067 A 
HETATM   25  C   UNL     1      18.568  51.606  49.397  1.00  0.00    -0.007 A 
HETATM   26  C   UNL     1      16.477  51.811  47.530  1.00  0.00     0.070 A 
HETATM   27  C   UNL     1      16.236  52.002  48.892  1.00  0.00     0.038 A 
HETATM   28  C   UNL     1      17.266  51.902  49.837  1.00  0.00     0.016 A 
HETATM   29  C   UNL     1      19.819  51.422  50.054  1.00  0.00     0.049 A 
BRANCH  26  30
HETATM   30  O   UNL     1      15.365  51.930  46.737  1.00  0.00    -0.356 OA
HETATM   31  C   UNL     1      15.337  53.029  45.835  1.00  0.00     0.210 C 
ENDBRANCH  26  30
ENDBRANCH   1  20
TORSDOF 8
ENDMDL
