MODEL 1
REMARK VINA RESULT:      -8.9      0.000      0.000
REMARK  7 active torsions:
REMARK  status: ('A' for Active; 'I' for Inactive)
REMARK    1  A    between atoms: O_2  and  C_3 
REMARK    2  A    between atoms: C_4  and  O_5 
REMARK    3  A    between atoms: C_9  and  C_10 
REMARK    4  A    between atoms: C_11  and  C_12 
REMARK       I    between atoms: C_12  and  N_13 
REMARK    5  A    between atoms: N_13  and  C_14 
REMARK    6  A    between atoms: C_14  and  C_15 
REMARK    7  A    between atoms: C_15  and  C_16 
ROOT
HETATM    1  C   UNL     1      24.624  49.099  48.756  1.00  0.00     0.040 C 
HETATM    2  C   UNL     1      25.610  48.463  49.423  1.00  0.00     0.113 C 
HETATM    3  C   UNL     1      26.962  48.848  49.194  1.00  0.00     0.105 C 
HETATM    4  N   UNL     1      28.070  49.124  48.991  1.00  0.00    -0.191 NA
ENDROOT
BRANCH   2   5
HETATM    5  C   UNL     1      25.353  47.375  50.415  1.00  0.00     0.262 C 
HETATM    6  N   UNL     1      25.527  46.093  49.938  1.00  0.00    -0.356 N 
HETATM    7  H   UNL     1      25.947  45.934  49.029  1.00  0.00     0.162 HD
HETATM    8  O   UNL     1      24.994  47.613  51.563  1.00  0.00    -0.267 OA
BRANCH   6   9
HETATM    9  C   UNL     1      25.359  44.944  50.816  1.00  0.00     0.127 C 
BRANCH   9  10
HETATM   10  C   UNL     1      26.684  44.229  51.080  1.00  0.00     0.060 C 
BRANCH  10  11
HETATM   11  C   UNL     1      27.218  44.505  52.448  1.00  0.00    -0.029 A 
HETATM   12  C   UNL     1      28.401  43.953  53.036  1.00  0.00    -0.002 A 
HETATM   13  C   UNL     1      28.521  44.492  54.318  1.00  0.00     0.042 A 
HETATM   14  C   UNL     1      29.386  43.045  52.596  1.00  0.00     0.014 A 
HETATM   15  C   UNL     1      29.575  44.169  55.181  1.00  0.00     0.030 A 
HETATM   16  N   UNL     1      27.451  45.335  54.505  1.00  0.00    -0.365 N 
HETATM   17  C   UNL     1      30.539  43.268  54.719  1.00  0.00     0.002 A 
HETATM   18  C   UNL     1      30.447  42.712  53.446  1.00  0.00     0.001 A 
HETATM   19  H   UNL     1      27.280  45.864  55.349  1.00  0.00     0.165 HD
HETATM   20  C   UNL     1      26.660  45.351  53.388  1.00  0.00     0.096 A 
ENDBRANCH  10  11
ENDBRANCH   9  10
ENDBRANCH   6   9
ENDBRANCH   2   5
BRANCH   1  21
HETATM   21  C   UNL     1      23.172  48.858  48.799  1.00  0.00    -0.030 A 
HETATM   22  C   UNL     1      22.340  49.877  49.284  1.00  0.00     0.033 A 
HETATM   23  C   UNL     1      20.952  49.716  49.297  1.00  0.00     0.047 A 
HETATM   24  C   UNL     1      20.390  48.531  48.828  1.00  0.00     0.116 A 
HETATM   25 BR   UNL     1      19.878  51.130  49.958  1.00  0.00    -0.048 Br
HETATM   26  C   UNL     1      21.206  47.499  48.349  1.00  0.00     0.103 A 
HETATM   27  C   UNL     1      22.590  47.681  48.302  1.00  0.00     0.051 A 
BRANCH  24  28
HETATM   28  O   UNL     1      19.031  48.349  48.836  1.00  0.00    -0.357 OA
HETATM   29  H   UNL     1      18.714  48.723  47.991  1.00  0.00     0.218 HD
ENDBRANCH  24  28
BRANCH  26  30
HETATM   30  O   UNL     1      20.543  46.373  47.924  1.00  0.00    -0.353 OA
HETATM   31  C   UNL     1      20.865  45.175  48.627  1.00  0.00     0.210 C 
ENDBRANCH  26  30
ENDBRANCH   1  21
TORSDOF 7
ENDMDL
MODEL 2
REMARK VINA RESULT:      -8.8      1.291      2.099
REMARK  7 active torsions:
REMARK  status: ('A' for Active; 'I' for Inactive)
REMARK    1  A    between atoms: O_2  and  C_3 
REMARK    2  A    between atoms: C_4  and  O_5 
REMARK    3  A    between atoms: C_9  and  C_10 
REMARK    4  A    between atoms: C_11  and  C_12 
REMARK       I    between atoms: C_12  and  N_13 
REMARK    5  A    between atoms: N_13  and  C_14 
REMARK    6  A    between atoms: C_14  and  C_15 
REMARK    7  A    between atoms: C_15  and  C_16 
ROOT
HETATM    1  C   UNL     1      24.619  49.263  48.696  1.00  0.00     0.040 C 
HETATM    2  C   UNL     1      25.589  48.579  49.337  1.00  0.00     0.113 C 
HETATM    3  C   UNL     1      26.949  48.937  49.120  1.00  0.00     0.105 C 
HETATM    4  N   UNL     1      28.064  49.193  48.925  1.00  0.00    -0.191 NA
ENDROOT
BRANCH   2   5
HETATM    5  C   UNL     1      25.305  47.463  50.291  1.00  0.00     0.262 C 
HETATM    6  N   UNL     1      25.556  46.197  49.802  1.00  0.00    -0.356 N 
HETATM    7  H   UNL     1      26.041  46.071  48.922  1.00  0.00     0.162 HD
HETATM    8  O   UNL     1      24.862  47.664  51.416  1.00  0.00    -0.267 OA
BRANCH   6   9
HETATM    9  C   UNL     1      25.371  45.026  50.646  1.00  0.00     0.127 C 
BRANCH   9  10
HETATM   10  C   UNL     1      26.692  44.309  50.926  1.00  0.00     0.060 C 
BRANCH  10  11
HETATM   11  C   UNL     1      27.189  44.552  52.314  1.00  0.00    -0.029 A 
HETATM   12  C   UNL     1      28.355  43.983  52.921  1.00  0.00    -0.002 A 
HETATM   13  C   UNL     1      28.442  44.492  54.217  1.00  0.00     0.042 A 
HETATM   14  C   UNL     1      29.349  43.082  52.487  1.00  0.00     0.014 A 
HETATM   15  C   UNL     1      29.471  44.147  55.101  1.00  0.00     0.030 A 
HETATM   16  N   UNL     1      27.369  45.334  54.395  1.00  0.00    -0.365 N 
HETATM   17  C   UNL     1      30.445  43.254  54.645  1.00  0.00     0.002 A 
HETATM   18  C   UNL     1      30.386  42.727  53.358  1.00  0.00     0.001 A 
HETATM   19  H   UNL     1      27.177  45.843  55.246  1.00  0.00     0.165 HD
HETATM   20  C   UNL     1      26.609  45.378  53.258  1.00  0.00     0.096 A 
ENDBRANCH  10  11
ENDBRANCH   9  10
ENDBRANCH   6   9
ENDBRANCH   2   5
BRANCH   1  21
HETATM   21  C   UNL     1      23.160  49.058  48.734  1.00  0.00    -0.030 A 
HETATM   22  C   UNL     1      22.637  47.880  48.182  1.00  0.00     0.033 A 
HETATM   23  C   UNL     1      21.265  47.617  48.239  1.00  0.00     0.047 A 
HETATM   24  C   UNL     1      20.411  48.535  48.846  1.00  0.00     0.116 A 
HETATM   25 BR   UNL     1      20.617  46.006  47.481  1.00  0.00    -0.048 Br
HETATM   26  C   UNL     1      20.915  49.719  49.395  1.00  0.00     0.103 A 
HETATM   27  C   UNL     1      22.291  49.960  49.369  1.00  0.00     0.051 A 
BRANCH  24  28
HETATM   28  O   UNL     1      19.062  48.298  48.910  1.00  0.00    -0.357 OA
HETATM   29  H   UNL     1      18.969  47.446  49.378  1.00  0.00     0.218 HD
ENDBRANCH  24  28
BRANCH  26  30
HETATM   30  O   UNL     1      19.979  50.554  49.957  1.00  0.00    -0.353 OA
HETATM   31  C   UNL     1      19.676  51.725  49.202  1.00  0.00     0.210 C 
ENDBRANCH  26  30
ENDBRANCH   1  21
TORSDOF 7
ENDMDL
MODEL 3
REMARK VINA RESULT:      -8.7      3.528      8.872
REMARK  7 active torsions:
REMARK  status: ('A' for Active; 'I' for Inactive)
REMARK    1  A    between atoms: O_2  and  C_3 
REMARK    2  A    between atoms: C_4  and  O_5 
REMARK    3  A    between atoms: C_9  and  C_10 
REMARK    4  A    between atoms: C_11  and  C_12 
REMARK       I    between atoms: C_12  and  N_13 
REMARK    5  A    between atoms: N_13  and  C_14 
REMARK    6  A    between atoms: C_14  and  C_15 
REMARK    7  A    between atoms: C_15  and  C_16 
ROOT
HETATM    1  C   UNL     1      26.034  47.875  49.896  1.00  0.00     0.040 C 
HETATM    2  C   UNL     1      25.184  48.621  49.161  1.00  0.00     0.113 C 
HETATM    3  C   UNL     1      25.713  49.568  48.238  1.00  0.00     0.105 C 
HETATM    4  N   UNL     1      26.128  50.369  47.509  1.00  0.00    -0.191 NA
ENDROOT
BRANCH   2   5
HETATM    5  C   UNL     1      23.698  48.491  49.252  1.00  0.00     0.262 C 
HETATM    6  N   UNL     1      23.151  47.478  48.492  1.00  0.00    -0.356 N 
HETATM    7  H   UNL     1      23.746  46.793  48.042  1.00  0.00     0.162 HD
HETATM    8  O   UNL     1      23.019  49.246  49.939  1.00  0.00    -0.267 OA
BRANCH   6   9
HETATM    9  C   UNL     1      21.721  47.210  48.532  1.00  0.00     0.127 C 
BRANCH   9  10
HETATM   10  C   UNL     1      20.930  48.206  47.684  1.00  0.00     0.060 C 
BRANCH  10  11
HETATM   11  C   UNL     1      19.712  48.713  48.387  1.00  0.00    -0.029 A 
HETATM   12  C   UNL     1      19.323  50.082  48.553  1.00  0.00    -0.002 A 
HETATM   13  C   UNL     1      18.121  50.091  49.260  1.00  0.00     0.042 A 
HETATM   14  C   UNL     1      19.881  51.316  48.164  1.00  0.00     0.014 A 
HETATM   15  C   UNL     1      17.448  51.271  49.598  1.00  0.00     0.030 A 
HETATM   16  N   UNL     1      17.793  48.781  49.520  1.00  0.00    -0.365 N 
HETATM   17  C   UNL     1      18.021  52.481  49.199  1.00  0.00     0.002 A 
HETATM   18  C   UNL     1      19.221  52.506  48.493  1.00  0.00     0.001 A 
HETATM   19  H   UNL     1      16.967  48.486  50.022  1.00  0.00     0.165 HD
HETATM   20  C   UNL     1      18.743  47.943  49.000  1.00  0.00     0.096 A 
ENDBRANCH  10  11
ENDBRANCH   9  10
ENDBRANCH   6   9
ENDBRANCH   2   5
BRANCH   1  21
HETATM   21  C   UNL     1      25.729  46.867  50.927  1.00  0.00    -0.030 A 
HETATM   22  C   UNL     1      25.327  45.589  50.513  1.00  0.00     0.033 A 
HETATM   23  C   UNL     1      25.076  44.585  51.453  1.00  0.00     0.047 A 
HETATM   24  C   UNL     1      25.222  44.857  52.811  1.00  0.00     0.116 A 
HETATM   25 BR   UNL     1      24.542  42.876  50.834  1.00  0.00    -0.048 Br
HETATM   26  C   UNL     1      25.614  46.130  53.242  1.00  0.00     0.103 A 
HETATM   27  C   UNL     1      25.901  47.119  52.298  1.00  0.00     0.051 A 
BRANCH  24  28
HETATM   28  O   UNL     1      24.977  43.888  53.749  1.00  0.00    -0.357 OA
HETATM   29  H   UNL     1      24.148  43.456  53.466  1.00  0.00     0.218 HD
ENDBRANCH  24  28
BRANCH  26  30
HETATM   30  O   UNL     1      25.714  46.286  54.603  1.00  0.00    -0.353 OA
HETATM   31  C   UNL     1      26.990  46.711  55.076  1.00  0.00     0.210 C 
ENDBRANCH  26  30
ENDBRANCH   1  21
TORSDOF 7
ENDMDL
MODEL 4
REMARK VINA RESULT:      -8.6      3.985      5.126
REMARK  7 active torsions:
REMARK  status: ('A' for Active; 'I' for Inactive)
REMARK    1  A    between atoms: O_2  and  C_3 
REMARK    2  A    between atoms: C_4  and  O_5 
REMARK    3  A    between atoms: C_9  and  C_10 
REMARK    4  A    between atoms: C_11  and  C_12 
REMARK       I    between atoms: C_12  and  N_13 
REMARK    5  A    between atoms: N_13  and  C_14 
REMARK    6  A    between atoms: C_14  and  C_15 
REMARK    7  A    between atoms: C_15  and  C_16 
ROOT
HETATM    1  C   UNL     1      26.932  46.128  49.379  1.00  0.00     0.040 C 
HETATM    2  C   UNL     1      26.648  47.306  49.973  1.00  0.00     0.113 C 
HETATM    3  C   UNL     1      27.179  48.506  49.423  1.00  0.00     0.105 C 
HETATM    4  N   UNL     1      27.634  49.489  49.008  1.00  0.00    -0.191 NA
ENDROOT
BRANCH   2   5
HETATM    5  C   UNL     1      25.778  47.418  51.184  1.00  0.00     0.262 C 
HETATM    6  N   UNL     1      26.405  47.150  52.383  1.00  0.00    -0.356 N 
HETATM    7  H   UNL     1      27.412  47.043  52.425  1.00  0.00     0.162 HD
HETATM    8  O   UNL     1      24.589  47.708  51.107  1.00  0.00    -0.267 OA
BRANCH   6   9
HETATM    9  C   UNL     1      25.685  47.275  53.642  1.00  0.00     0.127 C 
BRANCH   9  10
HETATM   10  C   UNL     1      26.564  46.919  54.841  1.00  0.00     0.060 C 
BRANCH  10  11
HETATM   11  C   UNL     1      27.150  45.549  54.732  1.00  0.00    -0.029 A 
HETATM   12  C   UNL     1      28.465  45.143  55.128  1.00  0.00    -0.002 A 
HETATM   13  C   UNL     1      28.581  43.779  54.855  1.00  0.00     0.042 A 
HETATM   14  C   UNL     1      29.570  45.808  55.698  1.00  0.00     0.014 A 
HETATM   15  C   UNL     1      29.744  43.048  55.123  1.00  0.00     0.030 A 
HETATM   16  N   UNL     1      27.387  43.372  54.309  1.00  0.00    -0.365 N 
HETATM   17  C   UNL     1      30.824  43.731  55.690  1.00  0.00     0.002 A 
HETATM   18  C   UNL     1      30.741  45.092  55.973  1.00  0.00     0.001 A 
HETATM   19  H   UNL     1      27.186  42.427  54.013  1.00  0.00     0.165 HD
HETATM   20  C   UNL     1      26.518  44.427  54.230  1.00  0.00     0.096 A 
ENDBRANCH  10  11
ENDBRANCH   9  10
ENDBRANCH   6   9
ENDBRANCH   2   5
BRANCH   1  21
HETATM   21  C   UNL     1      26.530  44.768  49.778  1.00  0.00    -0.030 A 
HETATM   22  C   UNL     1      27.481  43.946  50.399  1.00  0.00     0.033 A 
HETATM   23  C   UNL     1      27.134  42.666  50.841  1.00  0.00     0.047 A 
HETATM   24  C   UNL     1      25.833  42.202  50.660  1.00  0.00     0.116 A 
HETATM   25 BR   UNL     1      28.460  41.604  51.680  1.00  0.00    -0.048 Br
HETATM   26  C   UNL     1      24.873  43.006  50.033  1.00  0.00     0.103 A 
HETATM   27  C   UNL     1      25.216  44.298  49.627  1.00  0.00     0.051 A 
BRANCH  24  28
HETATM   28  O   UNL     1      25.472  40.949  51.082  1.00  0.00    -0.357 OA
HETATM   29  H   UNL     1      25.995  40.786  51.891  1.00  0.00     0.218 HD
ENDBRANCH  24  28
BRANCH  26  30
HETATM   30  O   UNL     1      23.629  42.440  49.898  1.00  0.00    -0.353 OA
HETATM   31  C   UNL     1      23.219  42.185  48.556  1.00  0.00     0.210 C 
ENDBRANCH  26  30
ENDBRANCH   1  21
TORSDOF 7
ENDMDL
MODEL 5
REMARK VINA RESULT:      -8.5      4.012      5.935
REMARK  7 active torsions:
REMARK  status: ('A' for Active; 'I' for Inactive)
REMARK    1  A    between atoms: O_2  and  C_3 
REMARK    2  A    between atoms: C_4  and  O_5 
REMARK    3  A    between atoms: C_9  and  C_10 
REMARK    4  A    between atoms: C_11  and  C_12 
REMARK       I    between atoms: C_12  and  N_13 
REMARK    5  A    between atoms: N_13  and  C_14 
REMARK    6  A    between atoms: C_14  and  C_15 
REMARK    7  A    between atoms: C_15  and  C_16 
ROOT
HETATM    1  C   UNL     1      24.942  44.674  49.420  1.00  0.00     0.040 C 
HETATM    2  C   UNL     1      25.158  45.297  50.597  1.00  0.00     0.113 C 
HETATM    3  C   UNL     1      25.035  46.714  50.663  1.00  0.00     0.105 C 
HETATM    4  N   UNL     1      24.976  47.871  50.726  1.00  0.00    -0.191 NA
ENDROOT
BRANCH   2   5
HETATM    5  C   UNL     1      25.503  44.566  51.854  1.00  0.00     0.262 C 
HETATM    6  N   UNL     1      26.853  44.382  52.072  1.00  0.00    -0.356 N 
HETATM    7  H   UNL     1      27.538  44.851  51.491  1.00  0.00     0.162 HD
HETATM    8  O   UNL     1      24.644  44.147  52.621  1.00  0.00    -0.267 OA
BRANCH   6   9
HETATM    9  C   UNL     1      27.327  43.731  53.284  1.00  0.00     0.127 C 
BRANCH   9  10
HETATM   10  C   UNL     1      28.808  44.010  53.541  1.00  0.00     0.060 C 
BRANCH  10  11
HETATM   11  C   UNL     1      29.035  44.764  54.811  1.00  0.00    -0.029 A 
HETATM   12  C   UNL     1      30.002  44.467  55.826  1.00  0.00    -0.002 A 
HETATM   13  C   UNL     1      29.868  45.433  56.824  1.00  0.00     0.042 A 
HETATM   14  C   UNL     1      30.981  43.467  55.987  1.00  0.00     0.014 A 
HETATM   15  C   UNL     1      30.665  45.450  57.975  1.00  0.00     0.030 A 
HETATM   16  N   UNL     1      28.858  46.281  56.436  1.00  0.00    -0.365 N 
HETATM   17  C   UNL     1      31.630  44.448  58.110  1.00  0.00     0.002 A 
HETATM   18  C   UNL     1      31.787  43.469  57.132  1.00  0.00     0.001 A 
HETATM   19  H   UNL     1      28.543  47.078  56.971  1.00  0.00     0.165 HD
HETATM   20  C   UNL     1      28.349  45.889  55.227  1.00  0.00     0.096 A 
ENDBRANCH  10  11
ENDBRANCH   9  10
ENDBRANCH   6   9
ENDBRANCH   2   5
BRANCH   1  21
HETATM   21  C   UNL     1      25.041  43.240  49.099  1.00  0.00    -0.030 A 
HETATM   22  C   UNL     1      23.941  42.613  48.495  1.00  0.00     0.033 A 
HETATM   23  C   UNL     1      24.006  41.267  48.125  1.00  0.00     0.047 A 
HETATM   24  C   UNL     1      25.170  40.540  48.362  1.00  0.00     0.116 A 
HETATM   25 BR   UNL     1      22.491  40.476  47.306  1.00  0.00    -0.048 Br
HETATM   26  C   UNL     1      26.274  41.148  48.972  1.00  0.00     0.103 A 
HETATM   27  C   UNL     1      26.218  42.503  49.305  1.00  0.00     0.051 A 
BRANCH  24  28
HETATM   28  O   UNL     1      25.253  39.217  48.011  1.00  0.00    -0.357 OA
HETATM   29  H   UNL     1      25.923  39.179  47.300  1.00  0.00     0.218 HD
ENDBRANCH  24  28
BRANCH  26  30
HETATM   30  O   UNL     1      27.362  40.331  49.167  1.00  0.00    -0.353 OA
HETATM   31  C   UNL     1      28.187  40.671  50.279  1.00  0.00     0.210 C 
ENDBRANCH  26  30
ENDBRANCH   1  21
TORSDOF 7
ENDMDL
MODEL 6
REMARK VINA RESULT:      -8.3      2.285      3.099
REMARK  7 active torsions:
REMARK  status: ('A' for Active; 'I' for Inactive)
REMARK    1  A    between atoms: O_2  and  C_3 
REMARK    2  A    between atoms: C_4  and  O_5 
REMARK    3  A    between atoms: C_9  and  C_10 
REMARK    4  A    between atoms: C_11  and  C_12 
REMARK       I    between atoms: C_12  and  N_13 
REMARK    5  A    between atoms: N_13  and  C_14 
REMARK    6  A    between atoms: C_14  and  C_15 
REMARK    7  A    between atoms: C_15  and  C_16 
ROOT
HETATM    1  C   UNL     1      22.718  50.581  48.059  1.00  0.00     0.040 C 
HETATM    2  C   UNL     1      23.711  49.682  48.226  1.00  0.00     0.113 C 
HETATM    3  C   UNL     1      25.046  50.056  47.905  1.00  0.00     0.105 C 
HETATM    4  N   UNL     1      26.134  50.333  47.613  1.00  0.00    -0.191 NA
ENDROOT
BRANCH   2   5
HETATM    5  C   UNL     1      23.480  48.302  48.755  1.00  0.00     0.262 C 
HETATM    6  N   UNL     1      24.426  47.854  49.653  1.00  0.00    -0.356 N 
HETATM    7  H   UNL     1      25.124  48.487  50.026  1.00  0.00     0.162 HD
HETATM    8  O   UNL     1      22.528  47.619  48.398  1.00  0.00    -0.267 OA
BRANCH   6   9
HETATM    9  C   UNL     1      24.292  46.549  50.283  1.00  0.00     0.127 C 
BRANCH   9  10
HETATM   10  C   UNL     1      25.011  46.488  51.631  1.00  0.00     0.060 C 
BRANCH  10  11
HETATM   11  C   UNL     1      25.541  45.124  51.934  1.00  0.00    -0.029 A 
HETATM   12  C   UNL     1      26.566  44.791  52.877  1.00  0.00    -0.002 A 
HETATM   13  C   UNL     1      26.734  43.406  52.839  1.00  0.00     0.042 A 
HETATM   14  C   UNL     1      27.367  45.539  53.764  1.00  0.00     0.014 A 
HETATM   15  C   UNL     1      27.661  42.731  53.642  1.00  0.00     0.030 A 
HETATM   16  N   UNL     1      25.851  42.916  51.906  1.00  0.00    -0.365 N 
HETATM   17  C   UNL     1      28.441  43.496  54.514  1.00  0.00     0.002 A 
HETATM   18  C   UNL     1      28.299  44.880  54.576  1.00  0.00     0.001 A 
HETATM   19  H   UNL     1      25.754  41.939  51.667  1.00  0.00     0.165 HD
HETATM   20  C   UNL     1      25.128  43.940  51.355  1.00  0.00     0.096 A 
ENDBRANCH  10  11
ENDBRANCH   9  10
ENDBRANCH   6   9
ENDBRANCH   2   5
BRANCH   1  21
HETATM   21  C   UNL     1      21.272  50.418  48.288  1.00  0.00    -0.030 A 
HETATM   22  C   UNL     1      20.423  50.347  47.175  1.00  0.00     0.033 A 
HETATM   23  C   UNL     1      19.051  50.142  47.339  1.00  0.00     0.047 A 
HETATM   24  C   UNL     1      18.521  50.011  48.621  1.00  0.00     0.116 A 
HETATM   25 BR   UNL     1      17.954  50.049  45.797  1.00  0.00    -0.048 Br
HETATM   26  C   UNL     1      19.353  50.087  49.744  1.00  0.00     0.103 A 
HETATM   27  C   UNL     1      20.729  50.254  49.573  1.00  0.00     0.051 A 
BRANCH  24  28
HETATM   28  O   UNL     1      17.177  49.813  48.806  1.00  0.00    -0.357 OA
HETATM   29  H   UNL     1      16.974  50.203  49.678  1.00  0.00     0.218 HD
ENDBRANCH  24  28
BRANCH  26  30
HETATM   30  O   UNL     1      18.719  49.956  50.956  1.00  0.00    -0.353 OA
HETATM   31  C   UNL     1      18.655  48.627  51.470  1.00  0.00     0.210 C 
ENDBRANCH  26  30
ENDBRANCH   1  21
TORSDOF 7
ENDMDL
MODEL 7
REMARK VINA RESULT:      -8.1      3.820      9.421
REMARK  7 active torsions:
REMARK  status: ('A' for Active; 'I' for Inactive)
REMARK    1  A    between atoms: O_2  and  C_3 
REMARK    2  A    between atoms: C_4  and  O_5 
REMARK    3  A    between atoms: C_9  and  C_10 
REMARK    4  A    between atoms: C_11  and  C_12 
REMARK       I    between atoms: C_12  and  N_13 
REMARK    5  A    between atoms: N_13  and  C_14 
REMARK    6  A    between atoms: C_14  and  C_15 
REMARK    7  A    between atoms: C_15  and  C_16 
ROOT
HETATM    1  C   UNL     1      25.909  47.878  49.717  1.00  0.00     0.040 C 
HETATM    2  C   UNL     1      25.065  48.725  49.092  1.00  0.00     0.113 C 
HETATM    3  C   UNL     1      25.591  49.670  48.166  1.00  0.00     0.105 C 
HETATM    4  N   UNL     1      26.008  50.470  47.436  1.00  0.00    -0.191 NA
ENDROOT
BRANCH   2   5
HETATM    5  C   UNL     1      23.586  48.709  49.310  1.00  0.00     0.262 C 
HETATM    6  N   UNL     1      23.008  49.948  49.496  1.00  0.00    -0.356 N 
HETATM    7  H   UNL     1      23.542  50.795  49.337  1.00  0.00     0.162 HD
HETATM    8  O   UNL     1      22.943  47.666  49.338  1.00  0.00    -0.267 OA
BRANCH   6   9
HETATM    9  C   UNL     1      21.569  50.078  49.667  1.00  0.00     0.127 C 
BRANCH   9  10
HETATM   10  C   UNL     1      20.986  51.182  48.785  1.00  0.00     0.060 C 
BRANCH  10  11
HETATM   11  C   UNL     1      19.615  50.853  48.290  1.00  0.00    -0.029 A 
HETATM   12  C   UNL     1      18.378  51.402  48.759  1.00  0.00    -0.002 A 
HETATM   13  C   UNL     1      17.354  50.821  48.011  1.00  0.00     0.042 A 
HETATM   14  C   UNL     1      18.033  52.342  49.751  1.00  0.00     0.014 A 
HETATM   15  C   UNL     1      16.003  51.132  48.204  1.00  0.00     0.030 A 
HETATM   16  N   UNL     1      17.942  49.950  47.125  1.00  0.00    -0.365 N 
HETATM   17  C   UNL     1      15.688  52.069  49.192  1.00  0.00     0.002 A 
HETATM   18  C   UNL     1      16.687  52.666  49.957  1.00  0.00     0.001 A 
HETATM   19  H   UNL     1      17.437  49.387  46.455  1.00  0.00     0.165 HD
HETATM   20  C   UNL     1      19.302  49.961  47.283  1.00  0.00     0.096 A 
ENDBRANCH  10  11
ENDBRANCH   9  10
ENDBRANCH   6   9
ENDBRANCH   2   5
BRANCH   1  21
HETATM   21  C   UNL     1      25.610  46.849  50.728  1.00  0.00    -0.030 A 
HETATM   22  C   UNL     1      26.060  47.051  52.040  1.00  0.00     0.033 A 
HETATM   23  C   UNL     1      25.757  46.128  53.045  1.00  0.00     0.047 A 
HETATM   24  C   UNL     1      25.005  44.996  52.740  1.00  0.00     0.116 A 
HETATM   25 BR   UNL     1      26.386  46.458  54.801  1.00  0.00    -0.048 Br
HETATM   26  C   UNL     1      24.555  44.775  51.433  1.00  0.00     0.103 A 
HETATM   27  C   UNL     1      24.828  45.719  50.440  1.00  0.00     0.051 A 
BRANCH  24  28
HETATM   28  O   UNL     1      24.699  44.076  53.709  1.00  0.00    -0.357 OA
HETATM   29  H   UNL     1      24.107  44.541  54.331  1.00  0.00     0.218 HD
ENDBRANCH  24  28
BRANCH  26  30
HETATM   30  O   UNL     1      23.833  43.620  51.246  1.00  0.00    -0.353 OA
HETATM   31  C   UNL     1      24.414  42.678  50.347  1.00  0.00     0.210 C 
ENDBRANCH  26  30
ENDBRANCH   1  21
TORSDOF 7
ENDMDL
MODEL 8
REMARK VINA RESULT:      -7.9      6.310      8.164
REMARK  7 active torsions:
REMARK  status: ('A' for Active; 'I' for Inactive)
REMARK    1  A    between atoms: O_2  and  C_3 
REMARK    2  A    between atoms: C_4  and  O_5 
REMARK    3  A    between atoms: C_9  and  C_10 
REMARK    4  A    between atoms: C_11  and  C_12 
REMARK       I    between atoms: C_12  and  N_13 
REMARK    5  A    between atoms: N_13  and  C_14 
REMARK    6  A    between atoms: C_14  and  C_15 
REMARK    7  A    between atoms: C_15  and  C_16 
ROOT
HETATM    1  C   UNL     1      28.268  38.235  48.388  1.00  0.00     0.040 C 
HETATM    2  C   UNL     1      28.718  38.640  49.594  1.00  0.00     0.113 C 
HETATM    3  C   UNL     1      29.536  37.761  50.359  1.00  0.00     0.105 C 
HETATM    4  N   UNL     1      30.173  37.043  51.010  1.00  0.00    -0.191 NA
ENDROOT
BRANCH   2   5
HETATM    5  C   UNL     1      28.413  39.987  50.166  1.00  0.00     0.262 C 
HETATM    6  N   UNL     1      28.159  40.003  51.522  1.00  0.00    -0.356 N 
HETATM    7  H   UNL     1      28.325  39.179  52.088  1.00  0.00     0.162 HD
HETATM    8  O   UNL     1      28.376  40.996  49.473  1.00  0.00    -0.267 OA
BRANCH   6   9
HETATM    9  C   UNL     1      27.900  41.257  52.214  1.00  0.00     0.127 C 
BRANCH   9  10
HETATM   10  C   UNL     1      29.173  41.847  52.821  1.00  0.00     0.060 C 
BRANCH  10  11
HETATM   11  C   UNL     1      28.919  43.132  53.540  1.00  0.00    -0.029 A 
HETATM   12  C   UNL     1      29.621  43.629  54.686  1.00  0.00    -0.002 A 
HETATM   13  C   UNL     1      29.060  44.862  55.017  1.00  0.00     0.042 A 
HETATM   14  C   UNL     1      30.686  43.144  55.473  1.00  0.00     0.014 A 
HETATM   15  C   UNL     1      29.509  45.636  56.093  1.00  0.00     0.030 A 
HETATM   16  N   UNL     1      28.053  45.106  54.112  1.00  0.00    -0.365 N 
HETATM   17  C   UNL     1      30.568  45.134  56.856  1.00  0.00     0.002 A 
HETATM   18  C   UNL     1      31.149  43.905  56.553  1.00  0.00     0.001 A 
HETATM   19  H   UNL     1      27.472  45.932  54.112  1.00  0.00     0.165 HD
HETATM   20  C   UNL     1      27.959  44.072  53.220  1.00  0.00     0.096 A 
ENDBRANCH  10  11
ENDBRANCH   9  10
ENDBRANCH   6   9
ENDBRANCH   2   5
BRANCH   1  21
HETATM   21  C   UNL     1      27.391  38.944  47.440  1.00  0.00    -0.030 A 
HETATM   22  C   UNL     1      27.966  39.511  46.294  1.00  0.00     0.033 A 
HETATM   23  C   UNL     1      27.168  40.149  45.340  1.00  0.00     0.047 A 
HETATM   24  C   UNL     1      25.790  40.227  45.532  1.00  0.00     0.116 A 
HETATM   25 BR   UNL     1      28.001  40.891  43.808  1.00  0.00    -0.048 Br
HETATM   26  C   UNL     1      25.201  39.673  46.675  1.00  0.00     0.103 A 
HETATM   27  C   UNL     1      25.998  39.003  47.606  1.00  0.00     0.051 A 
BRANCH  24  28
HETATM   28  O   UNL     1      24.989  40.851  44.611  1.00  0.00    -0.357 OA
HETATM   29  H   UNL     1      25.586  41.432  44.100  1.00  0.00     0.218 HD
ENDBRANCH  24  28
BRANCH  26  30
HETATM   30  O   UNL     1      23.837  39.820  46.763  1.00  0.00    -0.353 OA
HETATM   31  C   UNL     1      23.387  40.741  47.755  1.00  0.00     0.210 C 
ENDBRANCH  26  30
ENDBRANCH   1  21
TORSDOF 7
ENDMDL
MODEL 9
REMARK VINA RESULT:      -7.9     11.528     14.285
REMARK  7 active torsions:
REMARK  status: ('A' for Active; 'I' for Inactive)
REMARK    1  A    between atoms: O_2  and  C_3 
REMARK    2  A    between atoms: C_4  and  O_5 
REMARK    3  A    between atoms: C_9  and  C_10 
REMARK    4  A    between atoms: C_11  and  C_12 
REMARK       I    between atoms: C_12  and  N_13 
REMARK    5  A    between atoms: N_13  and  C_14 
REMARK    6  A    between atoms: C_14  and  C_15 
REMARK    7  A    between atoms: C_15  and  C_16 
ROOT
HETATM    1  C   UNL     1      31.823  47.936  40.897  1.00  0.00     0.040 C 
HETATM    2  C   UNL     1      30.497  47.778  40.707  1.00  0.00     0.113 C 
HETATM    3  C   UNL     1      30.026  46.613  40.038  1.00  0.00     0.105 C 
HETATM    4  N   UNL     1      29.630  45.687  39.462  1.00  0.00    -0.191 NA
ENDROOT
BRANCH   2   5
HETATM    5  C   UNL     1      29.482  48.766  41.186  1.00  0.00     0.262 C 
HETATM    6  N   UNL     1      28.983  49.611  40.216  1.00  0.00    -0.356 N 
HETATM    7  H   UNL     1      29.189  49.449  39.237  1.00  0.00     0.162 HD
HETATM    8  O   UNL     1      29.137  48.828  42.361  1.00  0.00    -0.267 OA
BRANCH   6   9
HETATM    9  C   UNL     1      27.951  50.584  40.539  1.00  0.00     0.127 C 
BRANCH   9  10
HETATM   10  C   UNL     1      28.192  51.924  39.844  1.00  0.00     0.060 C 
BRANCH  10  11
HETATM   11  C   UNL     1      29.549  52.480  40.132  1.00  0.00    -0.029 A 
HETATM   12  C   UNL     1      30.776  52.134  39.478  1.00  0.00    -0.002 A 
HETATM   13  C   UNL     1      31.788  52.900  40.058  1.00  0.00     0.042 A 
HETATM   14  C   UNL     1      31.120  51.240  38.444  1.00  0.00     0.014 A 
HETATM   15  C   UNL     1      33.126  52.819  39.655  1.00  0.00     0.030 A 
HETATM   16  N   UNL     1      31.202  53.678  41.028  1.00  0.00    -0.365 N 
HETATM   17  C   UNL     1      33.440  51.927  38.626  1.00  0.00     0.002 A 
HETATM   18  C   UNL     1      32.454  51.147  38.028  1.00  0.00     0.001 A 
HETATM   19  H   UNL     1      31.701  54.334  41.613  1.00  0.00     0.165 HD
HETATM   20  C   UNL     1      29.856  53.434  41.083  1.00  0.00     0.096 A 
ENDBRANCH  10  11
ENDBRANCH   9  10
ENDBRANCH   6   9
ENDBRANCH   2   5
BRANCH   1  21
HETATM   21  C   UNL     1      32.542  49.058  41.525  1.00  0.00    -0.030 A 
HETATM   22  C   UNL     1      33.907  49.217  41.246  1.00  0.00     0.033 A 
HETATM   23  C   UNL     1      34.620  50.295  41.777  1.00  0.00     0.047 A 
HETATM   24  C   UNL     1      33.971  51.218  42.593  1.00  0.00     0.116 A 
HETATM   25 BR   UNL     1      36.461  50.461  41.359  1.00  0.00    -0.048 Br
HETATM   26  C   UNL     1      32.611  51.070  42.890  1.00  0.00     0.103 A 
HETATM   27  C   UNL     1      31.894  50.012  42.326  1.00  0.00     0.051 A 
BRANCH  24  28
HETATM   28  O   UNL     1      34.652  52.281  43.128  1.00  0.00    -0.357 OA
HETATM   29  H   UNL     1      35.390  52.453  42.512  1.00  0.00     0.218 HD
ENDBRANCH  24  28
BRANCH  26  30
HETATM   30  O   UNL     1      32.080  52.032  43.714  1.00  0.00    -0.353 OA
HETATM   31  C   UNL     1      32.385  51.883  45.100  1.00  0.00     0.210 C 
ENDBRANCH  26  30
ENDBRANCH   1  21
TORSDOF 7
ENDMDL
MODEL 10
REMARK VINA RESULT:      -7.8      1.994      2.534
REMARK  7 active torsions:
REMARK  status: ('A' for Active; 'I' for Inactive)
REMARK    1  A    between atoms: O_2  and  C_3 
REMARK    2  A    between atoms: C_4  and  O_5 
REMARK    3  A    between atoms: C_9  and  C_10 
REMARK    4  A    between atoms: C_11  and  C_12 
REMARK       I    between atoms: C_12  and  N_13 
REMARK    5  A    between atoms: N_13  and  C_14 
REMARK    6  A    between atoms: C_14  and  C_15 
REMARK    7  A    between atoms: C_15  and  C_16 
ROOT
HETATM    1  C   UNL     1      23.081  48.522  47.994  1.00  0.00     0.040 C 
HETATM    2  C   UNL     1      24.276  48.662  48.606  1.00  0.00     0.113 C 
HETATM    3  C   UNL     1      25.177  49.664  48.147  1.00  0.00     0.105 C 
HETATM    4  N   UNL     1      25.937  50.451  47.761  1.00  0.00    -0.191 NA
ENDROOT
BRANCH   2   5
HETATM    5  C   UNL     1      24.699  47.822  49.768  1.00  0.00     0.262 C 
HETATM    6  N   UNL     1      25.571  46.797  49.462  1.00  0.00    -0.356 N 
HETATM    7  H   UNL     1      25.996  46.738  48.545  1.00  0.00     0.162 HD
HETATM    8  O   UNL     1      24.282  48.023  50.902  1.00  0.00    -0.267 OA
BRANCH   6   9
HETATM    9  C   UNL     1      26.101  45.937  50.510  1.00  0.00     0.127 C 
BRANCH   9  10
HETATM   10  C   UNL     1      27.049  44.875  49.952  1.00  0.00     0.060 C 
BRANCH  10  11
HETATM   11  C   UNL     1      26.978  43.591  50.712  1.00  0.00    -0.029 A 
HETATM   12  C   UNL     1      27.841  43.172  51.775  1.00  0.00    -0.002 A 
HETATM   13  C   UNL     1      27.405  41.915  52.196  1.00  0.00     0.042 A 
HETATM   14  C   UNL     1      28.954  43.747  52.422  1.00  0.00     0.014 A 
HETATM   15  C   UNL     1      28.025  41.204  53.231  1.00  0.00     0.030 A 
HETATM   16  N   UNL     1      26.323  41.579  51.418  1.00  0.00    -0.365 N 
HETATM   17  C   UNL     1      29.125  41.798  53.857  1.00  0.00     0.002 A 
HETATM   18  C   UNL     1      29.585  43.050  53.459  1.00  0.00     0.001 A 
HETATM   19  H   UNL     1      25.803  40.717  51.502  1.00  0.00     0.165 HD
HETATM   20  C   UNL     1      26.056  42.579  50.521  1.00  0.00     0.096 A 
ENDBRANCH  10  11
ENDBRANCH   9  10
ENDBRANCH   6   9
ENDBRANCH   2   5
BRANCH   1  21
HETATM   21  C   UNL     1      22.010  47.548  48.264  1.00  0.00    -0.030 A 
HETATM   22  C   UNL     1      20.739  48.031  48.606  1.00  0.00     0.033 A 
HETATM   23  C   UNL     1      19.677  47.147  48.821  1.00  0.00     0.047 A 
HETATM   24  C   UNL     1      19.885  45.775  48.699  1.00  0.00     0.116 A 
HETATM   25 BR   UNL     1      17.981  47.858  49.274  1.00  0.00    -0.048 Br
HETATM   26  C   UNL     1      21.150  45.275  48.367  1.00  0.00     0.103 A 
HETATM   27  C   UNL     1      22.198  46.164  48.116  1.00  0.00     0.051 A 
BRANCH  24  28
HETATM   28  O   UNL     1      18.860  44.890  48.910  1.00  0.00    -0.357 OA
HETATM   29  H   UNL     1      18.391  44.827  48.056  1.00  0.00     0.218 HD
ENDBRANCH  24  28
BRANCH  26  30
HETATM   30  O   UNL     1      21.240  43.907  48.287  1.00  0.00    -0.353 OA
HETATM   31  C   UNL     1      22.299  43.412  47.469  1.00  0.00     0.210 C 
ENDBRANCH  26  30
ENDBRANCH   1  21
TORSDOF 7
ENDMDL
