MODEL 1
REMARK VINA RESULT:      -9.2      0.000      0.000
REMARK  4 active torsions:
REMARK  status: ('A' for Active; 'I' for Inactive)
REMARK    1  A    between atoms: C_7  and  C_8 
REMARK    2  A    between atoms: C_10  and  O_11 
REMARK    3  A    between atoms: C_17  and  C_18 
REMARK    4  A    between atoms: C_25  and  C_26 
REMARK       I    between atoms: C_26  and  N_27 
ROOT
HETATM    1  C   UNL     1      24.613  41.321  49.064  1.00  0.00     0.070 C 
HETATM    2  C   UNL     1      25.157  42.360  50.014  1.00  0.00     0.037 A 
HETATM    3  N   UNL     1      26.196  41.940  50.835  1.00  0.00    -0.192 N 
HETATM    4  C   UNL     1      26.781  42.730  51.755  1.00  0.00     0.726 A 
HETATM    5  N   UNL     1      26.354  44.018  51.898  1.00  0.00    -0.083 N 
HETATM    6  N   UNL     1      26.980  44.635  52.920  1.00  0.00    -0.135 NA
HETATM    7  C   UNL     1      27.864  43.690  53.298  1.00  0.00     0.199 A 
HETATM    8  N   UNL     1      27.740  42.494  52.610  1.00  0.00    -0.041 NA
HETATM    9  C   UNL     1      25.279  44.623  51.104  1.00  0.00     0.202 A 
HETATM   10  C   UNL     1      24.684  43.628  50.117  1.00  0.00     0.062 A 
HETATM   11  H   UNL     1      26.529  40.985  50.727  1.00  0.00     0.184 HD
ENDROOT
BRANCH   7  12
HETATM   12  C   UNL     1      28.873  43.893  54.333  1.00  0.00     0.017 A 
HETATM   13  C   UNL     1      28.801  45.000  55.197  1.00  0.00     0.052 A 
HETATM   14  C   UNL     1      29.779  45.207  56.173  1.00  0.00     0.069 A 
HETATM   15  C   UNL     1      30.832  44.298  56.291  1.00  0.00     0.037 A 
HETATM   16  C   UNL     1      30.916  43.194  55.441  1.00  0.00     0.004 A 
HETATM   17  C   UNL     1      29.941  42.994  54.465  1.00  0.00     0.015 A 
BRANCH  14  18
HETATM   18  O   UNL     1      29.820  46.246  57.063  1.00  0.00    -0.356 OA
HETATM   19  C   UNL     1      30.576  46.043  58.251  1.00  0.00     0.210 C 
ENDBRANCH  14  18
ENDBRANCH   7  12
BRANCH   9  20
HETATM   20  C   UNL     1      25.779  45.915  50.462  1.00  0.00    -0.028 A 
HETATM   21  C   UNL     1      25.011  47.095  50.479  1.00  0.00     0.012 A 
HETATM   22  C   UNL     1      25.485  48.259  49.871  1.00  0.00     0.043 A 
HETATM   23  C   UNL     1      26.721  48.248  49.235  1.00  0.00     0.116 A 
HETATM   24  F   UNL     1      27.172  49.364  48.649  1.00  0.00    -0.206 F 
HETATM   25  C   UNL     1      27.493  47.094  49.194  1.00  0.00     0.043 A 
HETATM   26  C   UNL     1      27.024  45.930  49.803  1.00  0.00     0.012 A 
ENDBRANCH   9  20
BRANCH  10  27
HETATM   27  C   UNL     1      23.627  44.121  49.205  1.00  0.00     0.249 C 
HETATM   28  N   UNL     1      22.404  44.305  49.764  1.00  0.00    -0.366 N 
HETATM   29  H   UNL     1      22.149  44.036  50.702  1.00  0.00     0.159 HD
HETATM   30  H   UNL     1      21.666  44.621  49.145  1.00  0.00     0.159 HD
HETATM   31  O   UNL     1      23.832  44.350  48.021  1.00  0.00    -0.268 OA
ENDBRANCH  10  27
TORSDOF 4
ENDMDL
MODEL 2
REMARK VINA RESULT:      -9.0      1.553      2.120
REMARK  4 active torsions:
REMARK  status: ('A' for Active; 'I' for Inactive)
REMARK    1  A    between atoms: C_7  and  C_8 
REMARK    2  A    between atoms: C_10  and  O_11 
REMARK    3  A    between atoms: C_17  and  C_18 
REMARK    4  A    between atoms: C_25  and  C_26 
REMARK       I    between atoms: C_26  and  N_27 
ROOT
HETATM    1  C   UNL     1      27.312  39.969  48.761  1.00  0.00     0.070 C 
HETATM    2  C   UNL     1      27.236  40.999  49.862  1.00  0.00     0.037 A 
HETATM    3  N   UNL     1      28.311  41.016  50.745  1.00  0.00    -0.192 N 
HETATM    4  C   UNL     1      28.394  41.853  51.795  1.00  0.00     0.726 A 
HETATM    5  N   UNL     1      27.388  42.747  52.019  1.00  0.00    -0.083 N 
HETATM    6  N   UNL     1      27.587  43.440  53.157  1.00  0.00    -0.135 NA
HETATM    7  C   UNL     1      28.800  42.990  53.532  1.00  0.00     0.199 A 
HETATM    8  N   UNL     1      29.306  41.988  52.720  1.00  0.00    -0.041 NA
HETATM    9  C   UNL     1      26.191  42.870  51.178  1.00  0.00     0.202 A 
HETATM   10  C   UNL     1      26.202  41.858  50.039  1.00  0.00     0.062 A 
HETATM   11  H   UNL     1      29.071  40.362  50.578  1.00  0.00     0.184 HD
ENDROOT
BRANCH   7  12
HETATM   12  C   UNL     1      29.534  43.504  54.685  1.00  0.00     0.017 A 
HETATM   13  C   UNL     1      29.150  44.708  55.302  1.00  0.00     0.052 A 
HETATM   14  C   UNL     1      29.866  45.212  56.389  1.00  0.00     0.069 A 
HETATM   15  C   UNL     1      30.970  44.504  56.870  1.00  0.00     0.037 A 
HETATM   16  C   UNL     1      31.363  43.308  56.269  1.00  0.00     0.004 A 
HETATM   17  C   UNL     1      30.649  42.811  55.179  1.00  0.00     0.015 A 
BRANCH  14  18
HETATM   18  O   UNL     1      29.592  46.371  57.065  1.00  0.00    -0.356 OA
HETATM   19  C   UNL     1      28.482  46.347  57.955  1.00  0.00     0.210 C 
ENDBRANCH  14  18
ENDBRANCH   7  12
BRANCH   9  20
HETATM   20  C   UNL     1      26.028  44.318  50.724  1.00  0.00    -0.028 A 
HETATM   21  C   UNL     1      27.023  44.976  49.977  1.00  0.00     0.012 A 
HETATM   22  C   UNL     1      26.856  46.306  49.589  1.00  0.00     0.043 A 
HETATM   23  C   UNL     1      25.701  46.988  49.951  1.00  0.00     0.116 A 
HETATM   24  F   UNL     1      25.544  48.265  49.582  1.00  0.00    -0.206 F 
HETATM   25  C   UNL     1      24.709  46.366  50.699  1.00  0.00     0.043 A 
HETATM   26  C   UNL     1      24.871  45.036  51.086  1.00  0.00     0.012 A 
ENDBRANCH   9  20
BRANCH  10  27
HETATM   27  C   UNL     1      25.082  41.908  49.073  1.00  0.00     0.249 C 
HETATM   28  N   UNL     1      25.389  42.380  47.838  1.00  0.00    -0.366 N 
HETATM   29  H   UNL     1      26.274  42.784  47.575  1.00  0.00     0.159 HD
HETATM   30  H   UNL     1      24.625  42.441  47.174  1.00  0.00     0.159 HD
HETATM   31  O   UNL     1      23.948  41.552  49.359  1.00  0.00    -0.268 OA
ENDBRANCH  10  27
TORSDOF 4
ENDMDL
MODEL 3
REMARK VINA RESULT:      -8.2      5.839      9.020
REMARK  4 active torsions:
REMARK  status: ('A' for Active; 'I' for Inactive)
REMARK    1  A    between atoms: C_7  and  C_8 
REMARK    2  A    between atoms: C_10  and  O_11 
REMARK    3  A    between atoms: C_17  and  C_18 
REMARK    4  A    between atoms: C_25  and  C_26 
REMARK       I    between atoms: C_26  and  N_27 
ROOT
HETATM    1  C   UNL     1      18.234  52.292  49.530  1.00  0.00     0.070 C 
HETATM    2  C   UNL     1      19.262  51.354  48.947  1.00  0.00     0.037 A 
HETATM    3  N   UNL     1      20.513  51.379  49.554  1.00  0.00    -0.192 N 
HETATM    4  C   UNL     1      21.551  50.626  49.147  1.00  0.00     0.726 A 
HETATM    5  N   UNL     1      21.386  49.776  48.092  1.00  0.00    -0.083 N 
HETATM    6  N   UNL     1      22.544  49.170  47.761  1.00  0.00    -0.135 NA
HETATM    7  C   UNL     1      23.364  49.619  48.731  1.00  0.00     0.199 A 
HETATM    8  N   UNL     1      22.779  50.542  49.583  1.00  0.00    -0.041 NA
HETATM    9  C   UNL     1      20.130  49.617  47.349  1.00  0.00     0.202 A 
HETATM   10  C   UNL     1      19.042  50.536  47.888  1.00  0.00     0.062 A 
HETATM   11  H   UNL     1      20.640  52.001  50.349  1.00  0.00     0.184 HD
ENDROOT
BRANCH   7  12
HETATM   12  C   UNL     1      24.747  49.179  48.890  1.00  0.00     0.017 A 
HETATM   13  C   UNL     1      25.042  47.937  49.480  1.00  0.00     0.052 A 
HETATM   14  C   UNL     1      26.365  47.527  49.653  1.00  0.00     0.069 A 
HETATM   15  C   UNL     1      27.402  48.359  49.227  1.00  0.00     0.037 A 
HETATM   16  C   UNL     1      27.125  49.594  48.639  1.00  0.00     0.004 A 
HETATM   17  C   UNL     1      25.803  50.003  48.473  1.00  0.00     0.015 A 
BRANCH  14  18
HETATM   18  O   UNL     1      26.774  46.349  50.218  1.00  0.00    -0.356 OA
HETATM   19  C   UNL     1      26.235  45.153  49.666  1.00  0.00     0.210 C 
ENDBRANCH  14  18
ENDBRANCH   7  12
BRANCH   9  20
HETATM   20  C   UNL     1      19.740  48.141  47.310  1.00  0.00    -0.028 A 
HETATM   21  C   UNL     1      19.595  47.384  48.488  1.00  0.00     0.012 A 
HETATM   22  C   UNL     1      19.253  46.032  48.424  1.00  0.00     0.043 A 
HETATM   23  C   UNL     1      19.063  45.429  47.188  1.00  0.00     0.116 A 
HETATM   24  F   UNL     1      18.738  44.131  47.128  1.00  0.00    -0.206 F 
HETATM   25  C   UNL     1      19.210  46.151  46.010  1.00  0.00     0.043 A 
HETATM   26  C   UNL     1      19.550  47.503  46.070  1.00  0.00     0.012 A 
ENDBRANCH   9  20
BRANCH  10  27
HETATM   27  C   UNL     1      17.701  50.437  47.270  1.00  0.00     0.249 C 
HETATM   28  N   UNL     1      17.544  51.090  46.091  1.00  0.00    -0.366 N 
HETATM   29  H   UNL     1      18.226  51.705  45.674  1.00  0.00     0.159 HD
HETATM   30  H   UNL     1      16.624  51.050  45.669  1.00  0.00     0.159 HD
HETATM   31  O   UNL     1      16.783  49.811  47.782  1.00  0.00    -0.268 OA
ENDBRANCH  10  27
TORSDOF 4
ENDMDL
MODEL 4
REMARK VINA RESULT:      -8.1      3.953      6.809
REMARK  4 active torsions:
REMARK  status: ('A' for Active; 'I' for Inactive)
REMARK    1  A    between atoms: C_7  and  C_8 
REMARK    2  A    between atoms: C_10  and  O_11 
REMARK    3  A    between atoms: C_17  and  C_18 
REMARK    4  A    between atoms: C_25  and  C_26 
REMARK       I    between atoms: C_26  and  N_27 
ROOT
HETATM    1  C   UNL     1      25.774  47.100  50.788  1.00  0.00     0.070 C 
HETATM    2  C   UNL     1      26.254  45.716  51.153  1.00  0.00     0.037 A 
HETATM    3  N   UNL     1      26.519  44.870  50.082  1.00  0.00    -0.192 N 
HETATM    4  C   UNL     1      26.931  43.597  50.226  1.00  0.00     0.726 A 
HETATM    5  N   UNL     1      27.117  43.093  51.481  1.00  0.00    -0.083 N 
HETATM    6  N   UNL     1      27.439  41.786  51.445  1.00  0.00    -0.135 NA
HETATM    7  C   UNL     1      27.540  41.574  50.118  1.00  0.00     0.199 A 
HETATM    8  N   UNL     1      27.202  42.673  49.344  1.00  0.00    -0.041 NA
HETATM    9  C   UNL     1      26.895  43.854  52.716  1.00  0.00     0.202 A 
HETATM   10  C   UNL     1      26.411  45.268  52.423  1.00  0.00     0.062 A 
HETATM   11  H   UNL     1      26.395  45.242  49.143  1.00  0.00     0.184 HD
ENDROOT
BRANCH   7  12
HETATM   12  C   UNL     1      27.969  40.309  49.529  1.00  0.00     0.017 A 
HETATM   13  C   UNL     1      28.885  39.479  50.200  1.00  0.00     0.052 A 
HETATM   14  C   UNL     1      29.313  38.280  49.627  1.00  0.00     0.069 A 
HETATM   15  C   UNL     1      28.817  37.903  48.377  1.00  0.00     0.037 A 
HETATM   16  C   UNL     1      27.907  38.715  47.700  1.00  0.00     0.004 A 
HETATM   17  C   UNL     1      27.486  39.914  48.273  1.00  0.00     0.015 A 
BRANCH  14  18
HETATM   18  O   UNL     1      30.202  37.398  50.179  1.00  0.00    -0.356 OA
HETATM   19  C   UNL     1      29.804  36.758  51.386  1.00  0.00     0.210 C 
ENDBRANCH  14  18
ENDBRANCH   7  12
BRANCH   9  20
HETATM   20  C   UNL     1      28.147  43.791  53.589  1.00  0.00    -0.028 A 
HETATM   21  C   UNL     1      28.210  44.440  54.838  1.00  0.00     0.012 A 
HETATM   22  C   UNL     1      29.372  44.380  55.609  1.00  0.00     0.043 A 
HETATM   23  C   UNL     1      30.477  43.683  55.135  1.00  0.00     0.116 A 
HETATM   24  F   UNL     1      31.592  43.630  55.875  1.00  0.00    -0.206 F 
HETATM   25  C   UNL     1      30.444  43.044  53.902  1.00  0.00     0.043 A 
HETATM   26  C   UNL     1      29.283  43.099  53.130  1.00  0.00     0.012 A 
ENDBRANCH   9  20
BRANCH  10  27
HETATM   27  C   UNL     1      26.205  46.170  53.578  1.00  0.00     0.249 C 
HETATM   28  N   UNL     1      27.043  47.235  53.652  1.00  0.00    -0.366 N 
HETATM   29  H   UNL     1      27.839  47.390  53.052  1.00  0.00     0.159 HD
HETATM   30  H   UNL     1      26.928  47.848  54.451  1.00  0.00     0.159 HD
HETATM   31  O   UNL     1      25.339  45.977  54.420  1.00  0.00    -0.268 OA
ENDBRANCH  10  27
TORSDOF 4
ENDMDL
MODEL 5
REMARK VINA RESULT:      -8.0      5.221     10.103
REMARK  4 active torsions:
REMARK  status: ('A' for Active; 'I' for Inactive)
REMARK    1  A    between atoms: C_7  and  C_8 
REMARK    2  A    between atoms: C_10  and  O_11 
REMARK    3  A    between atoms: C_17  and  C_18 
REMARK    4  A    between atoms: C_25  and  C_26 
REMARK       I    between atoms: C_26  and  N_27 
ROOT
HETATM    1  C   UNL     1      27.541  48.880  49.042  1.00  0.00     0.070 C 
HETATM    2  C   UNL     1      26.045  48.693  49.111  1.00  0.00     0.037 A 
HETATM    3  N   UNL     1      25.283  49.725  48.576  1.00  0.00    -0.192 N 
HETATM    4  C   UNL     1      23.938  49.732  48.576  1.00  0.00     0.726 A 
HETATM    5  N   UNL     1      23.264  48.674  49.113  1.00  0.00    -0.083 N 
HETATM    6  N   UNL     1      21.933  48.885  49.114  1.00  0.00    -0.135 NA
HETATM    7  C   UNL     1      21.851  50.060  48.459  1.00  0.00     0.199 A 
HETATM    8  N   UNL     1      23.080  50.616  48.141  1.00  0.00    -0.041 NA
HETATM    9  C   UNL     1      23.913  47.499  49.706  1.00  0.00     0.202 A 
HETATM   10  C   UNL     1      25.431  47.619  49.668  1.00  0.00     0.062 A 
HETATM   11  H   UNL     1      25.778  50.512  48.162  1.00  0.00     0.184 HD
ENDROOT
BRANCH   7  12
HETATM   12  C   UNL     1      20.589  50.702  48.101  1.00  0.00     0.017 A 
HETATM   13  C   UNL     1      19.805  50.205  47.045  1.00  0.00     0.052 A 
HETATM   14  C   UNL     1      18.610  50.833  46.688  1.00  0.00     0.069 A 
HETATM   15  C   UNL     1      18.191  51.961  47.397  1.00  0.00     0.037 A 
HETATM   16  C   UNL     1      18.958  52.465  48.447  1.00  0.00     0.004 A 
HETATM   17  C   UNL     1      20.153  51.838  48.797  1.00  0.00     0.015 A 
BRANCH  14  18
HETATM   18  O   UNL     1      17.769  50.447  45.679  1.00  0.00    -0.356 OA
HETATM   19  C   UNL     1      17.828  51.200  44.473  1.00  0.00     0.210 C 
ENDBRANCH  14  18
ENDBRANCH   7  12
BRANCH   9  20
HETATM   20  C   UNL     1      23.370  46.229  49.055  1.00  0.00    -0.028 A 
HETATM   21  C   UNL     1      22.872  46.228  47.738  1.00  0.00     0.012 A 
HETATM   22  C   UNL     1      22.367  45.057  47.172  1.00  0.00     0.043 A 
HETATM   23  C   UNL     1      22.347  43.886  47.918  1.00  0.00     0.116 A 
HETATM   24  F   UNL     1      21.858  42.764  47.375  1.00  0.00    -0.206 F 
HETATM   25  C   UNL     1      22.822  43.862  49.223  1.00  0.00     0.043 A 
HETATM   26  C   UNL     1      23.330  45.030  49.792  1.00  0.00     0.012 A 
ENDBRANCH   9  20
BRANCH  10  27
HETATM   27  C   UNL     1      26.217  46.474  50.179  1.00  0.00     0.249 C 
HETATM   28  N   UNL     1      26.230  46.321  51.527  1.00  0.00    -0.366 N 
HETATM   29  H   UNL     1      25.840  46.975  52.188  1.00  0.00     0.159 HD
HETATM   30  H   UNL     1      26.784  45.555  51.891  1.00  0.00     0.159 HD
HETATM   31  O   UNL     1      26.824  45.709  49.442  1.00  0.00    -0.268 OA
ENDBRANCH  10  27
TORSDOF 4
ENDMDL
MODEL 6
REMARK VINA RESULT:      -7.8      2.746      3.760
REMARK  4 active torsions:
REMARK  status: ('A' for Active; 'I' for Inactive)
REMARK    1  A    between atoms: C_7  and  C_8 
REMARK    2  A    between atoms: C_10  and  O_11 
REMARK    3  A    between atoms: C_17  and  C_18 
REMARK    4  A    between atoms: C_25  and  C_26 
REMARK       I    between atoms: C_26  and  N_27 
ROOT
HETATM    1  C   UNL     1      23.475  43.459  46.441  1.00  0.00     0.070 C 
HETATM    2  C   UNL     1      23.626  44.329  47.665  1.00  0.00     0.037 A 
HETATM    3  N   UNL     1      24.702  44.023  48.491  1.00  0.00    -0.192 N 
HETATM    4  C   UNL     1      24.970  44.681  49.634  1.00  0.00     0.726 A 
HETATM    5  N   UNL     1      24.164  45.714  50.015  1.00  0.00    -0.083 N 
HETATM    6  N   UNL     1      24.519  46.198  51.221  1.00  0.00    -0.135 NA
HETATM    7  C   UNL     1      25.629  45.479  51.479  1.00  0.00     0.199 A 
HETATM    8  N   UNL     1      25.911  44.515  50.524  1.00  0.00    -0.041 NA
HETATM    9  C   UNL     1      22.996  46.174  49.253  1.00  0.00     0.202 A 
HETATM   10  C   UNL     1      22.784  45.339  47.997  1.00  0.00     0.062 A 
HETATM   11  H   UNL     1      25.315  43.263  48.208  1.00  0.00     0.184 HD
ENDROOT
BRANCH   7  12
HETATM   12  C   UNL     1      26.474  45.685  52.651  1.00  0.00     0.017 A 
HETATM   13  C   UNL     1      26.483  46.922  53.320  1.00  0.00     0.052 A 
HETATM   14  C   UNL     1      27.309  47.127  54.428  1.00  0.00     0.069 A 
HETATM   15  C   UNL     1      28.127  46.087  54.874  1.00  0.00     0.037 A 
HETATM   16  C   UNL     1      28.128  44.855  54.222  1.00  0.00     0.004 A 
HETATM   17  C   UNL     1      27.306  44.655  53.113  1.00  0.00     0.015 A 
BRANCH  14  18
HETATM   18  O   UNL     1      27.409  48.284  55.153  1.00  0.00    -0.356 OA
HETATM   19  C   UNL     1      26.301  48.619  55.981  1.00  0.00     0.210 C 
ENDBRANCH  14  18
ENDBRANCH   7  12
BRANCH   9  20
HETATM   20  C   UNL     1      23.110  47.674  48.994  1.00  0.00    -0.028 A 
HETATM   21  C   UNL     1      24.348  48.285  48.715  1.00  0.00     0.012 A 
HETATM   22  C   UNL     1      24.427  49.661  48.498  1.00  0.00     0.043 A 
HETATM   23  C   UNL     1      23.275  50.435  48.567  1.00  0.00     0.116 A 
HETATM   24  F   UNL     1      23.353  51.756  48.362  1.00  0.00    -0.206 F 
HETATM   25  C   UNL     1      22.044  49.859  48.852  1.00  0.00     0.043 A 
HETATM   26  C   UNL     1      21.960  48.483  49.067  1.00  0.00     0.012 A 
ENDBRANCH   9  20
BRANCH  10  27
HETATM   27  C   UNL     1      21.675  45.731  47.099  1.00  0.00     0.249 C 
HETATM   28  N   UNL     1      20.445  45.274  47.446  1.00  0.00    -0.366 N 
HETATM   29  H   UNL     1      20.258  44.620  48.191  1.00  0.00     0.159 HD
HETATM   30  H   UNL     1      19.680  45.516  46.827  1.00  0.00     0.159 HD
HETATM   31  O   UNL     1      21.845  46.420  46.103  1.00  0.00    -0.268 OA
ENDBRANCH  10  27
TORSDOF 4
ENDMDL
MODEL 7
REMARK VINA RESULT:      -7.6      2.585      3.684
REMARK  4 active torsions:
REMARK  status: ('A' for Active; 'I' for Inactive)
REMARK    1  A    between atoms: C_7  and  C_8 
REMARK    2  A    between atoms: C_10  and  O_11 
REMARK    3  A    between atoms: C_17  and  C_18 
REMARK    4  A    between atoms: C_25  and  C_26 
REMARK       I    between atoms: C_26  and  N_27 
ROOT
HETATM    1  C   UNL     1      23.281  43.449  46.123  1.00  0.00     0.070 C 
HETATM    2  C   UNL     1      23.487  44.219  47.405  1.00  0.00     0.037 A 
HETATM    3  N   UNL     1      24.593  43.847  48.161  1.00  0.00    -0.192 N 
HETATM    4  C   UNL     1      24.910  44.412  49.339  1.00  0.00     0.726 A 
HETATM    5  N   UNL     1      24.126  45.414  49.833  1.00  0.00    -0.083 N 
HETATM    6  N   UNL     1      24.532  45.801  51.058  1.00  0.00    -0.135 NA
HETATM    7  C   UNL     1      25.647  45.060  51.214  1.00  0.00     0.199 A 
HETATM    8  N   UNL     1      25.885  44.174  50.176  1.00  0.00    -0.041 NA
HETATM    9  C   UNL     1      22.932  45.935  49.157  1.00  0.00     0.202 A 
HETATM   10  C   UNL     1      22.665  45.203  47.849  1.00  0.00     0.062 A 
HETATM   11  H   UNL     1      25.190  43.110  47.794  1.00  0.00     0.184 HD
ENDROOT
BRANCH   7  12
HETATM   12  C   UNL     1      26.540  45.172  52.364  1.00  0.00     0.017 A 
HETATM   13  C   UNL     1      27.597  44.262  52.542  1.00  0.00     0.052 A 
HETATM   14  C   UNL     1      28.436  44.354  53.654  1.00  0.00     0.069 A 
HETATM   15  C   UNL     1      28.223  45.366  54.591  1.00  0.00     0.037 A 
HETATM   16  C   UNL     1      27.178  46.276  54.428  1.00  0.00     0.004 A 
HETATM   17  C   UNL     1      26.339  46.178  53.319  1.00  0.00     0.015 A 
BRANCH  14  18
HETATM   18  O   UNL     1      29.490  43.526  53.937  1.00  0.00    -0.356 OA
HETATM   19  C   UNL     1      30.110  43.690  55.207  1.00  0.00     0.210 C 
ENDBRANCH  14  18
ENDBRANCH   7  12
BRANCH   9  20
HETATM   20  C   UNL     1      23.044  47.451  49.013  1.00  0.00    -0.028 A 
HETATM   21  C   UNL     1      21.912  48.286  49.074  1.00  0.00     0.012 A 
HETATM   22  C   UNL     1      22.040  49.667  48.922  1.00  0.00     0.043 A 
HETATM   23  C   UNL     1      23.295  50.221  48.700  1.00  0.00     0.116 A 
HETATM   24  F   UNL     1      23.416  51.546  48.551  1.00  0.00    -0.206 F 
HETATM   25  C   UNL     1      24.426  49.419  48.623  1.00  0.00     0.043 A 
HETATM   26  C   UNL     1      24.303  48.038  48.777  1.00  0.00     0.012 A 
ENDBRANCH   9  20
BRANCH  10  27
HETATM   27  C   UNL     1      21.523  45.667  47.030  1.00  0.00     0.249 C 
HETATM   28  N   UNL     1      20.297  45.246  47.434  1.00  0.00    -0.366 N 
HETATM   29  H   UNL     1      20.127  44.576  48.167  1.00  0.00     0.159 HD
HETATM   30  H   UNL     1      19.509  45.539  46.868  1.00  0.00     0.159 HD
HETATM   31  O   UNL     1      21.663  46.382  46.048  1.00  0.00    -0.268 OA
ENDBRANCH  10  27
TORSDOF 4
ENDMDL
MODEL 8
REMARK VINA RESULT:      -7.5     10.922     13.955
REMARK  4 active torsions:
REMARK  status: ('A' for Active; 'I' for Inactive)
REMARK    1  A    between atoms: C_7  and  C_8 
REMARK    2  A    between atoms: C_10  and  O_11 
REMARK    3  A    between atoms: C_17  and  C_18 
REMARK    4  A    between atoms: C_25  and  C_26 
REMARK       I    between atoms: C_26  and  N_27 
ROOT
HETATM    1  C   UNL     1      28.770  53.216  37.837  1.00  0.00     0.070 C 
HETATM    2  C   UNL     1      28.522  52.091  38.813  1.00  0.00     0.037 A 
HETATM    3  N   UNL     1      27.419  51.291  38.542  1.00  0.00    -0.192 N 
HETATM    4  C   UNL     1      27.040  50.261  39.321  1.00  0.00     0.726 A 
HETATM    5  N   UNL     1      27.770  49.961  40.434  1.00  0.00    -0.083 N 
HETATM    6  N   UNL     1      27.202  48.967  41.144  1.00  0.00    -0.135 NA
HETATM    7  C   UNL     1      26.171  48.627  40.346  1.00  0.00     0.199 A 
HETATM    8  N   UNL     1      26.035  49.432  39.226  1.00  0.00    -0.041 NA
HETATM    9  C   UNL     1      28.968  50.696  40.857  1.00  0.00     0.202 A 
HETATM   10  C   UNL     1      29.281  51.848  39.911  1.00  0.00     0.062 A 
HETATM   11  H   UNL     1      26.877  51.499  37.707  1.00  0.00     0.184 HD
ENDROOT
BRANCH   7  12
HETATM   12  C   UNL     1      25.271  47.509  40.616  1.00  0.00     0.017 A 
HETATM   13  C   UNL     1      25.779  46.254  40.995  1.00  0.00     0.052 A 
HETATM   14  C   UNL     1      24.920  45.180  41.232  1.00  0.00     0.069 A 
HETATM   15  C   UNL     1      23.542  45.361  41.095  1.00  0.00     0.037 A 
HETATM   16  C   UNL     1      23.023  46.601  40.720  1.00  0.00     0.004 A 
HETATM   17  C   UNL     1      23.885  47.670  40.480  1.00  0.00     0.015 A 
BRANCH  14  18
HETATM   18  O   UNL     1      25.295  43.915  41.598  1.00  0.00    -0.356 OA
HETATM   19  C   UNL     1      26.315  43.810  42.585  1.00  0.00     0.210 C 
ENDBRANCH  14  18
ENDBRANCH   7  12
BRANCH   9  20
HETATM   20  C   UNL     1      30.126  49.720  41.056  1.00  0.00    -0.028 A 
HETATM   21  C   UNL     1      30.570  48.878  40.018  1.00  0.00     0.012 A 
HETATM   22  C   UNL     1      31.620  47.984  40.232  1.00  0.00     0.043 A 
HETATM   23  C   UNL     1      32.224  47.918  41.481  1.00  0.00     0.116 A 
HETATM   24  F   UNL     1      33.228  47.056  41.685  1.00  0.00    -0.206 F 
HETATM   25  C   UNL     1      31.797  48.729  42.525  1.00  0.00     0.043 A 
HETATM   26  C   UNL     1      30.750  49.626  42.315  1.00  0.00     0.012 A 
ENDBRANCH   9  20
BRANCH  10  27
HETATM   27  C   UNL     1      30.501  52.640  40.183  1.00  0.00     0.249 C 
HETATM   28  N   UNL     1      30.383  53.597  41.137  1.00  0.00    -0.366 N 
HETATM   29  H   UNL     1      29.521  53.867  41.584  1.00  0.00     0.159 HD
HETATM   30  H   UNL     1      31.206  54.162  41.317  1.00  0.00     0.159 HD
HETATM   31  O   UNL     1      31.554  52.453  39.589  1.00  0.00    -0.268 OA
ENDBRANCH  10  27
TORSDOF 4
ENDMDL
MODEL 9
REMARK VINA RESULT:      -7.5      8.830     12.931
REMARK  4 active torsions:
REMARK  status: ('A' for Active; 'I' for Inactive)
REMARK    1  A    between atoms: C_7  and  C_8 
REMARK    2  A    between atoms: C_10  and  O_11 
REMARK    3  A    between atoms: C_17  and  C_18 
REMARK    4  A    between atoms: C_25  and  C_26 
REMARK       I    between atoms: C_26  and  N_27 
ROOT
HETATM    1  C   UNL     1      23.063  50.824  48.131  1.00  0.00     0.070 C 
HETATM    2  C   UNL     1      21.588  50.590  48.349  1.00  0.00     0.037 A 
HETATM    3  N   UNL     1      20.802  51.734  48.426  1.00  0.00    -0.192 N 
HETATM    4  C   UNL     1      19.474  51.709  48.640  1.00  0.00     0.726 A 
HETATM    5  N   UNL     1      18.843  50.507  48.781  1.00  0.00    -0.083 N 
HETATM    6  N   UNL     1      17.538  50.667  49.079  1.00  0.00    -0.135 NA
HETATM    7  C   UNL     1      17.411  52.006  49.002  1.00  0.00     0.199 A 
HETATM    8  N   UNL     1      18.601  52.673  48.759  1.00  0.00    -0.041 NA
HETATM    9  C   UNL     1      19.520  49.207  48.713  1.00  0.00     0.202 A 
HETATM   10  C   UNL     1      21.018  49.368  48.490  1.00  0.00     0.062 A 
HETATM   11  H   UNL     1      21.263  52.633  48.309  1.00  0.00     0.184 HD
ENDROOT
BRANCH   7  12
HETATM   12  C   UNL     1      16.140  52.709  49.152  1.00  0.00     0.017 A 
HETATM   13  C   UNL     1      15.667  53.070  50.426  1.00  0.00     0.052 A 
HETATM   14  C   UNL     1      14.440  53.722  50.571  1.00  0.00     0.069 A 
HETATM   15  C   UNL     1      13.685  54.022  49.436  1.00  0.00     0.037 A 
HETATM   16  C   UNL     1      14.142  53.670  48.165  1.00  0.00     0.004 A 
HETATM   17  C   UNL     1      15.364  53.015  48.024  1.00  0.00     0.015 A 
BRANCH  14  18
HETATM   18  O   UNL     1      13.874  54.116  51.754  1.00  0.00    -0.356 OA
HETATM   19  C   UNL     1      14.423  55.274  52.372  1.00  0.00     0.210 C 
ENDBRANCH  14  18
ENDBRANCH   7  12
BRANCH   9  20
HETATM   20  C   UNL     1      18.827  48.320  47.682  1.00  0.00    -0.028 A 
HETATM   21  C   UNL     1      18.230  47.096  48.041  1.00  0.00     0.012 A 
HETATM   22  C   UNL     1      17.616  46.296  47.076  1.00  0.00     0.043 A 
HETATM   23  C   UNL     1      17.604  46.707  45.749  1.00  0.00     0.116 A 
HETATM   24  F   UNL     1      17.019  45.936  44.823  1.00  0.00    -0.206 F 
HETATM   25  C   UNL     1      18.196  47.904  45.366  1.00  0.00     0.043 A 
HETATM   26  C   UNL     1      18.808  48.708  46.329  1.00  0.00     0.012 A 
ENDBRANCH   9  20
BRANCH  10  27
HETATM   27  C   UNL     1      21.820  48.133  48.341  1.00  0.00     0.249 C 
HETATM   28  N   UNL     1      22.308  47.603  49.491  1.00  0.00    -0.366 N 
HETATM   29  H   UNL     1      22.251  48.037  50.399  1.00  0.00     0.159 HD
HETATM   30  H   UNL     1      22.878  46.770  49.400  1.00  0.00     0.159 HD
HETATM   31  O   UNL     1      22.038  47.615  47.254  1.00  0.00    -0.268 OA
ENDBRANCH  10  27
TORSDOF 4
ENDMDL
MODEL 10
REMARK VINA RESULT:      -7.4      3.751      5.470
REMARK  4 active torsions:
REMARK  status: ('A' for Active; 'I' for Inactive)
REMARK    1  A    between atoms: C_7  and  C_8 
REMARK    2  A    between atoms: C_10  and  O_11 
REMARK    3  A    between atoms: C_17  and  C_18 
REMARK    4  A    between atoms: C_25  and  C_26 
REMARK       I    between atoms: C_26  and  N_27 
ROOT
HETATM    1  C   UNL     1      22.326  41.237  47.532  1.00  0.00     0.070 C 
HETATM    2  C   UNL     1      23.606  41.642  48.221  1.00  0.00     0.037 A 
HETATM    3  N   UNL     1      23.453  42.326  49.421  1.00  0.00    -0.192 N 
HETATM    4  C   UNL     1      24.486  42.781  50.153  1.00  0.00     0.726 A 
HETATM    5  N   UNL     1      25.761  42.561  49.719  1.00  0.00    -0.083 N 
HETATM    6  N   UNL     1      26.665  43.160  50.519  1.00  0.00    -0.135 NA
HETATM    7  C   UNL     1      25.874  43.647  51.495  1.00  0.00     0.199 A 
HETATM    8  N   UNL     1      24.521  43.450  51.275  1.00  0.00    -0.041 NA
HETATM    9  C   UNL     1      26.099  41.846  48.483  1.00  0.00     0.202 A 
HETATM   10  C   UNL     1      24.849  41.402  47.734  1.00  0.00     0.062 A 
HETATM   11  H   UNL     1      22.506  42.484  49.759  1.00  0.00     0.184 HD
ENDROOT
BRANCH   7  12
HETATM   12  C   UNL     1      26.380  44.322  52.687  1.00  0.00     0.017 A 
HETATM   13  C   UNL     1      25.766  45.493  53.163  1.00  0.00     0.052 A 
HETATM   14  C   UNL     1      26.264  46.151  54.290  1.00  0.00     0.069 A 
HETATM   15  C   UNL     1      27.379  45.631  54.949  1.00  0.00     0.037 A 
HETATM   16  C   UNL     1      27.999  44.470  54.489  1.00  0.00     0.004 A 
HETATM   17  C   UNL     1      27.502  43.818  53.360  1.00  0.00     0.015 A 
BRANCH  14  18
HETATM   18  O   UNL     1      25.757  47.297  54.841  1.00  0.00    -0.356 OA
HETATM   19  C   UNL     1      26.681  48.152  55.505  1.00  0.00     0.210 C 
ENDBRANCH  14  18
ENDBRANCH   7  12
BRANCH   9  20
HETATM   20  C   UNL     1      27.075  40.714  48.795  1.00  0.00    -0.028 A 
HETATM   21  C   UNL     1      28.370  40.681  48.243  1.00  0.00     0.012 A 
HETATM   22  C   UNL     1      29.237  39.626  48.532  1.00  0.00     0.043 A 
HETATM   23  C   UNL     1      28.814  38.596  49.362  1.00  0.00     0.116 A 
HETATM   24  F   UNL     1      29.646  37.583  49.635  1.00  0.00    -0.206 F 
HETATM   25  C   UNL     1      27.538  38.598  49.910  1.00  0.00     0.043 A 
HETATM   26  C   UNL     1      26.669  39.652  49.626  1.00  0.00     0.012 A 
ENDBRANCH   9  20
BRANCH  10  27
HETATM   27  C   UNL     1      25.041  40.613  46.497  1.00  0.00     0.249 C 
HETATM   28  N   UNL     1      25.396  41.322  45.394  1.00  0.00    -0.366 N 
HETATM   29  H   UNL     1      25.433  42.328  45.339  1.00  0.00     0.159 HD
HETATM   30  H   UNL     1      25.508  40.797  44.535  1.00  0.00     0.159 HD
HETATM   31  O   UNL     1      24.890  39.400  46.457  1.00  0.00    -0.268 OA
ENDBRANCH  10  27
TORSDOF 4
ENDMDL
