MODEL 1
REMARK VINA RESULT:      -8.4      0.000      0.000
REMARK  5 active torsions:
REMARK  status: ('A' for Active; 'I' for Inactive)
REMARK    1  A    between atoms: C_8  and  N_9 
REMARK       I    between atoms: N_9  and  C_10 
REMARK       I    between atoms: C_10  and  N_11 
REMARK    2  A    between atoms: N_11  and  C_12 
REMARK    3  A    between atoms: C_13  and  O_14 
REMARK    4  A    between atoms: O_14  and  C_15 
REMARK    5  A    between atoms: C_15  and  C_16 
ROOT
HETATM    1  N   UNL     1      28.738  41.158  51.188  1.00  0.00    -0.305 N 
HETATM    2  C   UNL     1      28.771  41.501  52.527  1.00  0.00     0.325 C 
HETATM    3  N   UNL     1      29.630  42.568  52.723  1.00  0.00    -0.306 N 
HETATM    4  O   UNL     1      28.132  40.954  53.414  1.00  0.00    -0.247 OA
HETATM    5  H   UNL     1      28.995  41.884  50.537  1.00  0.00     0.171 HD
HETATM    6  H   UNL     1      30.307  42.744  51.992  1.00  0.00     0.171 HD
ENDROOT
BRANCH   3   7
HETATM    7  C   UNL     1      29.842  43.301  53.913  1.00  0.00     0.071 A 
HETATM    8  C   UNL     1      29.003  44.407  54.144  1.00  0.00     0.096 A 
HETATM    9  C   UNL     1      29.111  45.157  55.317  1.00  0.00     0.041 A 
HETATM   10  C   UNL     1      30.085  44.825  56.257  1.00  0.00     0.026 A 
HETATM   11  C   UNL     1      30.931  43.741  56.024  1.00  0.00     0.036 A 
HETATM   12 CL   UNL     1      32.124  43.334  57.198  1.00  0.00    -0.084 Cl
HETATM   13  C   UNL     1      30.813  42.975  54.862  1.00  0.00     0.056 A 
BRANCH   8  14
HETATM   14  O   UNL     1      28.045  44.688  53.200  1.00  0.00    -0.340 OA
BRANCH  14  15
HETATM   15  C   UNL     1      26.845  45.230  53.787  1.00  0.00     0.293 C 
BRANCH  15  16
HETATM   16  C   UNL     1      25.829  44.120  54.004  1.00  0.00     0.408 C 
HETATM   17  F   UNL     1      26.262  43.232  54.928  1.00  0.00    -0.169 F 
HETATM   18  F   UNL     1      24.641  44.607  54.424  1.00  0.00    -0.169 F 
HETATM   19  F   UNL     1      25.609  43.442  52.856  1.00  0.00    -0.169 F 
ENDBRANCH  15  16
ENDBRANCH  14  15
ENDBRANCH   8  14
ENDBRANCH   3   7
BRANCH   1  20
HETATM   20  C   UNL     1      28.118  40.048  50.638  1.00  0.00     0.086 A 
HETATM   21  C   UNL     1      26.777  40.049  50.301  1.00  0.00     0.052 A 
HETATM   22  C   UNL     1      25.714  41.074  50.419  1.00  0.00     0.072 C 
HETATM   23  N   UNL     1      26.520  38.808  49.791  1.00  0.00    -0.280 N 
HETATM   24  H   UNL     1      25.639  38.440  49.450  1.00  0.00     0.189 HD
HETATM   25  N   UNL     1      27.591  38.012  49.741  1.00  0.00    -0.177 NA
HETATM   26  C   UNL     1      28.584  38.757  50.252  1.00  0.00     0.079 A 
HETATM   27  C   UNL     1      29.950  38.175  50.289  1.00  0.00     0.075 C 
ENDBRANCH   1  20
TORSDOF 5
ENDMDL
MODEL 2
REMARK VINA RESULT:      -8.2      1.008      2.014
REMARK  5 active torsions:
REMARK  status: ('A' for Active; 'I' for Inactive)
REMARK    1  A    between atoms: C_8  and  N_9 
REMARK       I    between atoms: N_9  and  C_10 
REMARK       I    between atoms: C_10  and  N_11 
REMARK    2  A    between atoms: N_11  and  C_12 
REMARK    3  A    between atoms: C_13  and  O_14 
REMARK    4  A    between atoms: O_14  and  C_15 
REMARK    5  A    between atoms: C_15  and  C_16 
ROOT
HETATM    1  N   UNL     1      28.812  40.903  50.975  1.00  0.00    -0.305 N 
HETATM    2  C   UNL     1      28.733  41.324  52.289  1.00  0.00     0.325 C 
HETATM    3  N   UNL     1      29.611  42.371  52.508  1.00  0.00    -0.306 N 
HETATM    4  O   UNL     1      27.992  40.852  53.140  1.00  0.00    -0.247 OA
HETATM    5  H   UNL     1      29.159  41.581  50.313  1.00  0.00     0.171 HD
HETATM    6  H   UNL     1      30.360  42.481  51.837  1.00  0.00     0.171 HD
ENDROOT
BRANCH   3   7
HETATM    7  C   UNL     1      29.737  43.166  53.670  1.00  0.00     0.071 A 
HETATM    8  C   UNL     1      28.840  44.241  53.814  1.00  0.00     0.096 A 
HETATM    9  C   UNL     1      28.863  45.047  54.955  1.00  0.00     0.041 A 
HETATM   10  C   UNL     1      29.810  44.803  55.949  1.00  0.00     0.026 A 
HETATM   11  C   UNL     1      30.714  43.751  55.802  1.00  0.00     0.036 A 
HETATM   12 CL   UNL     1      31.872  43.454  57.041  1.00  0.00    -0.084 Cl
HETATM   13  C   UNL     1      30.681  42.929  54.673  1.00  0.00     0.056 A 
BRANCH   8  14
HETATM   14  O   UNL     1      27.912  44.434  52.820  1.00  0.00    -0.340 OA
BRANCH  14  15
HETATM   15  C   UNL     1      26.563  44.233  53.288  1.00  0.00     0.293 C 
BRANCH  15  16
HETATM   16  C   UNL     1      25.781  45.532  53.186  1.00  0.00     0.408 C 
HETATM   17  F   UNL     1      24.662  45.374  52.443  1.00  0.00    -0.169 F 
HETATM   18  F   UNL     1      25.408  45.986  54.403  1.00  0.00    -0.169 F 
HETATM   19  F   UNL     1      26.528  46.495  52.602  1.00  0.00    -0.169 F 
ENDBRANCH  15  16
ENDBRANCH  14  15
ENDBRANCH   8  14
ENDBRANCH   3   7
BRANCH   1  20
HETATM   20  C   UNL     1      28.204  39.784  50.431  1.00  0.00     0.086 A 
HETATM   21  C   UNL     1      28.807  38.540  50.450  1.00  0.00     0.052 A 
HETATM   22  C   UNL     1      30.115  38.068  50.961  1.00  0.00     0.072 C 
HETATM   23  N   UNL     1      27.928  37.691  49.840  1.00  0.00    -0.280 N 
HETATM   24  H   UNL     1      28.036  36.699  49.661  1.00  0.00     0.189 HD
HETATM   25  N   UNL     1      26.791  38.276  49.453  1.00  0.00    -0.177 NA
HETATM   26  C   UNL     1      26.939  39.561  49.812  1.00  0.00     0.079 A 
HETATM   27  C   UNL     1      25.807  40.491  49.571  1.00  0.00     0.075 C 
ENDBRANCH   1  20
TORSDOF 5
ENDMDL
MODEL 3
REMARK VINA RESULT:      -7.8      2.610      3.103
REMARK  5 active torsions:
REMARK  status: ('A' for Active; 'I' for Inactive)
REMARK    1  A    between atoms: C_8  and  N_9 
REMARK       I    between atoms: N_9  and  C_10 
REMARK       I    between atoms: C_10  and  N_11 
REMARK    2  A    between atoms: N_11  and  C_12 
REMARK    3  A    between atoms: C_13  and  O_14 
REMARK    4  A    between atoms: O_14  and  C_15 
REMARK    5  A    between atoms: C_15  and  C_16 
ROOT
HETATM    1  N   UNL     1      27.323  42.821  51.966  1.00  0.00    -0.305 N 
HETATM    2  C   UNL     1      28.441  43.331  52.598  1.00  0.00     0.325 C 
HETATM    3  N   UNL     1      28.096  43.845  53.835  1.00  0.00    -0.306 N 
HETATM    4  O   UNL     1      29.576  43.328  52.141  1.00  0.00    -0.247 OA
HETATM    5  H   UNL     1      26.559  42.550  52.566  1.00  0.00     0.171 HD
HETATM    6  H   UNL     1      27.117  44.055  53.981  1.00  0.00     0.171 HD
ENDROOT
BRANCH   3   7
HETATM    7  C   UNL     1      28.961  44.332  54.842  1.00  0.00     0.071 A 
HETATM    8  C   UNL     1      28.717  45.631  55.325  1.00  0.00     0.096 A 
HETATM    9  C   UNL     1      29.492  46.172  56.353  1.00  0.00     0.041 A 
HETATM   10  C   UNL     1      30.543  45.426  56.885  1.00  0.00     0.026 A 
HETATM   11  C   UNL     1      30.801  44.146  56.396  1.00  0.00     0.036 A 
HETATM   12 CL   UNL     1      32.096  43.231  57.069  1.00  0.00    -0.084 Cl
HETATM   13  C   UNL     1      30.015  43.593  55.383  1.00  0.00     0.056 A 
BRANCH   8  14
HETATM   14  O   UNL     1      27.660  46.324  54.785  1.00  0.00    -0.340 OA
BRANCH  14  15
HETATM   15  C   UNL     1      27.875  47.749  54.804  1.00  0.00     0.293 C 
BRANCH  15  16
HETATM   16  C   UNL     1      26.678  48.445  55.429  1.00  0.00     0.408 C 
HETATM   17  F   UNL     1      25.571  48.297  54.665  1.00  0.00    -0.169 F 
HETATM   18  F   UNL     1      26.401  47.955  56.657  1.00  0.00    -0.169 F 
HETATM   19  F   UNL     1      26.910  49.770  55.562  1.00  0.00    -0.169 F 
ENDBRANCH  15  16
ENDBRANCH  14  15
ENDBRANCH   8  14
ENDBRANCH   3   7
BRANCH   1  20
HETATM   20  C   UNL     1      27.249  42.371  50.658  1.00  0.00     0.086 A 
HETATM   21  C   UNL     1      26.730  43.151  49.642  1.00  0.00     0.052 A 
HETATM   22  C   UNL     1      26.146  44.513  49.623  1.00  0.00     0.072 C 
HETATM   23  N   UNL     1      26.822  42.396  48.508  1.00  0.00    -0.280 N 
HETATM   24  H   UNL     1      26.527  42.637  47.569  1.00  0.00     0.189 HD
HETATM   25  N   UNL     1      27.386  41.201  48.698  1.00  0.00    -0.177 NA
HETATM   26  C   UNL     1      27.661  41.168  50.012  1.00  0.00     0.079 A 
HETATM   27  C   UNL     1      28.359  39.974  50.553  1.00  0.00     0.075 C 
ENDBRANCH   1  20
TORSDOF 5
ENDMDL
MODEL 4
REMARK VINA RESULT:      -7.7      9.691     11.845
REMARK  5 active torsions:
REMARK  status: ('A' for Active; 'I' for Inactive)
REMARK    1  A    between atoms: C_8  and  N_9 
REMARK       I    between atoms: N_9  and  C_10 
REMARK       I    between atoms: C_10  and  N_11 
REMARK    2  A    between atoms: N_11  and  C_12 
REMARK    3  A    between atoms: C_13  and  O_14 
REMARK    4  A    between atoms: O_14  and  C_15 
REMARK    5  A    between atoms: C_15  and  C_16 
ROOT
HETATM    1  N   UNL     1      23.001  48.499  49.594  1.00  0.00    -0.305 N 
HETATM    2  C   UNL     1      21.973  48.125  48.748  1.00  0.00     0.325 C 
HETATM    3  N   UNL     1      20.826  47.867  49.476  1.00  0.00    -0.306 N 
HETATM    4  O   UNL     1      22.055  48.039  47.530  1.00  0.00    -0.247 OA
HETATM    5  H   UNL     1      22.724  48.883  50.485  1.00  0.00     0.171 HD
HETATM    6  H   UNL     1      20.949  47.688  50.465  1.00  0.00     0.171 HD
ENDROOT
BRANCH   3   7
HETATM    7  C   UNL     1      19.531  47.590  48.982  1.00  0.00     0.071 A 
HETATM    8  C   UNL     1      18.519  48.525  49.273  1.00  0.00     0.096 A 
HETATM    9  C   UNL     1      17.223  48.355  48.783  1.00  0.00     0.041 A 
HETATM   10  C   UNL     1      16.919  47.226  48.023  1.00  0.00     0.026 A 
HETATM   11  C   UNL     1      17.913  46.288  47.748  1.00  0.00     0.036 A 
HETATM   12 CL   UNL     1      17.527  44.903  46.800  1.00  0.00    -0.084 Cl
HETATM   13  C   UNL     1      19.216  46.464  48.218  1.00  0.00     0.056 A 
BRANCH   8  14
HETATM   14  O   UNL     1      18.867  49.632  50.010  1.00  0.00    -0.340 OA
BRANCH  14  15
HETATM   15  C   UNL     1      18.611  50.860  49.301  1.00  0.00     0.293 C 
BRANCH  15  16
HETATM   16  C   UNL     1      19.907  51.404  48.723  1.00  0.00     0.408 C 
HETATM   17  F   UNL     1      19.793  52.717  48.415  1.00  0.00    -0.169 F 
HETATM   18  F   UNL     1      20.934  51.272  49.591  1.00  0.00    -0.169 F 
HETATM   19  F   UNL     1      20.241  50.745  47.592  1.00  0.00    -0.169 F 
ENDBRANCH  15  16
ENDBRANCH  14  15
ENDBRANCH   8  14
ENDBRANCH   3   7
BRANCH   1  20
HETATM   20  C   UNL     1      24.329  48.680  49.246  1.00  0.00     0.086 A 
HETATM   21  C   UNL     1      24.748  49.758  48.490  1.00  0.00     0.052 A 
HETATM   22  C   UNL     1      24.023  50.894  47.875  1.00  0.00     0.072 C 
HETATM   23  N   UNL     1      26.099  49.613  48.351  1.00  0.00    -0.280 N 
HETATM   24  H   UNL     1      26.746  50.210  47.848  1.00  0.00     0.189 HD
HETATM   25  N   UNL     1      26.596  48.545  48.980  1.00  0.00    -0.177 NA
HETATM   26  C   UNL     1      25.525  47.961  49.541  1.00  0.00     0.079 A 
HETATM   27  C   UNL     1      25.742  46.754  50.377  1.00  0.00     0.075 C 
ENDBRANCH   1  20
TORSDOF 5
ENDMDL
MODEL 5
REMARK VINA RESULT:      -7.5      2.459      3.547
REMARK  5 active torsions:
REMARK  status: ('A' for Active; 'I' for Inactive)
REMARK    1  A    between atoms: C_8  and  N_9 
REMARK       I    between atoms: N_9  and  C_10 
REMARK       I    between atoms: C_10  and  N_11 
REMARK    2  A    between atoms: N_11  and  C_12 
REMARK    3  A    between atoms: C_13  and  O_14 
REMARK    4  A    between atoms: O_14  and  C_15 
REMARK    5  A    between atoms: C_15  and  C_16 
ROOT
HETATM    1  N   UNL     1      25.564  41.943  51.406  1.00  0.00    -0.305 N 
HETATM    2  C   UNL     1      26.525  42.885  51.719  1.00  0.00     0.325 C 
HETATM    3  N   UNL     1      26.455  43.209  53.062  1.00  0.00    -0.306 N 
HETATM    4  O   UNL     1      27.330  43.364  50.932  1.00  0.00    -0.247 OA
HETATM    5  H   UNL     1      25.234  41.374  52.171  1.00  0.00     0.171 HD
HETATM    6  H   UNL     1      25.591  42.981  53.538  1.00  0.00     0.171 HD
ENDROOT
BRANCH   3   7
HETATM    7  C   UNL     1      27.340  44.024  53.804  1.00  0.00     0.071 A 
HETATM    8  C   UNL     1      26.910  45.329  54.108  1.00  0.00     0.096 A 
HETATM    9  C   UNL     1      27.701  46.184  54.879  1.00  0.00     0.041 A 
HETATM   10  C   UNL     1      28.949  45.749  55.324  1.00  0.00     0.026 A 
HETATM   11  C   UNL     1      29.388  44.464  55.009  1.00  0.00     0.036 A 
HETATM   12 CL   UNL     1      30.927  43.936  55.573  1.00  0.00    -0.084 Cl
HETATM   13  C   UNL     1      28.591  43.598  54.257  1.00  0.00     0.056 A 
BRANCH   8  14
HETATM   14  O   UNL     1      25.666  45.709  53.665  1.00  0.00    -0.340 OA
BRANCH  14  15
HETATM   15  C   UNL     1      25.726  46.847  52.783  1.00  0.00     0.293 C 
BRANCH  15  16
HETATM   16  C   UNL     1      25.162  46.477  51.422  1.00  0.00     0.408 C 
HETATM   17  F   UNL     1      26.148  46.169  50.549  1.00  0.00    -0.169 F 
HETATM   18  F   UNL     1      24.332  45.413  51.498  1.00  0.00    -0.169 F 
HETATM   19  F   UNL     1      24.459  47.506  50.899  1.00  0.00    -0.169 F 
ENDBRANCH  15  16
ENDBRANCH  14  15
ENDBRANCH   8  14
ENDBRANCH   3   7
BRANCH   1  20
HETATM   20  C   UNL     1      25.230  41.498  50.137  1.00  0.00     0.086 A 
HETATM   21  C   UNL     1      25.874  40.430  49.541  1.00  0.00     0.052 A 
HETATM   22  C   UNL     1      26.982  39.553  49.986  1.00  0.00     0.072 C 
HETATM   23  N   UNL     1      25.287  40.276  48.318  1.00  0.00    -0.280 N 
HETATM   24  H   UNL     1      25.508  39.599  47.597  1.00  0.00     0.189 HD
HETATM   25  N   UNL     1      24.294  41.138  48.082  1.00  0.00    -0.177 NA
HETATM   26  C   UNL     1      24.240  41.894  49.190  1.00  0.00     0.079 A 
HETATM   27  C   UNL     1      23.185  42.935  49.278  1.00  0.00     0.075 C 
ENDBRANCH   1  20
TORSDOF 5
ENDMDL
MODEL 6
REMARK VINA RESULT:      -7.4      2.025      2.337
REMARK  5 active torsions:
REMARK  status: ('A' for Active; 'I' for Inactive)
REMARK    1  A    between atoms: C_8  and  N_9 
REMARK       I    between atoms: N_9  and  C_10 
REMARK       I    between atoms: C_10  and  N_11 
REMARK    2  A    between atoms: N_11  and  C_12 
REMARK    3  A    between atoms: C_13  and  O_14 
REMARK    4  A    between atoms: O_14  and  C_15 
REMARK    5  A    between atoms: C_15  and  C_16 
ROOT
HETATM    1  N   UNL     1      28.453  40.695  50.424  1.00  0.00    -0.305 N 
HETATM    2  C   UNL     1      28.275  41.188  51.704  1.00  0.00     0.325 C 
HETATM    3  N   UNL     1      29.042  42.324  51.888  1.00  0.00    -0.306 N 
HETATM    4  O   UNL     1      27.541  40.702  52.553  1.00  0.00    -0.247 OA
HETATM    5  H   UNL     1      28.766  41.359  49.733  1.00  0.00     0.171 HD
HETATM    6  H   UNL     1      29.809  42.462  51.241  1.00  0.00     0.171 HD
ENDROOT
BRANCH   3   7
HETATM    7  C   UNL     1      29.042  43.198  52.998  1.00  0.00     0.071 A 
HETATM    8  C   UNL     1      27.953  44.081  53.122  1.00  0.00     0.096 A 
HETATM    9  C   UNL     1      27.848  44.944  54.214  1.00  0.00     0.041 A 
HETATM   10  C   UNL     1      28.855  44.954  55.179  1.00  0.00     0.026 A 
HETATM   11  C   UNL     1      29.946  44.095  55.052  1.00  0.00     0.036 A 
HETATM   12 CL   UNL     1      31.177  44.111  56.255  1.00  0.00    -0.084 Cl
HETATM   13  C   UNL     1      30.044  43.216  53.971  1.00  0.00     0.056 A 
BRANCH   8  14
HETATM   14  O   UNL     1      26.974  44.024  52.158  1.00  0.00    -0.340 OA
BRANCH  14  15
HETATM   15  C   UNL     1      26.795  45.288  51.489  1.00  0.00     0.293 C 
BRANCH  15  16
HETATM   16  C   UNL     1      26.835  45.086  49.983  1.00  0.00     0.408 C 
HETATM   17  F   UNL     1      27.224  43.830  49.667  1.00  0.00    -0.169 F 
HETATM   18  F   UNL     1      25.625  45.298  49.420  1.00  0.00    -0.169 F 
HETATM   19  F   UNL     1      27.709  45.942  49.409  1.00  0.00    -0.169 F 
ENDBRANCH  15  16
ENDBRANCH  14  15
ENDBRANCH   8  14
ENDBRANCH   3   7
BRANCH   1  20
HETATM   20  C   UNL     1      27.975  39.492  49.932  1.00  0.00     0.086 A 
HETATM   21  C   UNL     1      26.763  39.398  49.275  1.00  0.00     0.052 A 
HETATM   22  C   UNL     1      25.719  40.398  48.950  1.00  0.00     0.072 C 
HETATM   23  N   UNL     1      26.625  38.084  48.933  1.00  0.00    -0.280 N 
HETATM   24  H   UNL     1      25.852  37.639  48.449  1.00  0.00     0.189 HD
HETATM   25  N   UNL     1      27.662  37.321  49.287  1.00  0.00    -0.177 NA
HETATM   26  C   UNL     1      28.505  38.169  49.897  1.00  0.00     0.079 A 
HETATM   27  C   UNL     1      29.810  37.641  50.371  1.00  0.00     0.075 C 
ENDBRANCH   1  20
TORSDOF 5
ENDMDL
MODEL 7
REMARK VINA RESULT:      -7.4     13.783     15.244
REMARK  5 active torsions:
REMARK  status: ('A' for Active; 'I' for Inactive)
REMARK    1  A    between atoms: C_8  and  N_9 
REMARK       I    between atoms: N_9  and  C_10 
REMARK       I    between atoms: C_10  and  N_11 
REMARK    2  A    between atoms: N_11  and  C_12 
REMARK    3  A    between atoms: C_13  and  O_14 
REMARK    4  A    between atoms: O_14  and  C_15 
REMARK    5  A    between atoms: C_15  and  C_16 
ROOT
HETATM    1  N   UNL     1      32.531  50.604  41.658  1.00  0.00    -0.305 N 
HETATM    2  C   UNL     1      31.665  49.559  41.920  1.00  0.00     0.325 C 
HETATM    3  N   UNL     1      30.744  49.435  40.895  1.00  0.00    -0.306 N 
HETATM    4  O   UNL     1      31.704  48.838  42.908  1.00  0.00    -0.247 OA
HETATM    5  H   UNL     1      32.633  50.863  40.689  1.00  0.00     0.171 HD
HETATM    6  H   UNL     1      30.624  50.242  40.295  1.00  0.00     0.171 HD
ENDROOT
BRANCH   3   7
HETATM    7  C   UNL     1      29.781  48.417  40.715  1.00  0.00     0.071 A 
HETATM    8  C   UNL     1      28.502  48.638  41.260  1.00  0.00     0.096 A 
HETATM    9  C   UNL     1      27.476  47.706  41.087  1.00  0.00     0.041 A 
HETATM   10  C   UNL     1      27.734  46.524  40.392  1.00  0.00     0.026 A 
HETATM   11  C   UNL     1      29.005  46.291  39.867  1.00  0.00     0.036 A 
HETATM   12 CL   UNL     1      29.306  44.833  39.003  1.00  0.00    -0.084 Cl
HETATM   13  C   UNL     1      30.027  47.231  40.020  1.00  0.00     0.056 A 
BRANCH   8  14
HETATM   14  O   UNL     1      28.287  49.824  41.920  1.00  0.00    -0.340 OA
BRANCH  14  15
HETATM   15  C   UNL     1      27.526  50.758  41.129  1.00  0.00     0.293 C 
BRANCH  15  16
HETATM   16  C   UNL     1      28.131  52.147  41.244  1.00  0.00     0.408 C 
HETATM   17  F   UNL     1      29.168  52.160  42.113  1.00  0.00    -0.169 F 
HETATM   18  F   UNL     1      28.585  52.594  40.053  1.00  0.00    -0.169 F 
HETATM   19  F   UNL     1      27.213  53.033  41.689  1.00  0.00    -0.169 F 
ENDBRANCH  15  16
ENDBRANCH  14  15
ENDBRANCH   8  14
ENDBRANCH   3   7
BRANCH   1  20
HETATM   20  C   UNL     1      33.478  51.125  42.524  1.00  0.00     0.086 A 
HETATM   21  C   UNL     1      34.826  51.135  42.217  1.00  0.00     0.052 A 
HETATM   22  C   UNL     1      35.591  50.645  41.046  1.00  0.00     0.072 C 
HETATM   23  N   UNL     1      35.447  51.719  43.283  1.00  0.00    -0.280 N 
HETATM   24  H   UNL     1      36.438  51.886  43.418  1.00  0.00     0.189 HD
HETATM   25  N   UNL     1      34.610  52.117  44.245  1.00  0.00    -0.177 NA
HETATM   26  C   UNL     1      33.395  51.766  43.795  1.00  0.00     0.079 A 
HETATM   27  C   UNL     1      32.212  52.123  44.618  1.00  0.00     0.075 C 
ENDBRANCH   1  20
TORSDOF 5
ENDMDL
MODEL 8
REMARK VINA RESULT:      -7.3      2.973      6.309
REMARK  5 active torsions:
REMARK  status: ('A' for Active; 'I' for Inactive)
REMARK    1  A    between atoms: C_8  and  N_9 
REMARK       I    between atoms: N_9  and  C_10 
REMARK       I    between atoms: C_10  and  N_11 
REMARK    2  A    between atoms: N_11  and  C_12 
REMARK    3  A    between atoms: C_13  and  O_14 
REMARK    4  A    between atoms: O_14  and  C_15 
REMARK    5  A    between atoms: C_15  and  C_16 
ROOT
HETATM    1  N   UNL     1      27.969  43.482  54.173  1.00  0.00    -0.305 N 
HETATM    2  C   UNL     1      28.297  42.952  52.939  1.00  0.00     0.325 C 
HETATM    3  N   UNL     1      27.487  41.866  52.656  1.00  0.00    -0.306 N 
HETATM    4  O   UNL     1      29.169  43.379  52.195  1.00  0.00    -0.247 OA
HETATM    5  H   UNL     1      27.034  43.294  54.502  1.00  0.00     0.171 HD
HETATM    6  H   UNL     1      27.018  41.435  53.443  1.00  0.00     0.171 HD
ENDROOT
BRANCH   3   7
HETATM    7  C   UNL     1      27.410  41.135  51.449  1.00  0.00     0.071 A 
HETATM    8  C   UNL     1      26.279  41.349  50.639  1.00  0.00     0.096 A 
HETATM    9  C   UNL     1      26.146  40.706  49.407  1.00  0.00     0.041 A 
HETATM   10  C   UNL     1      27.132  39.813  48.989  1.00  0.00     0.026 A 
HETATM   11  C   UNL     1      28.246  39.583  49.797  1.00  0.00     0.036 A 
HETATM   12 CL   UNL     1      29.461  38.485  49.265  1.00  0.00    -0.084 Cl
HETATM   13  C   UNL     1      28.393  40.240  51.020  1.00  0.00     0.056 A 
BRANCH   8  14
HETATM   14  O   UNL     1      25.341  42.252  51.081  1.00  0.00    -0.340 OA
BRANCH  14  15
HETATM   15  C   UNL     1      25.429  43.512  50.387  1.00  0.00     0.293 C 
BRANCH  15  16
HETATM   16  C   UNL     1      25.374  44.657  51.385  1.00  0.00     0.408 C 
HETATM   17  F   UNL     1      24.384  45.526  51.079  1.00  0.00    -0.169 F 
HETATM   18  F   UNL     1      25.160  44.212  52.643  1.00  0.00    -0.169 F 
HETATM   19  F   UNL     1      26.537  45.345  51.387  1.00  0.00    -0.169 F 
ENDBRANCH  15  16
ENDBRANCH  14  15
ENDBRANCH   8  14
ENDBRANCH   3   7
BRANCH   1  20
HETATM   20  C   UNL     1      28.661  44.468  54.856  1.00  0.00     0.086 A 
HETATM   21  C   UNL     1      28.166  45.751  54.992  1.00  0.00     0.052 A 
HETATM   22  C   UNL     1      26.928  46.404  54.506  1.00  0.00     0.072 C 
HETATM   23  N   UNL     1      29.099  46.436  55.717  1.00  0.00    -0.280 N 
HETATM   24  H   UNL     1      29.082  47.409  56.000  1.00  0.00     0.189 HD
HETATM   25  N   UNL     1      30.146  45.695  56.088  1.00  0.00    -0.177 NA
HETATM   26  C   UNL     1      29.893  44.481  55.574  1.00  0.00     0.079 A 
HETATM   27  C   UNL     1      30.855  43.385  55.857  1.00  0.00     0.075 C 
ENDBRANCH   1  20
TORSDOF 5
ENDMDL
MODEL 9
REMARK VINA RESULT:      -7.2      3.883      7.271
REMARK  5 active torsions:
REMARK  status: ('A' for Active; 'I' for Inactive)
REMARK    1  A    between atoms: C_8  and  N_9 
REMARK       I    between atoms: N_9  and  C_10 
REMARK       I    between atoms: C_10  and  N_11 
REMARK    2  A    between atoms: N_11  and  C_12 
REMARK    3  A    between atoms: C_13  and  O_14 
REMARK    4  A    between atoms: O_14  and  C_15 
REMARK    5  A    between atoms: C_15  and  C_16 
ROOT
HETATM    1  N   UNL     1      26.525  44.424  53.557  1.00  0.00    -0.305 N 
HETATM    2  C   UNL     1      26.574  44.103  52.213  1.00  0.00     0.325 C 
HETATM    3  N   UNL     1      25.560  43.215  51.898  1.00  0.00    -0.306 N 
HETATM    4  O   UNL     1      27.385  44.541  51.410  1.00  0.00    -0.247 OA
HETATM    5  H   UNL     1      25.631  44.307  54.009  1.00  0.00     0.171 HD
HETATM    6  H   UNL     1      25.146  42.709  52.671  1.00  0.00     0.171 HD
ENDROOT
BRANCH   3   7
HETATM    7  C   UNL     1      25.184  42.750  50.618  1.00  0.00     0.071 A 
HETATM    8  C   UNL     1      25.588  41.449  50.263  1.00  0.00     0.096 A 
HETATM    9  C   UNL     1      25.218  40.892  49.037  1.00  0.00     0.041 A 
HETATM   10  C   UNL     1      24.466  41.648  48.139  1.00  0.00     0.026 A 
HETATM   11  C   UNL     1      24.080  42.945  48.478  1.00  0.00     0.036 A 
HETATM   12 CL   UNL     1      23.143  43.865  47.364  1.00  0.00    -0.084 Cl
HETATM   13  C   UNL     1      24.430  43.498  49.712  1.00  0.00     0.056 A 
BRANCH   8  14
HETATM   14  O   UNL     1      26.312  40.733  51.185  1.00  0.00    -0.340 OA
BRANCH  14  15
HETATM   15  C   UNL     1      27.717  40.697  50.866  1.00  0.00     0.293 C 
BRANCH  15  16
HETATM   16  C   UNL     1      28.539  40.948  52.119  1.00  0.00     0.408 C 
HETATM   17  F   UNL     1      29.293  42.065  51.995  1.00  0.00    -0.169 F 
HETATM   18  F   UNL     1      27.755  41.099  53.208  1.00  0.00    -0.169 F 
HETATM   19  F   UNL     1      29.376  39.914  52.359  1.00  0.00    -0.169 F 
ENDBRANCH  15  16
ENDBRANCH  14  15
ENDBRANCH   8  14
ENDBRANCH   3   7
BRANCH   1  20
HETATM   20  C   UNL     1      27.466  45.153  54.264  1.00  0.00     0.086 A 
HETATM   21  C   UNL     1      27.257  46.474  54.616  1.00  0.00     0.052 A 
HETATM   22  C   UNL     1      26.136  47.411  54.371  1.00  0.00     0.072 C 
HETATM   23  N   UNL     1      28.376  46.859  55.297  1.00  0.00    -0.280 N 
HETATM   24  H   UNL     1      28.585  47.767  55.698  1.00  0.00     0.189 HD
HETATM   25  N   UNL     1      29.282  45.889  55.442  1.00  0.00    -0.177 NA
HETATM   26  C   UNL     1      28.740  44.831  54.819  1.00  0.00     0.079 A 
HETATM   27  C   UNL     1      29.482  43.545  54.845  1.00  0.00     0.075 C 
ENDBRANCH   1  20
TORSDOF 5
ENDMDL
MODEL 10
REMARK VINA RESULT:      -7.2     14.025     15.439
REMARK  5 active torsions:
REMARK  status: ('A' for Active; 'I' for Inactive)
REMARK    1  A    between atoms: C_8  and  N_9 
REMARK       I    between atoms: N_9  and  C_10 
REMARK       I    between atoms: C_10  and  N_11 
REMARK    2  A    between atoms: N_11  and  C_12 
REMARK    3  A    between atoms: C_13  and  O_14 
REMARK    4  A    between atoms: O_14  and  C_15 
REMARK    5  A    between atoms: C_15  and  C_16 
ROOT
HETATM    1  N   UNL     1      32.533  49.790  42.626  1.00  0.00    -0.305 N 
HETATM    2  C   UNL     1      31.763  49.614  41.492  1.00  0.00     0.325 C 
HETATM    3  N   UNL     1      30.989  48.474  41.613  1.00  0.00    -0.306 N 
HETATM    4  O   UNL     1      31.754  50.357  40.520  1.00  0.00    -0.247 OA
HETATM    5  H   UNL     1      32.190  49.351  43.467  1.00  0.00     0.171 HD
HETATM    6  H   UNL     1      31.284  47.799  42.308  1.00  0.00     0.171 HD
ENDROOT
BRANCH   3   7
HETATM    7  C   UNL     1      29.975  48.018  40.740  1.00  0.00     0.071 A 
HETATM    8  C   UNL     1      28.703  48.608  40.868  1.00  0.00     0.096 A 
HETATM    9  C   UNL     1      27.658  48.253  40.014  1.00  0.00     0.041 A 
HETATM   10  C   UNL     1      27.868  47.275  39.041  1.00  0.00     0.026 A 
HETATM   11  C   UNL     1      29.121  46.674  38.923  1.00  0.00     0.036 A 
HETATM   12 CL   UNL     1      29.371  45.476  37.711  1.00  0.00    -0.084 Cl
HETATM   13  C   UNL     1      30.175  47.042  39.762  1.00  0.00     0.056 A 
BRANCH   8  14
HETATM   14  O   UNL     1      28.546  49.580  41.828  1.00  0.00    -0.340 OA
BRANCH  14  15
HETATM   15  C   UNL     1      27.699  50.656  41.378  1.00  0.00     0.293 C 
BRANCH  15  16
HETATM   16  C   UNL     1      28.490  51.952  41.332  1.00  0.00     0.408 C 
HETATM   17  F   UNL     1      29.060  52.137  40.119  1.00  0.00    -0.169 F 
HETATM   18  F   UNL     1      27.708  53.023  41.588  1.00  0.00    -0.169 F 
HETATM   19  F   UNL     1      29.480  51.941  42.252  1.00  0.00    -0.169 F 
ENDBRANCH  15  16
ENDBRANCH  14  15
ENDBRANCH   8  14
ENDBRANCH   3   7
BRANCH   1  20
HETATM   20  C   UNL     1      33.539  50.725  42.801  1.00  0.00     0.086 A 
HETATM   21  C   UNL     1      33.486  51.681  43.798  1.00  0.00     0.052 A 
HETATM   22  C   UNL     1      32.477  51.990  44.838  1.00  0.00     0.072 C 
HETATM   23  N   UNL     1      34.632  52.414  43.673  1.00  0.00    -0.280 N 
HETATM   24  H   UNL     1      34.931  53.209  44.226  1.00  0.00     0.189 HD
HETATM   25  N   UNL     1      35.439  51.994  42.695  1.00  0.00    -0.177 NA
HETATM   26  C   UNL     1      34.788  50.953  42.151  1.00  0.00     0.079 A 
HETATM   27  C   UNL     1      35.452  50.208  41.051  1.00  0.00     0.075 C 
ENDBRANCH   1  20
TORSDOF 5
ENDMDL
