MODEL 1
REMARK VINA RESULT:      -9.5      0.000      0.000
REMARK  7 active torsions:
REMARK  status: ('A' for Active; 'I' for Inactive)
REMARK    1  A    between atoms: C_2  and  O_3 
REMARK    2  A    between atoms: O_3  and  C_4 
REMARK    3  A    between atoms: C_7  and  N_8 
REMARK       I    between atoms: N_8  and  C_9 
REMARK    4  A    between atoms: C_9  and  C_10 
REMARK    5  A    between atoms: C_10  and  S_11 
REMARK    6  A    between atoms: S_11  and  C_12 
REMARK    7  A    between atoms: N_13  and  C_14 
ROOT
HETATM    1  C   UNL     1      25.965  45.439  49.950  1.00  0.00     0.178 A 
HETATM    2  N   UNL     1      25.741  44.824  51.210  1.00  0.00    -0.255 N 
HETATM    3  C   UNL     1      24.736  43.845  51.382  1.00  0.00     0.270 A 
HETATM    4  O   UNL     1      24.490  43.234  52.417  1.00  0.00    -0.266 OA
HETATM    5  C   UNL     1      23.963  43.625  50.195  1.00  0.00     0.099 A 
HETATM    6  C   UNL     1      24.263  44.325  49.061  1.00  0.00     0.164 A 
HETATM    7  N   UNL     1      23.378  43.904  48.113  1.00  0.00    -0.260 N 
HETATM    8  H   UNL     1      23.320  44.198  47.145  1.00  0.00     0.191 HD
HETATM    9  N   UNL     1      22.502  42.986  48.578  1.00  0.00    -0.184 NA
HETATM   10  C   UNL     1      22.871  42.817  49.856  1.00  0.00     0.159 A 
HETATM   11  N   UNL     1      25.240  45.233  48.883  1.00  0.00    -0.204 NA
ENDROOT
BRANCH   1  12
HETATM   12  S   UNL     1      27.299  46.582  49.784  1.00  0.00    -0.082 SA
BRANCH  12  13
HETATM   13  C   UNL     1      26.484  48.156  50.165  1.00  0.00     0.185 C 
BRANCH  13  14
HETATM   14  C   UNL     1      26.625  49.111  49.000  1.00  0.00     0.231 C 
HETATM   15  N   UNL     1      25.544  49.609  48.330  1.00  0.00    -0.327 N 
HETATM   16  H   UNL     1      25.838  50.061  47.470  1.00  0.00     0.169 HD
HETATM   17  O   UNL     1      27.747  49.419  48.575  1.00  0.00    -0.272 OA
BRANCH  15  18
HETATM   18  C   UNL     1      24.164  49.660  48.601  1.00  0.00     0.034 A 
HETATM   19  C   UNL     1      23.441  50.817  48.875  1.00  0.00     0.032 A 
HETATM   20  C   UNL     1      22.060  50.757  49.101  1.00  0.00     0.039 A 
HETATM   21  C   UNL     1      21.371  49.548  49.029  1.00  0.00     0.068 A 
HETATM   22  C   UNL     1      22.081  48.387  48.740  1.00  0.00     0.039 A 
HETATM   23  C   UNL     1      23.465  48.447  48.519  1.00  0.00     0.032 A 
BRANCH  21  24
HETATM   24  O   UNL     1      20.028  49.639  49.257  1.00  0.00    -0.352 OA
BRANCH  24  25
HETATM   25  C   UNL     1      19.374  48.471  49.750  1.00  0.00     0.171 C 
HETATM   26  C   UNL     1      18.689  48.835  51.055  1.00  0.00     0.034 C 
ENDBRANCH  24  25
ENDBRANCH  21  24
ENDBRANCH  15  18
ENDBRANCH  13  14
ENDBRANCH  12  13
ENDBRANCH   1  12
BRANCH   2  27
HETATM   27  C   UNL     1      26.513  45.141  52.375  1.00  0.00     0.056 A 
HETATM   28  C   UNL     1      27.652  44.376  52.763  1.00  0.00     0.002 A 
HETATM   29  C   UNL     1      28.337  44.746  53.949  1.00  0.00    -0.024 A 
HETATM   30  C   UNL     1      28.171  43.281  52.027  1.00  0.00     0.014 A 
HETATM   31  C   UNL     1      29.444  44.001  54.385  1.00  0.00     0.012 A 
HETATM   32  C   UNL     1      27.918  45.868  54.680  1.00  0.00     0.012 A 
HETATM   33  C   UNL     1      29.904  42.904  53.659  1.00  0.00     0.001 A 
HETATM   34  C   UNL     1      29.273  42.549  52.474  1.00  0.00     0.001 A 
HETATM   35  C   UNL     1      26.836  46.637  54.260  1.00  0.00     0.003 A 
HETATM   36  C   UNL     1      26.137  46.276  53.115  1.00  0.00     0.031 A 
ENDBRANCH   2  27
TORSDOF 7
ENDMDL
MODEL 2
REMARK VINA RESULT:      -9.3     10.981     12.483
REMARK  7 active torsions:
REMARK  status: ('A' for Active; 'I' for Inactive)
REMARK    1  A    between atoms: C_2  and  O_3 
REMARK    2  A    between atoms: O_3  and  C_4 
REMARK    3  A    between atoms: C_7  and  N_8 
REMARK       I    between atoms: N_8  and  C_9 
REMARK    4  A    between atoms: C_9  and  C_10 
REMARK    5  A    between atoms: C_10  and  S_11 
REMARK    6  A    between atoms: S_11  and  C_12 
REMARK    7  A    between atoms: N_13  and  C_14 
ROOT
HETATM    1  C   UNL     1      31.803  50.223  39.300  1.00  0.00     0.178 A 
HETATM    2  N   UNL     1      32.523  49.492  40.281  1.00  0.00    -0.255 N 
HETATM    3  C   UNL     1      32.221  48.139  40.559  1.00  0.00     0.270 A 
HETATM    4  O   UNL     1      32.806  47.416  41.359  1.00  0.00    -0.266 OA
HETATM    5  C   UNL     1      31.097  47.655  39.812  1.00  0.00     0.099 A 
HETATM    6  C   UNL     1      30.467  48.488  38.932  1.00  0.00     0.164 A 
HETATM    7  N   UNL     1      29.460  47.757  38.375  1.00  0.00    -0.260 N 
HETATM    8  H   UNL     1      28.799  48.052  37.666  1.00  0.00     0.191 HD
HETATM    9  N   UNL     1      29.386  46.500  38.866  1.00  0.00    -0.184 NA
HETATM   10  C   UNL     1      30.397  46.444  39.744  1.00  0.00     0.159 A 
HETATM   11  N   UNL     1      30.773  49.766  38.640  1.00  0.00    -0.204 NA
ENDROOT
BRANCH   1  12
HETATM   12  S   UNL     1      32.296  51.878  38.937  1.00  0.00    -0.082 SA
BRANCH  12  13
HETATM   13  C   UNL     1      30.733  52.776  39.121  1.00  0.00     0.185 C 
BRANCH  13  14
HETATM   14  C   UNL     1      30.464  53.061  40.584  1.00  0.00     0.231 C 
HETATM   15  N   UNL     1      29.443  52.465  41.267  1.00  0.00    -0.327 N 
HETATM   16  H   UNL     1      29.298  52.926  42.159  1.00  0.00     0.169 HD
HETATM   17  O   UNL     1      31.135  53.907  41.190  1.00  0.00    -0.272 OA
BRANCH  15  18
HETATM   18  C   UNL     1      28.612  51.357  41.013  1.00  0.00     0.034 A 
HETATM   19  C   UNL     1      27.624  51.303  40.034  1.00  0.00     0.032 A 
HETATM   20  C   UNL     1      26.873  50.135  39.845  1.00  0.00     0.039 A 
HETATM   21  C   UNL     1      27.112  48.995  40.610  1.00  0.00     0.068 A 
HETATM   22  C   UNL     1      28.108  49.033  41.580  1.00  0.00     0.039 A 
HETATM   23  C   UNL     1      28.856  50.204  41.771  1.00  0.00     0.032 A 
BRANCH  21  24
HETATM   24  O   UNL     1      26.316  47.927  40.309  1.00  0.00    -0.352 OA
BRANCH  24  25
HETATM   25  C   UNL     1      25.152  48.187  39.526  1.00  0.00     0.171 C 
HETATM   26  C   UNL     1      23.939  47.778  40.344  1.00  0.00     0.034 C 
ENDBRANCH  24  25
ENDBRANCH  21  24
ENDBRANCH  15  18
ENDBRANCH  13  14
ENDBRANCH  12  13
ENDBRANCH   1  12
BRANCH   2  27
HETATM   27  C   UNL     1      33.597  50.063  41.040  1.00  0.00     0.056 A 
HETATM   28  C   UNL     1      33.379  50.734  42.278  1.00  0.00     0.002 A 
HETATM   29  C   UNL     1      34.499  51.295  42.944  1.00  0.00    -0.024 A 
HETATM   30  C   UNL     1      32.116  50.857  42.912  1.00  0.00     0.014 A 
HETATM   31  C   UNL     1      34.325  51.992  44.151  1.00  0.00     0.012 A 
HETATM   32  C   UNL     1      35.785  51.139  42.406  1.00  0.00     0.012 A 
HETATM   33  C   UNL     1      33.064  52.131  44.726  1.00  0.00     0.001 A 
HETATM   34  C   UNL     1      31.960  51.555  44.112  1.00  0.00     0.001 A 
HETATM   35  C   UNL     1      35.989  50.435  41.222  1.00  0.00     0.003 A 
HETATM   36  C   UNL     1      34.901  49.900  40.542  1.00  0.00     0.031 A 
ENDBRANCH   2  27
TORSDOF 7
ENDMDL
MODEL 3
REMARK VINA RESULT:      -9.2      3.029      8.455
REMARK  7 active torsions:
REMARK  status: ('A' for Active; 'I' for Inactive)
REMARK    1  A    between atoms: C_2  and  O_3 
REMARK    2  A    between atoms: O_3  and  C_4 
REMARK    3  A    between atoms: C_7  and  N_8 
REMARK       I    between atoms: N_8  and  C_9 
REMARK    4  A    between atoms: C_9  and  C_10 
REMARK    5  A    between atoms: C_10  and  S_11 
REMARK    6  A    between atoms: S_11  and  C_12 
REMARK    7  A    between atoms: N_13  and  C_14 
ROOT
HETATM    1  C   UNL     1      21.825  48.605  47.914  1.00  0.00     0.178 A 
HETATM    2  N   UNL     1      20.455  48.712  48.269  1.00  0.00    -0.255 N 
HETATM    3  C   UNL     1      19.669  47.565  48.523  1.00  0.00     0.270 A 
HETATM    4  O   UNL     1      18.492  47.555  48.869  1.00  0.00    -0.266 OA
HETATM    5  C   UNL     1      20.385  46.341  48.309  1.00  0.00     0.099 A 
HETATM    6  C   UNL     1      21.693  46.389  47.922  1.00  0.00     0.164 A 
HETATM    7  N   UNL     1      22.100  45.093  47.808  1.00  0.00    -0.260 N 
HETATM    8  H   UNL     1      23.020  44.752  47.555  1.00  0.00     0.191 HD
HETATM    9  N   UNL     1      21.117  44.204  48.075  1.00  0.00    -0.184 NA
HETATM   10  C   UNL     1      20.069  44.979  48.387  1.00  0.00     0.159 A 
HETATM   11  N   UNL     1      22.454  47.479  47.712  1.00  0.00    -0.204 NA
ENDROOT
BRANCH   1  12
HETATM   12  S   UNL     1      22.770  50.080  47.705  1.00  0.00    -0.082 SA
BRANCH  12  13
HETATM   13  C   UNL     1      23.976  49.939  49.050  1.00  0.00     0.185 C 
BRANCH  13  14
HETATM   14  C   UNL     1      25.312  49.477  48.507  1.00  0.00     0.231 C 
HETATM   15  N   UNL     1      26.040  48.488  49.105  1.00  0.00    -0.327 N 
HETATM   16  H   UNL     1      26.980  48.462  48.723  1.00  0.00     0.169 HD
HETATM   17  O   UNL     1      25.817  50.041  47.527  1.00  0.00    -0.272 OA
BRANCH  15  18
HETATM   18  C   UNL     1      25.750  47.510  50.074  1.00  0.00     0.034 A 
HETATM   19  C   UNL     1      26.053  47.608  51.429  1.00  0.00     0.032 A 
HETATM   20  C   UNL     1      25.690  46.585  52.316  1.00  0.00     0.039 A 
HETATM   21  C   UNL     1      24.994  45.462  51.871  1.00  0.00     0.068 A 
HETATM   22  C   UNL     1      24.672  45.362  50.522  1.00  0.00     0.039 A 
HETATM   23  C   UNL     1      25.040  46.384  49.635  1.00  0.00     0.032 A 
BRANCH  21  24
HETATM   24  O   UNL     1      24.694  44.553  52.845  1.00  0.00    -0.352 OA
BRANCH  24  25
HETATM   25  C   UNL     1      25.360  44.701  54.098  1.00  0.00     0.171 C 
HETATM   26  C   UNL     1      26.514  43.715  54.131  1.00  0.00     0.034 C 
ENDBRANCH  24  25
ENDBRANCH  21  24
ENDBRANCH  15  18
ENDBRANCH  13  14
ENDBRANCH  12  13
ENDBRANCH   1  12
BRANCH   2  27
HETATM   27  C   UNL     1      19.785  49.972  48.402  1.00  0.00     0.056 A 
HETATM   28  C   UNL     1      19.045  50.556  47.332  1.00  0.00     0.002 A 
HETATM   29  C   UNL     1      18.441  51.821  47.545  1.00  0.00    -0.024 A 
HETATM   30  C   UNL     1      18.844  49.943  46.069  1.00  0.00     0.014 A 
HETATM   31  C   UNL     1      17.729  52.446  46.509  1.00  0.00     0.012 A 
HETATM   32  C   UNL     1      18.539  52.443  48.799  1.00  0.00     0.012 A 
HETATM   33  C   UNL     1      17.586  51.835  45.264  1.00  0.00     0.001 A 
HETATM   34  C   UNL     1      18.135  50.579  45.047  1.00  0.00     0.001 A 
HETATM   35  C   UNL     1      19.221  51.837  49.851  1.00  0.00     0.003 A 
HETATM   36  C   UNL     1      19.841  50.609  49.654  1.00  0.00     0.031 A 
ENDBRANCH   2  27
TORSDOF 7
ENDMDL
MODEL 4
REMARK VINA RESULT:      -9.2      1.033      2.210
REMARK  7 active torsions:
REMARK  status: ('A' for Active; 'I' for Inactive)
REMARK    1  A    between atoms: C_2  and  O_3 
REMARK    2  A    between atoms: O_3  and  C_4 
REMARK    3  A    between atoms: C_7  and  N_8 
REMARK       I    between atoms: N_8  and  C_9 
REMARK    4  A    between atoms: C_9  and  C_10 
REMARK    5  A    between atoms: C_10  and  S_11 
REMARK    6  A    between atoms: S_11  and  C_12 
REMARK    7  A    between atoms: N_13  and  C_14 
ROOT
HETATM    1  C   UNL     1      25.750  45.629  49.914  1.00  0.00     0.178 A 
HETATM    2  N   UNL     1      25.653  44.777  51.045  1.00  0.00    -0.255 N 
HETATM    3  C   UNL     1      24.542  43.921  51.228  1.00  0.00     0.270 A 
HETATM    4  O   UNL     1      24.384  43.126  52.148  1.00  0.00    -0.266 OA
HETATM    5  C   UNL     1      23.544  44.080  50.211  1.00  0.00     0.099 A 
HETATM    6  C   UNL     1      23.751  44.975  49.201  1.00  0.00     0.164 A 
HETATM    7  N   UNL     1      22.653  44.899  48.397  1.00  0.00    -0.260 N 
HETATM    8  H   UNL     1      22.474  45.412  47.542  1.00  0.00     0.191 HD
HETATM    9  N   UNL     1      21.730  44.018  48.845  1.00  0.00    -0.184 NA
HETATM   10  C   UNL     1      22.287  43.516  49.956  1.00  0.00     0.159 A 
HETATM   11  N   UNL     1      24.822  45.767  49.005  1.00  0.00    -0.204 NA
ENDROOT
BRANCH   1  12
HETATM   12  S   UNL     1      27.208  46.599  49.700  1.00  0.00    -0.082 SA
BRANCH  12  13
HETATM   13  C   UNL     1      26.608  48.260  50.109  1.00  0.00     0.185 C 
BRANCH  13  14
HETATM   14  C   UNL     1      26.857  49.204  48.952  1.00  0.00     0.231 C 
HETATM   15  N   UNL     1      25.837  49.769  48.239  1.00  0.00    -0.327 N 
HETATM   16  H   UNL     1      26.195  50.200  47.393  1.00  0.00     0.169 HD
HETATM   17  O   UNL     1      28.012  49.441  48.575  1.00  0.00    -0.272 OA
BRANCH  15  18
HETATM   18  C   UNL     1      24.453  49.906  48.453  1.00  0.00     0.034 A 
HETATM   19  C   UNL     1      23.793  51.108  48.692  1.00  0.00     0.032 A 
HETATM   20  C   UNL     1      22.402  51.135  48.861  1.00  0.00     0.039 A 
HETATM   21  C   UNL     1      21.644  49.969  48.767  1.00  0.00     0.068 A 
HETATM   22  C   UNL     1      22.292  48.765  48.513  1.00  0.00     0.039 A 
HETATM   23  C   UNL     1      23.684  48.738  48.348  1.00  0.00     0.032 A 
BRANCH  21  24
HETATM   24  O   UNL     1      20.301  50.145  48.939  1.00  0.00    -0.352 OA
BRANCH  24  25
HETATM   25  C   UNL     1      19.884  51.331  49.613  1.00  0.00     0.171 C 
HETATM   26  C   UNL     1      19.038  52.142  48.647  1.00  0.00     0.034 C 
ENDBRANCH  24  25
ENDBRANCH  21  24
ENDBRANCH  15  18
ENDBRANCH  13  14
ENDBRANCH  12  13
ENDBRANCH   1  12
BRANCH   2  27
HETATM   27  C   UNL     1      26.663  44.718  52.060  1.00  0.00     0.056 A 
HETATM   28  C   UNL     1      26.732  45.670  53.119  1.00  0.00     0.002 A 
HETATM   29  C   UNL     1      27.785  45.550  54.062  1.00  0.00    -0.024 A 
HETATM   30  C   UNL     1      25.797  46.718  53.316  1.00  0.00     0.014 A 
HETATM   31  C   UNL     1      27.908  46.484  55.102  1.00  0.00     0.012 A 
HETATM   32  C   UNL     1      28.696  44.488  53.964  1.00  0.00     0.012 A 
HETATM   33  C   UNL     1      26.997  47.529  55.244  1.00  0.00     0.001 A 
HETATM   34  C   UNL     1      25.935  47.640  54.356  1.00  0.00     0.001 A 
HETATM   35  C   UNL     1      28.585  43.535  52.955  1.00  0.00     0.003 A 
HETATM   36  C   UNL     1      27.575  43.650  52.007  1.00  0.00     0.031 A 
ENDBRANCH   2  27
TORSDOF 7
ENDMDL
MODEL 5
REMARK VINA RESULT:      -9.0      2.183      8.710
REMARK  7 active torsions:
REMARK  status: ('A' for Active; 'I' for Inactive)
REMARK    1  A    between atoms: C_2  and  O_3 
REMARK    2  A    between atoms: O_3  and  C_4 
REMARK    3  A    between atoms: C_7  and  N_8 
REMARK       I    between atoms: N_8  and  C_9 
REMARK    4  A    between atoms: C_9  and  C_10 
REMARK    5  A    between atoms: C_10  and  S_11 
REMARK    6  A    between atoms: S_11  and  C_12 
REMARK    7  A    between atoms: N_13  and  C_14 
ROOT
HETATM    1  C   UNL     1      24.577  47.252  49.492  1.00  0.00     0.178 A 
HETATM    2  N   UNL     1      23.875  48.214  48.718  1.00  0.00    -0.255 N 
HETATM    3  C   UNL     1      24.531  49.342  48.176  1.00  0.00     0.270 A 
HETATM    4  O   UNL     1      24.021  50.205  47.468  1.00  0.00    -0.266 OA
HETATM    5  C   UNL     1      25.911  49.422  48.558  1.00  0.00     0.099 A 
HETATM    6  C   UNL     1      26.444  48.445  49.348  1.00  0.00     0.164 A 
HETATM    7  N   UNL     1      27.752  48.782  49.533  1.00  0.00    -0.260 N 
HETATM    8  H   UNL     1      28.456  48.273  50.055  1.00  0.00     0.191 HD
HETATM    9  N   UNL     1      28.090  49.941  48.925  1.00  0.00    -0.184 NA
HETATM   10  C   UNL     1      26.955  50.325  48.325  1.00  0.00     0.159 A 
HETATM   11  N   UNL     1      25.833  47.351  49.839  1.00  0.00    -0.204 NA
ENDROOT
BRANCH   1  12
HETATM   12  S   UNL     1      23.717  45.819  50.057  1.00  0.00    -0.082 SA
BRANCH  12  13
HETATM   13  C   UNL     1      25.084  44.673  50.379  1.00  0.00     0.185 C 
BRANCH  13  14
HETATM   14  C   UNL     1      24.666  43.636  51.399  1.00  0.00     0.231 C 
HETATM   15  N   UNL     1      25.341  43.455  52.573  1.00  0.00    -0.327 N 
HETATM   16  H   UNL     1      25.042  42.595  53.023  1.00  0.00     0.169 HD
HETATM   17  O   UNL     1      23.725  42.867  51.161  1.00  0.00    -0.272 OA
BRANCH  15  18
HETATM   18  C   UNL     1      26.297  44.209  53.278  1.00  0.00     0.034 A 
HETATM   19  C   UNL     1      26.108  45.506  53.747  1.00  0.00     0.032 A 
HETATM   20  C   UNL     1      27.118  46.157  54.467  1.00  0.00     0.039 A 
HETATM   21  C   UNL     1      28.322  45.516  54.756  1.00  0.00     0.068 A 
HETATM   22  C   UNL     1      28.515  44.214  54.306  1.00  0.00     0.039 A 
HETATM   23  C   UNL     1      27.505  43.566  53.581  1.00  0.00     0.032 A 
BRANCH  21  24
HETATM   24  O   UNL     1      29.210  46.263  55.477  1.00  0.00    -0.352 OA
BRANCH  24  25
HETATM   25  C   UNL     1      30.104  45.556  56.334  1.00  0.00     0.171 C 
HETATM   26  C   UNL     1      29.814  45.981  57.763  1.00  0.00     0.034 C 
ENDBRANCH  24  25
ENDBRANCH  21  24
ENDBRANCH  15  18
ENDBRANCH  13  14
ENDBRANCH  12  13
ENDBRANCH   1  12
BRANCH   2  27
HETATM   27  C   UNL     1      22.476  48.103  48.430  1.00  0.00     0.056 A 
HETATM   28  C   UNL     1      21.512  48.992  48.991  1.00  0.00     0.002 A 
HETATM   29  C   UNL     1      20.145  48.787  48.672  1.00  0.00    -0.024 A 
HETATM   30  C   UNL     1      21.828  50.093  49.827  1.00  0.00     0.014 A 
HETATM   31  C   UNL     1      19.160  49.620  49.227  1.00  0.00     0.012 A 
HETATM   32  C   UNL     1      19.776  47.762  47.788  1.00  0.00     0.012 A 
HETATM   33  C   UNL     1      19.501  50.668  50.080  1.00  0.00     0.001 A 
HETATM   34  C   UNL     1      20.836  50.911  50.372  1.00  0.00     0.001 A 
HETATM   35  C   UNL     1      20.733  46.935  47.207  1.00  0.00     0.003 A 
HETATM   36  C   UNL     1      22.075  47.104  47.526  1.00  0.00     0.031 A 
ENDBRANCH   2  27
TORSDOF 7
ENDMDL
MODEL 6
REMARK VINA RESULT:      -8.9     11.059     12.572
REMARK  7 active torsions:
REMARK  status: ('A' for Active; 'I' for Inactive)
REMARK    1  A    between atoms: C_2  and  O_3 
REMARK    2  A    between atoms: O_3  and  C_4 
REMARK    3  A    between atoms: C_7  and  N_8 
REMARK       I    between atoms: N_8  and  C_9 
REMARK    4  A    between atoms: C_9  and  C_10 
REMARK    5  A    between atoms: C_10  and  S_11 
REMARK    6  A    between atoms: S_11  and  C_12 
REMARK    7  A    between atoms: N_13  and  C_14 
ROOT
HETATM    1  C   UNL     1      31.581  50.717  39.986  1.00  0.00     0.178 A 
HETATM    2  N   UNL     1      32.121  50.032  41.105  1.00  0.00    -0.255 N 
HETATM    3  C   UNL     1      31.980  48.633  41.249  1.00  0.00     0.270 A 
HETATM    4  O   UNL     1      32.439  47.948  42.157  1.00  0.00    -0.266 OA
HETATM    5  C   UNL     1      31.191  48.042  40.206  1.00  0.00     0.099 A 
HETATM    6  C   UNL     1      30.693  48.835  39.212  1.00  0.00     0.164 A 
HETATM    7  N   UNL     1      30.005  48.006  38.378  1.00  0.00    -0.260 N 
HETATM    8  H   UNL     1      29.519  48.250  37.523  1.00  0.00     0.191 HD
HETATM    9  N   UNL     1      30.007  46.718  38.791  1.00  0.00    -0.184 NA
HETATM   10  C   UNL     1      30.742  46.749  39.912  1.00  0.00     0.159 A 
HETATM   11  N   UNL     1      30.854  50.162  39.053  1.00  0.00    -0.204 NA
ENDROOT
BRANCH   1  12
HETATM   12  S   UNL     1      31.878  52.449  39.822  1.00  0.00    -0.082 SA
BRANCH  12  13
HETATM   13  C   UNL     1      30.628  53.144  40.936  1.00  0.00     0.185 C 
BRANCH  13  14
HETATM   14  C   UNL     1      29.441  53.645  40.141  1.00  0.00     0.231 C 
HETATM   15  N   UNL     1      28.435  52.817  39.732  1.00  0.00    -0.327 N 
HETATM   16  H   UNL     1      27.846  53.286  39.051  1.00  0.00     0.169 HD
HETATM   17  O   UNL     1      29.386  54.828  39.778  1.00  0.00    -0.272 OA
BRANCH  15  18
HETATM   18  C   UNL     1      28.039  51.512  40.081  1.00  0.00     0.034 A 
HETATM   19  C   UNL     1      28.208  50.931  41.335  1.00  0.00     0.032 A 
HETATM   20  C   UNL     1      27.748  49.632  41.585  1.00  0.00     0.039 A 
HETATM   21  C   UNL     1      27.087  48.901  40.599  1.00  0.00     0.068 A 
HETATM   22  C   UNL     1      26.899  49.478  39.348  1.00  0.00     0.039 A 
HETATM   23  C   UNL     1      27.364  50.777  39.097  1.00  0.00     0.032 A 
BRANCH  21  24
HETATM   24  O   UNL     1      26.681  47.655  40.985  1.00  0.00    -0.352 OA
BRANCH  24  25
HETATM   25  C   UNL     1      26.733  46.624  40.001  1.00  0.00     0.171 C 
HETATM   26  C   UNL     1      27.208  45.353  40.682  1.00  0.00     0.034 C 
ENDBRANCH  24  25
ENDBRANCH  21  24
ENDBRANCH  15  18
ENDBRANCH  13  14
ENDBRANCH  12  13
ENDBRANCH   1  12
BRANCH   2  27
HETATM   27  C   UNL     1      32.846  50.698  42.146  1.00  0.00     0.056 A 
HETATM   28  C   UNL     1      34.248  50.943  42.060  1.00  0.00     0.002 A 
HETATM   29  C   UNL     1      34.886  51.583  43.153  1.00  0.00    -0.024 A 
HETATM   30  C   UNL     1      35.051  50.617  40.938  1.00  0.00     0.014 A 
HETATM   31  C   UNL     1      36.270  51.815  43.123  1.00  0.00     0.012 A 
HETATM   32  C   UNL     1      34.131  52.000  44.260  1.00  0.00     0.012 A 
HETATM   33  C   UNL     1      37.039  51.444  42.021  1.00  0.00     0.001 A 
HETATM   34  C   UNL     1      36.427  50.853  40.924  1.00  0.00     0.001 A 
HETATM   35  C   UNL     1      32.754  51.801  44.308  1.00  0.00     0.003 A 
HETATM   36  C   UNL     1      32.115  51.154  43.257  1.00  0.00     0.031 A 
ENDBRANCH   2  27
TORSDOF 7
ENDMDL
MODEL 7
REMARK VINA RESULT:      -8.7      5.315      9.185
REMARK  7 active torsions:
REMARK  status: ('A' for Active; 'I' for Inactive)
REMARK    1  A    between atoms: C_2  and  O_3 
REMARK    2  A    between atoms: O_3  and  C_4 
REMARK    3  A    between atoms: C_7  and  N_8 
REMARK       I    between atoms: N_8  and  C_9 
REMARK    4  A    between atoms: C_9  and  C_10 
REMARK    5  A    between atoms: C_10  and  S_11 
REMARK    6  A    between atoms: S_11  and  C_12 
REMARK    7  A    between atoms: N_13  and  C_14 
ROOT
HETATM    1  C   UNL     1      27.298  41.046  49.346  1.00  0.00     0.178 A 
HETATM    2  N   UNL     1      27.005  40.054  48.374  1.00  0.00    -0.255 N 
HETATM    3  C   UNL     1      27.518  38.742  48.484  1.00  0.00     0.270 A 
HETATM    4  O   UNL     1      27.294  37.810  47.719  1.00  0.00    -0.266 OA
HETATM    5  C   UNL     1      28.392  38.578  49.610  1.00  0.00     0.099 A 
HETATM    6  C   UNL     1      28.621  39.638  50.440  1.00  0.00     0.164 A 
HETATM    7  N   UNL     1      29.471  39.184  51.404  1.00  0.00    -0.260 N 
HETATM    8  H   UNL     1      29.840  39.697  52.197  1.00  0.00     0.191 HD
HETATM    9  N   UNL     1      29.827  37.892  51.230  1.00  0.00    -0.184 NA
HETATM   10  C   UNL     1      29.157  37.526  50.129  1.00  0.00     0.159 A 
HETATM   11  N   UNL     1      28.108  40.880  50.357  1.00  0.00    -0.204 NA
ENDROOT
BRANCH   1  12
HETATM   12  S   UNL     1      26.547  42.636  49.197  1.00  0.00    -0.082 SA
BRANCH  12  13
HETATM   13  C   UNL     1      27.126  43.460  50.703  1.00  0.00     0.185 C 
BRANCH  13  14
HETATM   14  C   UNL     1      26.134  43.251  51.827  1.00  0.00     0.231 C 
HETATM   15  N   UNL     1      26.514  43.217  53.139  1.00  0.00    -0.327 N 
HETATM   16  H   UNL     1      25.756  42.870  53.717  1.00  0.00     0.169 HD
HETATM   17  O   UNL     1      24.941  43.035  51.576  1.00  0.00    -0.272 OA
BRANCH  15  18
HETATM   18  C   UNL     1      27.682  43.592  53.828  1.00  0.00     0.034 A 
HETATM   19  C   UNL     1      27.923  44.849  54.374  1.00  0.00     0.032 A 
HETATM   20  C   UNL     1      29.111  45.107  55.071  1.00  0.00     0.039 A 
HETATM   21  C   UNL     1      30.066  44.109  55.258  1.00  0.00     0.068 A 
HETATM   22  C   UNL     1      29.828  42.845  54.730  1.00  0.00     0.039 A 
HETATM   23  C   UNL     1      28.641  42.589  54.029  1.00  0.00     0.032 A 
BRANCH  21  24
HETATM   24  O   UNL     1      31.168  44.497  55.966  1.00  0.00    -0.352 OA
BRANCH  24  25
HETATM   25  C   UNL     1      31.406  43.834  57.207  1.00  0.00     0.171 C 
HETATM   26  C   UNL     1      31.042  44.793  58.325  1.00  0.00     0.034 C 
ENDBRANCH  24  25
ENDBRANCH  21  24
ENDBRANCH  15  18
ENDBRANCH  13  14
ENDBRANCH  12  13
ENDBRANCH   1  12
BRANCH   2  27
HETATM   27  C   UNL     1      26.173  40.308  47.235  1.00  0.00     0.056 A 
HETATM   28  C   UNL     1      26.713  40.653  45.962  1.00  0.00     0.002 A 
HETATM   29  C   UNL     1      25.810  40.916  44.899  1.00  0.00    -0.024 A 
HETATM   30  C   UNL     1      28.099  40.724  45.671  1.00  0.00     0.014 A 
HETATM   31  C   UNL     1      26.298  41.290  43.637  1.00  0.00     0.012 A 
HETATM   32  C   UNL     1      24.429  40.787  45.104  1.00  0.00     0.012 A 
HETATM   33  C   UNL     1      27.667  41.392  43.395  1.00  0.00     0.001 A 
HETATM   34  C   UNL     1      28.568  41.099  44.410  1.00  0.00     0.001 A 
HETATM   35  C   UNL     1      23.918  40.397  46.339  1.00  0.00     0.003 A 
HETATM   36  C   UNL     1      24.785  40.160  47.399  1.00  0.00     0.031 A 
ENDBRANCH   2  27
TORSDOF 7
ENDMDL
MODEL 8
REMARK VINA RESULT:      -8.6      2.468      5.620
REMARK  7 active torsions:
REMARK  status: ('A' for Active; 'I' for Inactive)
REMARK    1  A    between atoms: C_2  and  O_3 
REMARK    2  A    between atoms: O_3  and  C_4 
REMARK    3  A    between atoms: C_7  and  N_8 
REMARK       I    between atoms: N_8  and  C_9 
REMARK    4  A    between atoms: C_9  and  C_10 
REMARK    5  A    between atoms: C_10  and  S_11 
REMARK    6  A    between atoms: S_11  and  C_12 
REMARK    7  A    between atoms: N_13  and  C_14 
ROOT
HETATM    1  C   UNL     1      24.986  44.768  50.550  1.00  0.00     0.178 A 
HETATM    2  N   UNL     1      24.949  46.130  50.948  1.00  0.00    -0.255 N 
HETATM    3  C   UNL     1      25.304  46.523  52.258  1.00  0.00     0.270 A 
HETATM    4  O   UNL     1      25.338  47.673  52.686  1.00  0.00    -0.266 OA
HETATM    5  C   UNL     1      25.614  45.411  53.109  1.00  0.00     0.099 A 
HETATM    6  C   UNL     1      25.563  44.145  52.600  1.00  0.00     0.164 A 
HETATM    7  N   UNL     1      25.910  43.313  53.624  1.00  0.00    -0.260 N 
HETATM    8  H   UNL     1      25.994  42.304  53.601  1.00  0.00     0.191 HD
HETATM    9  N   UNL     1      26.157  43.971  54.779  1.00  0.00    -0.184 NA
HETATM   10  C   UNL     1      25.978  45.259  54.452  1.00  0.00     0.159 A 
HETATM   11  N   UNL     1      25.259  43.769  51.344  1.00  0.00    -0.204 NA
ENDROOT
BRANCH   1  12
HETATM   12  S   UNL     1      24.623  44.360  48.872  1.00  0.00    -0.082 SA
BRANCH  12  13
HETATM   13  C   UNL     1      22.968  43.635  49.019  1.00  0.00     0.185 C 
BRANCH  13  14
HETATM   14  C   UNL     1      22.444  43.249  47.652  1.00  0.00     0.231 C 
HETATM   15  N   UNL     1      21.381  43.883  47.073  1.00  0.00    -0.327 N 
HETATM   16  H   UNL     1      21.056  43.360  46.266  1.00  0.00     0.169 HD
HETATM   17  O   UNL     1      22.933  42.288  47.043  1.00  0.00    -0.272 OA
BRANCH  15  18
HETATM   18  C   UNL     1      20.701  45.087  47.333  1.00  0.00     0.034 A 
HETATM   19  C   UNL     1      20.021  45.388  48.509  1.00  0.00     0.032 A 
HETATM   20  C   UNL     1      19.403  46.634  48.675  1.00  0.00     0.039 A 
HETATM   21  C   UNL     1      19.475  47.610  47.684  1.00  0.00     0.068 A 
HETATM   22  C   UNL     1      20.165  47.326  46.510  1.00  0.00     0.039 A 
HETATM   23  C   UNL     1      20.780  46.077  46.343  1.00  0.00     0.032 A 
BRANCH  21  24
HETATM   24  O   UNL     1      18.839  48.780  47.985  1.00  0.00    -0.352 OA
BRANCH  24  25
HETATM   25  C   UNL     1      19.232  49.440  49.188  1.00  0.00     0.171 C 
HETATM   26  C   UNL     1      19.790  50.801  48.812  1.00  0.00     0.034 C 
ENDBRANCH  24  25
ENDBRANCH  21  24
ENDBRANCH  15  18
ENDBRANCH  13  14
ENDBRANCH  12  13
ENDBRANCH   1  12
BRANCH   2  27
HETATM   27  C   UNL     1      24.565  47.187  50.059  1.00  0.00     0.056 A 
HETATM   28  C   UNL     1      25.509  48.118  49.533  1.00  0.00     0.002 A 
HETATM   29  C   UNL     1      25.032  49.150  48.684  1.00  0.00    -0.024 A 
HETATM   30  C   UNL     1      26.905  48.066  49.774  1.00  0.00     0.014 A 
HETATM   31  C   UNL     1      25.922  50.105  48.169  1.00  0.00     0.012 A 
HETATM   32  C   UNL     1      23.672  49.207  48.345  1.00  0.00     0.012 A 
HETATM   33  C   UNL     1      27.284  50.051  48.460  1.00  0.00     0.001 A 
HETATM   34  C   UNL     1      27.778  49.026  49.255  1.00  0.00     0.001 A 
HETATM   35  C   UNL     1      22.771  48.261  48.825  1.00  0.00     0.003 A 
HETATM   36  C   UNL     1      23.214  47.257  49.678  1.00  0.00     0.031 A 
ENDBRANCH   2  27
TORSDOF 7
ENDMDL
MODEL 9
REMARK VINA RESULT:      -8.5      5.285      9.529
REMARK  7 active torsions:
REMARK  status: ('A' for Active; 'I' for Inactive)
REMARK    1  A    between atoms: C_2  and  O_3 
REMARK    2  A    between atoms: O_3  and  C_4 
REMARK    3  A    between atoms: C_7  and  N_8 
REMARK       I    between atoms: N_8  and  C_9 
REMARK    4  A    between atoms: C_9  and  C_10 
REMARK    5  A    between atoms: C_10  and  S_11 
REMARK    6  A    between atoms: S_11  and  C_12 
REMARK    7  A    between atoms: N_13  and  C_14 
ROOT
HETATM    1  C   UNL     1      21.141  48.511  49.068  1.00  0.00     0.178 A 
HETATM    2  N   UNL     1      21.230  49.902  48.800  1.00  0.00    -0.255 N 
HETATM    3  C   UNL     1      22.478  50.532  48.590  1.00  0.00     0.270 A 
HETATM    4  O   UNL     1      22.655  51.715  48.318  1.00  0.00    -0.266 OA
HETATM    5  C   UNL     1      23.587  49.638  48.754  1.00  0.00     0.099 A 
HETATM    6  C   UNL     1      23.353  48.328  49.058  1.00  0.00     0.164 A 
HETATM    7  N   UNL     1      24.578  47.735  49.141  1.00  0.00    -0.260 N 
HETATM    8  H   UNL     1      24.784  46.762  49.334  1.00  0.00     0.191 HD
HETATM    9  N   UNL     1      25.598  48.598  48.932  1.00  0.00    -0.184 NA
HETATM   10  C   UNL     1      24.981  49.763  48.690  1.00  0.00     0.159 A 
HETATM   11  N   UNL     1      22.166  47.717  49.226  1.00  0.00    -0.204 NA
ENDROOT
BRANCH   1  12
HETATM   12  S   UNL     1      19.545  47.773  49.224  1.00  0.00    -0.082 SA
BRANCH  12  13
HETATM   13  C   UNL     1      19.463  46.755  47.727  1.00  0.00     0.185 C 
BRANCH  13  14
HETATM   14  C   UNL     1      18.345  45.741  47.847  1.00  0.00     0.231 C 
HETATM   15  N   UNL     1      17.028  46.094  47.763  1.00  0.00    -0.327 N 
HETATM   16  H   UNL     1      16.436  45.327  48.065  1.00  0.00     0.169 HD
HETATM   17  O   UNL     1      18.600  44.555  48.094  1.00  0.00    -0.272 OA
BRANCH  15  18
HETATM   18  C   UNL     1      16.351  47.245  47.318  1.00  0.00     0.034 A 
HETATM   19  C   UNL     1      16.007  48.333  48.116  1.00  0.00     0.032 A 
HETATM   20  C   UNL     1      15.359  49.445  47.563  1.00  0.00     0.039 A 
HETATM   21  C   UNL     1      15.068  49.504  46.202  1.00  0.00     0.068 A 
HETATM   22  C   UNL     1      15.422  48.430  45.392  1.00  0.00     0.039 A 
HETATM   23  C   UNL     1      16.066  47.315  45.947  1.00  0.00     0.032 A 
BRANCH  21  24
HETATM   24  O   UNL     1      14.448  50.652  45.798  1.00  0.00    -0.352 OA
BRANCH  24  25
HETATM   25  C   UNL     1      14.063  50.732  44.426  1.00  0.00     0.171 C 
HETATM   26  C   UNL     1      12.558  50.925  44.376  1.00  0.00     0.034 C 
ENDBRANCH  24  25
ENDBRANCH  21  24
ENDBRANCH  15  18
ENDBRANCH  13  14
ENDBRANCH  12  13
ENDBRANCH   1  12
BRANCH   2  27
HETATM   27  C   UNL     1      20.078  50.750  48.715  1.00  0.00     0.056 A 
HETATM   28  C   UNL     1      19.358  50.934  47.498  1.00  0.00     0.002 A 
HETATM   29  C   UNL     1      18.248  51.817  47.501  1.00  0.00    -0.024 A 
HETATM   30  C   UNL     1      19.657  50.269  46.281  1.00  0.00     0.014 A 
HETATM   31  C   UNL     1      17.530  52.051  46.318  1.00  0.00     0.012 A 
HETATM   32  C   UNL     1      17.855  52.444  48.693  1.00  0.00     0.012 A 
HETATM   33  C   UNL     1      17.876  51.413  45.128  1.00  0.00     0.001 A 
HETATM   34  C   UNL     1      18.934  50.515  45.112  1.00  0.00     0.001 A 
HETATM   35  C   UNL     1      18.535  52.215  49.886  1.00  0.00     0.003 A 
HETATM   36  C   UNL     1      19.641  51.373  49.897  1.00  0.00     0.031 A 
ENDBRANCH   2  27
TORSDOF 7
ENDMDL
MODEL 10
REMARK VINA RESULT:      -8.4      3.178      7.093
REMARK  7 active torsions:
REMARK  status: ('A' for Active; 'I' for Inactive)
REMARK    1  A    between atoms: C_2  and  O_3 
REMARK    2  A    between atoms: O_3  and  C_4 
REMARK    3  A    between atoms: C_7  and  N_8 
REMARK       I    between atoms: N_8  and  C_9 
REMARK    4  A    between atoms: C_9  and  C_10 
REMARK    5  A    between atoms: C_10  and  S_11 
REMARK    6  A    between atoms: S_11  and  C_12 
REMARK    7  A    between atoms: N_13  and  C_14 
ROOT
HETATM    1  C   UNL     1      25.093  43.377  48.956  1.00  0.00     0.178 A 
HETATM    2  N   UNL     1      24.536  44.637  49.298  1.00  0.00    -0.255 N 
HETATM    3  C   UNL     1      23.210  44.975  48.944  1.00  0.00     0.270 A 
HETATM    4  O   UNL     1      22.630  46.019  49.223  1.00  0.00    -0.266 OA
HETATM    5  C   UNL     1      22.564  43.958  48.165  1.00  0.00     0.099 A 
HETATM    6  C   UNL     1      23.241  42.809  47.871  1.00  0.00     0.164 A 
HETATM    7  N   UNL     1      22.382  42.043  47.140  1.00  0.00    -0.260 N 
HETATM    8  H   UNL     1      22.544  41.115  46.766  1.00  0.00     0.191 HD
HETATM    9  N   UNL     1      21.192  42.645  46.921  1.00  0.00    -0.184 NA
HETATM   10  C   UNL     1      21.310  43.818  47.558  1.00  0.00     0.159 A 
HETATM   11  N   UNL     1      24.491  42.469  48.235  1.00  0.00    -0.204 NA
ENDROOT
BRANCH   1  12
HETATM   12  S   UNL     1      26.720  42.984  49.514  1.00  0.00    -0.082 SA
BRANCH  12  13
HETATM   13  C   UNL     1      26.378  41.800  50.843  1.00  0.00     0.185 C 
BRANCH  13  14
HETATM   14  C   UNL     1      27.532  40.831  50.989  1.00  0.00     0.231 C 
HETATM   15  N   UNL     1      28.602  41.088  51.798  1.00  0.00    -0.327 N 
HETATM   16  H   UNL     1      29.352  40.431  51.610  1.00  0.00     0.169 HD
HETATM   17  O   UNL     1      27.566  39.793  50.315  1.00  0.00    -0.272 OA
BRANCH  15  18
HETATM   18  C   UNL     1      28.849  42.015  52.827  1.00  0.00     0.034 A 
HETATM   19  C   UNL     1      27.882  42.559  53.667  1.00  0.00     0.032 A 
HETATM   20  C   UNL     1      28.242  43.453  54.684  1.00  0.00     0.039 A 
HETATM   21  C   UNL     1      29.576  43.797  54.899  1.00  0.00     0.068 A 
HETATM   22  C   UNL     1      30.553  43.246  54.076  1.00  0.00     0.039 A 
HETATM   23  C   UNL     1      30.190  42.355  53.056  1.00  0.00     0.032 A 
BRANCH  21  24
HETATM   24  O   UNL     1      29.783  44.666  55.932  1.00  0.00    -0.352 OA
BRANCH  24  25
HETATM   25  C   UNL     1      28.873  45.758  56.052  1.00  0.00     0.171 C 
HETATM   26  C   UNL     1      28.798  46.142  57.519  1.00  0.00     0.034 C 
ENDBRANCH  24  25
ENDBRANCH  21  24
ENDBRANCH  15  18
ENDBRANCH  13  14
ENDBRANCH  12  13
ENDBRANCH   1  12
BRANCH   2  27
HETATM   27  C   UNL     1      25.264  45.635  50.024  1.00  0.00     0.056 A 
HETATM   28  C   UNL     1      25.352  45.626  51.447  1.00  0.00     0.002 A 
HETATM   29  C   UNL     1      26.070  46.672  52.081  1.00  0.00    -0.024 A 
HETATM   30  C   UNL     1      24.794  44.622  52.279  1.00  0.00     0.014 A 
HETATM   31  C   UNL     1      26.156  46.720  53.482  1.00  0.00     0.012 A 
HETATM   32  C   UNL     1      26.711  47.652  51.309  1.00  0.00     0.012 A 
HETATM   33  C   UNL     1      25.559  45.739  54.273  1.00  0.00     0.001 A 
HETATM   34  C   UNL     1      24.887  44.685  53.671  1.00  0.00     0.001 A 
HETATM   35  C   UNL     1      26.660  47.619  49.918  1.00  0.00     0.003 A 
HETATM   36  C   UNL     1      25.941  46.616  49.279  1.00  0.00     0.031 A 
ENDBRANCH   2  27
TORSDOF 7
ENDMDL
