MODEL 1
REMARK VINA RESULT:      -9.1      0.000      0.000
REMARK  8 active torsions:
REMARK  status: ('A' for Active; 'I' for Inactive)
REMARK    1  A    between atoms: C_4  and  C_5 
REMARK    2  A    between atoms: C_5  and  C_6 
REMARK    3  A    between atoms: C_6  and  C_7 
REMARK    4  A    between atoms: C_7  and  N_8 
REMARK    5  A    between atoms: C_17  and  C_18 
REMARK    6  A    between atoms: C_18  and  N_19 
REMARK    7  A    between atoms: C_23  and  O_24 
REMARK    8  A    between atoms: C_23  and  C_25 
ROOT
HETATM    1  N   UNL     1      25.311  46.764  50.296  1.00  0.00    -0.065 N 
HETATM    2  H   UNL     1      25.396  45.742  50.352  1.00  0.00     0.280 HD
HETATM    3  C   UNL     1      24.170  47.001  49.325  1.00  0.00     0.276 C 
HETATM    4  C   UNL     1      23.746  48.435  49.160  1.00  0.00     0.001 A 
HETATM    5  C   UNL     1      24.637  49.381  48.652  1.00  0.00     0.076 A 
HETATM    6  O   UNL     1      25.900  49.026  48.270  1.00  0.00    -0.349 OA
HETATM    7  C   UNL     1      26.726  48.696  49.393  1.00  0.00     0.203 C 
HETATM    8  C   UNL     1      26.657  47.200  49.715  1.00  0.00     0.261 C 
HETATM    9  C   UNL     1      22.435  48.848  49.464  1.00  0.00     0.020 A 
HETATM   10  C   UNL     1      22.024  50.184  49.271  1.00  0.00    -0.032 A 
HETATM   11  C   UNL     1      22.948  51.106  48.761  1.00  0.00     0.011 A 
HETATM   12  C   UNL     1      24.244  50.699  48.437  1.00  0.00     0.038 A 
ENDROOT
BRANCH  10  13
HETATM   13  C   UNL     1      20.612  50.606  49.608  1.00  0.00     0.273 C 
BRANCH  13  14
HETATM   14  N   UNL     1      19.513  49.828  48.904  1.00  0.00    -0.067 N 
HETATM   15  H   UNL     1      18.691  50.448  48.867  1.00  0.00     0.280 HD
HETATM   16  C   UNL     1      19.859  49.467  47.478  1.00  0.00     0.238 C 
HETATM   17  C   UNL     1      18.713  48.695  46.849  1.00  0.00     0.071 C 
HETATM   18  C   UNL     1      18.423  47.387  47.610  1.00  0.00     0.089 C 
HETATM   19  C   UNL     1      18.048  47.799  49.048  1.00  0.00     0.071 C 
HETATM   20  C   UNL     1      19.129  48.620  49.734  1.00  0.00     0.238 C 
BRANCH  18  21
HETATM   21  O   UNL     1      17.239  46.837  47.030  1.00  0.00    -0.385 OA
HETATM   22  H   UNL     1      17.421  46.522  46.125  1.00  0.00     0.211 HD
ENDBRANCH  18  21
BRANCH  18  23
HETATM   23  C   UNL     1      19.545  46.364  47.468  1.00  0.00    -0.006 A 
HETATM   24  C   UNL     1      19.721  45.293  48.343  1.00  0.00     0.126 A 
HETATM   25  N   UNL     1      20.751  44.423  48.294  1.00  0.00    -0.272 NA
HETATM   26  C   UNL     1      21.622  44.547  47.273  1.00  0.00     0.116 A 
HETATM   27  C   UNL     1      21.512  45.526  46.306  1.00  0.00     0.020 A 
HETATM   28  C   UNL     1      20.462  46.437  46.406  1.00  0.00     0.013 A 
ENDBRANCH  18  23
ENDBRANCH  13  14
ENDBRANCH  10  13
BRANCH   1  29
HETATM   29  C   UNL     1      25.102  47.250  51.715  1.00  0.00     0.236 C 
BRANCH  29  30
HETATM   30  C   UNL     1      26.311  47.043  52.625  1.00  0.00     0.039 C 
BRANCH  30  31
HETATM   31  C   UNL     1      26.094  46.127  53.843  1.00  0.00     0.040 C 
HETATM   32  C   UNL     1      25.418  44.810  53.456  1.00  0.00     0.017 C 
BRANCH  31  33
HETATM   33  C   UNL     1      27.402  45.910  54.531  1.00  0.00     0.057 A 
HETATM   34  O   UNL     1      27.971  44.681  54.335  1.00  0.00    -0.319 OA
HETATM   35  C   UNL     1      29.150  44.673  55.021  1.00  0.00     0.049 A 
HETATM   36  C   UNL     1      29.972  43.450  54.935  1.00  0.00     0.076 C 
HETATM   37  C   UNL     1      29.328  45.875  55.671  1.00  0.00     0.035 A 
HETATM   38  C   UNL     1      28.200  46.671  55.360  1.00  0.00     0.035 A 
ENDBRANCH  31  33
ENDBRANCH  30  31
ENDBRANCH  29  30
ENDBRANCH   1  29
TORSDOF 8
ENDMDL
MODEL 2
REMARK VINA RESULT:      -9.0      3.284      8.530
REMARK  8 active torsions:
REMARK  status: ('A' for Active; 'I' for Inactive)
REMARK    1  A    between atoms: C_4  and  C_5 
REMARK    2  A    between atoms: C_5  and  C_6 
REMARK    3  A    between atoms: C_6  and  C_7 
REMARK    4  A    between atoms: C_7  and  N_8 
REMARK    5  A    between atoms: C_17  and  C_18 
REMARK    6  A    between atoms: C_18  and  N_19 
REMARK    7  A    between atoms: C_23  and  O_24 
REMARK    8  A    between atoms: C_23  and  C_25 
ROOT
HETATM    1  N   UNL     1      26.021  46.542  54.022  1.00  0.00    -0.065 N 
HETATM    2  H   UNL     1      25.104  46.980  54.177  1.00  0.00     0.280 HD
HETATM    3  C   UNL     1      25.913  45.183  54.686  1.00  0.00     0.276 C 
HETATM    4  C   UNL     1      27.093  44.270  54.491  1.00  0.00     0.001 A 
HETATM    5  C   UNL     1      28.351  44.629  54.977  1.00  0.00     0.076 A 
HETATM    6  O   UNL     1      28.536  45.798  55.661  1.00  0.00    -0.349 OA
HETATM    7  C   UNL     1      28.424  46.942  54.805  1.00  0.00     0.203 C 
HETATM    8  C   UNL     1      26.986  47.468  54.764  1.00  0.00     0.261 C 
HETATM    9  C   UNL     1      26.952  43.019  53.862  1.00  0.00     0.020 A 
HETATM   10  C   UNL     1      28.049  42.144  53.716  1.00  0.00    -0.032 A 
HETATM   11  C   UNL     1      29.297  42.540  54.215  1.00  0.00     0.011 A 
HETATM   12  C   UNL     1      29.441  43.771  54.859  1.00  0.00     0.038 A 
ENDROOT
BRANCH  10  13
HETATM   13  C   UNL     1      27.875  40.807  53.034  1.00  0.00     0.273 C 
BRANCH  13  14
HETATM   14  N   UNL     1      27.715  40.861  51.524  1.00  0.00    -0.067 N 
HETATM   15  H   UNL     1      28.531  40.376  51.123  1.00  0.00     0.280 HD
HETATM   16  C   UNL     1      26.484  40.139  51.029  1.00  0.00     0.238 C 
HETATM   17  C   UNL     1      26.399  40.240  49.517  1.00  0.00     0.071 C 
HETATM   18  C   UNL     1      26.307  41.706  49.049  1.00  0.00     0.089 C 
HETATM   19  C   UNL     1      27.590  42.399  49.548  1.00  0.00     0.071 C 
HETATM   20  C   UNL     1      27.775  42.301  51.055  1.00  0.00     0.238 C 
BRANCH  18  21
HETATM   21  O   UNL     1      26.394  41.681  47.623  1.00  0.00    -0.385 OA
HETATM   22  H   UNL     1      25.536  41.926  47.228  1.00  0.00     0.211 HD
ENDBRANCH  18  21
BRANCH  18  23
HETATM   23  C   UNL     1      24.986  42.363  49.436  1.00  0.00    -0.006 A 
HETATM   24  C   UNL     1      23.745  41.901  49.001  1.00  0.00     0.126 A 
HETATM   25  N   UNL     1      22.567  42.508  49.257  1.00  0.00    -0.272 NA
HETATM   26  C   UNL     1      22.586  43.588  50.063  1.00  0.00     0.116 A 
HETATM   27  C   UNL     1      23.747  44.098  50.610  1.00  0.00     0.020 A 
HETATM   28  C   UNL     1      24.953  43.475  50.295  1.00  0.00     0.013 A 
ENDBRANCH  18  23
ENDBRANCH  13  14
ENDBRANCH  10  13
BRANCH   1  29
HETATM   29  C   UNL     1      26.243  46.546  52.523  1.00  0.00     0.236 C 
BRANCH  29  30
HETATM   30  C   UNL     1      25.116  47.205  51.731  1.00  0.00     0.039 C 
BRANCH  30  31
HETATM   31  C   UNL     1      25.492  47.743  50.338  1.00  0.00     0.040 C 
HETATM   32  C   UNL     1      26.370  46.761  49.562  1.00  0.00     0.017 C 
BRANCH  31  33
HETATM   33  C   UNL     1      24.243  48.092  49.596  1.00  0.00     0.057 A 
HETATM   34  O   UNL     1      23.963  49.429  49.515  1.00  0.00    -0.319 OA
HETATM   35  C   UNL     1      22.808  49.552  48.800  1.00  0.00     0.049 A 
HETATM   36  C   UNL     1      22.313  50.920  48.549  1.00  0.00     0.076 C 
HETATM   37  C   UNL     1      22.336  48.307  48.443  1.00  0.00     0.035 A 
HETATM   38  C   UNL     1      23.257  47.366  48.960  1.00  0.00     0.035 A 
ENDBRANCH  31  33
ENDBRANCH  30  31
ENDBRANCH  29  30
ENDBRANCH   1  29
TORSDOF 8
ENDMDL
MODEL 3
REMARK VINA RESULT:      -8.9      5.261      9.515
REMARK  8 active torsions:
REMARK  status: ('A' for Active; 'I' for Inactive)
REMARK    1  A    between atoms: C_4  and  C_5 
REMARK    2  A    between atoms: C_5  and  C_6 
REMARK    3  A    between atoms: C_6  and  C_7 
REMARK    4  A    between atoms: C_7  and  N_8 
REMARK    5  A    between atoms: C_17  and  C_18 
REMARK    6  A    between atoms: C_18  and  N_19 
REMARK    7  A    between atoms: C_23  and  O_24 
REMARK    8  A    between atoms: C_23  and  C_25 
ROOT
HETATM    1  N   UNL     1      26.384  46.498  54.427  1.00  0.00    -0.065 N 
HETATM    2  H   UNL     1      25.533  46.888  54.850  1.00  0.00     0.280 HD
HETATM    3  C   UNL     1      26.108  45.011  54.312  1.00  0.00     0.276 C 
HETATM    4  C   UNL     1      27.159  44.209  53.595  1.00  0.00     0.001 A 
HETATM    5  C   UNL     1      28.457  44.131  54.103  1.00  0.00     0.076 A 
HETATM    6  O   UNL     1      28.796  44.754  55.270  1.00  0.00    -0.349 OA
HETATM    7  C   UNL     1      28.825  46.180  55.126  1.00  0.00     0.203 C 
HETATM    8  C   UNL     1      27.467  46.801  55.464  1.00  0.00     0.261 C 
HETATM    9  C   UNL     1      26.853  43.482  52.429  1.00  0.00     0.020 A 
HETATM   10  C   UNL     1      27.827  42.696  51.778  1.00  0.00    -0.032 A 
HETATM   11  C   UNL     1      29.120  42.644  52.317  1.00  0.00     0.011 A 
HETATM   12  C   UNL     1      29.426  43.346  53.485  1.00  0.00     0.038 A 
ENDROOT
BRANCH  10  13
HETATM   13  C   UNL     1      27.477  41.927  50.525  1.00  0.00     0.273 C 
BRANCH  13  14
HETATM   14  N   UNL     1      27.527  40.413  50.655  1.00  0.00    -0.067 N 
HETATM   15  H   UNL     1      27.550  40.205  51.664  1.00  0.00     0.280 HD
HETATM   16  C   UNL     1      26.305  39.727  50.089  1.00  0.00     0.238 C 
HETATM   17  C   UNL     1      26.433  38.224  50.258  1.00  0.00     0.071 C 
HETATM   18  C   UNL     1      27.669  37.672  49.521  1.00  0.00     0.089 C 
HETATM   19  C   UNL     1      28.892  38.374  50.145  1.00  0.00     0.071 C 
HETATM   20  C   UNL     1      28.818  39.891  50.059  1.00  0.00     0.238 C 
BRANCH  18  21
HETATM   21  O   UNL     1      27.772  36.294  49.882  1.00  0.00    -0.385 OA
HETATM   22  H   UNL     1      27.027  36.040  50.460  1.00  0.00     0.211 HD
ENDBRANCH  18  21
BRANCH  18  23
HETATM   23  C   UNL     1      27.536  37.761  48.005  1.00  0.00    -0.006 A 
HETATM   24  C   UNL     1      26.315  37.921  47.351  1.00  0.00     0.126 A 
HETATM   25  N   UNL     1      26.155  37.918  46.011  1.00  0.00    -0.272 NA
HETATM   26  C   UNL     1      27.266  37.844  45.252  1.00  0.00     0.116 A 
HETATM   27  C   UNL     1      28.536  37.752  45.786  1.00  0.00     0.020 A 
HETATM   28  C   UNL     1      28.668  37.715  47.173  1.00  0.00     0.013 A 
ENDBRANCH  18  23
ENDBRANCH  13  14
ENDBRANCH  10  13
BRANCH   1  29
HETATM   29  C   UNL     1      26.593  47.248  53.127  1.00  0.00     0.236 C 
BRANCH  29  30
HETATM   30  C   UNL     1      25.494  47.015  52.093  1.00  0.00     0.039 C 
BRANCH  30  31
HETATM   31  C   UNL     1      25.962  46.590  50.690  1.00  0.00     0.040 C 
HETATM   32  C   UNL     1      25.018  45.568  50.056  1.00  0.00     0.017 C 
BRANCH  31  33
HETATM   33  C   UNL     1      26.128  47.809  49.841  1.00  0.00     0.057 A 
HETATM   34  O   UNL     1      24.968  48.347  49.355  1.00  0.00    -0.319 OA
HETATM   35  C   UNL     1      25.314  49.446  48.624  1.00  0.00     0.049 A 
HETATM   36  C   UNL     1      24.216  50.224  48.017  1.00  0.00     0.076 C 
HETATM   37  C   UNL     1      26.683  49.600  48.619  1.00  0.00     0.035 A 
HETATM   38  C   UNL     1      27.209  48.543  49.398  1.00  0.00     0.035 A 
ENDBRANCH  31  33
ENDBRANCH  30  31
ENDBRANCH  29  30
ENDBRANCH   1  29
TORSDOF 8
ENDMDL
MODEL 4
REMARK VINA RESULT:      -8.9      2.387      3.405
REMARK  8 active torsions:
REMARK  status: ('A' for Active; 'I' for Inactive)
REMARK    1  A    between atoms: C_4  and  C_5 
REMARK    2  A    between atoms: C_5  and  C_6 
REMARK    3  A    between atoms: C_6  and  C_7 
REMARK    4  A    between atoms: C_7  and  N_8 
REMARK    5  A    between atoms: C_17  and  C_18 
REMARK    6  A    between atoms: C_18  and  N_19 
REMARK    7  A    between atoms: C_23  and  O_24 
REMARK    8  A    between atoms: C_23  and  C_25 
ROOT
HETATM    1  N   UNL     1      25.354  46.989  49.898  1.00  0.00    -0.065 N 
HETATM    2  H   UNL     1      25.670  46.013  49.834  1.00  0.00     0.280 HD
HETATM    3  C   UNL     1      24.183  47.077  48.938  1.00  0.00     0.276 C 
HETATM    4  C   UNL     1      23.443  48.387  48.935  1.00  0.00     0.001 A 
HETATM    5  C   UNL     1      24.093  49.564  48.562  1.00  0.00     0.076 A 
HETATM    6  O   UNL     1      25.401  49.554  48.169  1.00  0.00    -0.349 OA
HETATM    7  C   UNL     1      26.287  49.286  49.263  1.00  0.00     0.203 C 
HETATM    8  C   UNL     1      26.562  47.786  49.403  1.00  0.00     0.261 C 
HETATM    9  C   UNL     1      22.074  48.452  49.257  1.00  0.00     0.020 A 
HETATM   10  C   UNL     1      21.369  49.673  49.214  1.00  0.00    -0.032 A 
HETATM   11  C   UNL     1      22.056  50.835  48.838  1.00  0.00     0.011 A 
HETATM   12  C   UNL     1      23.409  50.775  48.497  1.00  0.00     0.038 A 
ENDROOT
BRANCH  10  13
HETATM   13  C   UNL     1      19.900  49.720  49.568  1.00  0.00     0.273 C 
BRANCH  13  14
HETATM   14  N   UNL     1      19.100  50.816  48.883  1.00  0.00    -0.067 N 
HETATM   15  H   UNL     1      19.626  51.692  49.016  1.00  0.00     0.280 HD
HETATM   16  C   UNL     1      18.959  50.607  47.393  1.00  0.00     0.238 C 
HETATM   17  C   UNL     1      18.150  51.740  46.788  1.00  0.00     0.071 C 
HETATM   18  C   UNL     1      16.734  51.814  47.391  1.00  0.00     0.089 C 
HETATM   19  C   UNL     1      16.921  52.055  48.902  1.00  0.00     0.071 C 
HETATM   20  C   UNL     1      17.764  50.984  49.578  1.00  0.00     0.238 C 
BRANCH  18  21
HETATM   21  O   UNL     1      16.134  53.000  46.868  1.00  0.00    -0.385 OA
HETATM   22  H   UNL     1      16.822  53.653  46.639  1.00  0.00     0.211 HD
ENDBRANCH  18  21
BRANCH  18  23
HETATM   23  C   UNL     1      15.866  50.624  46.996  1.00  0.00    -0.006 A 
HETATM   24  C   UNL     1      15.606  49.550  47.845  1.00  0.00     0.126 A 
HETATM   25  N   UNL     1      14.914  48.445  47.497  1.00  0.00    -0.272 NA
HETATM   26  C   UNL     1      14.360  48.419  46.269  1.00  0.00     0.116 A 
HETATM   27  C   UNL     1      14.490  49.454  45.364  1.00  0.00     0.020 A 
HETATM   28  C   UNL     1      15.246  50.564  45.736  1.00  0.00     0.013 A 
ENDBRANCH  18  23
ENDBRANCH  13  14
ENDBRANCH  10  13
BRANCH   1  29
HETATM   29  C   UNL     1      25.048  47.240  51.360  1.00  0.00     0.236 C 
BRANCH  29  30
HETATM   30  C   UNL     1      26.242  47.029  52.288  1.00  0.00     0.039 C 
BRANCH  30  31
HETATM   31  C   UNL     1      25.968  46.231  53.576  1.00  0.00     0.040 C 
HETATM   32  C   UNL     1      25.284  44.894  53.286  1.00  0.00     0.017 C 
BRANCH  31  33
HETATM   33  C   UNL     1      27.247  46.060  54.327  1.00  0.00     0.057 A 
HETATM   34  O   UNL     1      27.856  44.844  54.181  1.00  0.00    -0.319 OA
HETATM   35  C   UNL     1      29.001  44.879  54.920  1.00  0.00     0.049 A 
HETATM   36  C   UNL     1      29.857  43.676  54.895  1.00  0.00     0.076 C 
HETATM   37  C   UNL     1      29.119  46.096  55.555  1.00  0.00     0.035 A 
HETATM   38  C   UNL     1      27.987  46.856  55.178  1.00  0.00     0.035 A 
ENDBRANCH  31  33
ENDBRANCH  30  31
ENDBRANCH  29  30
ENDBRANCH   1  29
TORSDOF 8
ENDMDL
MODEL 5
REMARK VINA RESULT:      -8.8      2.884     10.233
REMARK  8 active torsions:
REMARK  status: ('A' for Active; 'I' for Inactive)
REMARK    1  A    between atoms: C_4  and  C_5 
REMARK    2  A    between atoms: C_5  and  C_6 
REMARK    3  A    between atoms: C_6  and  C_7 
REMARK    4  A    between atoms: C_7  and  N_8 
REMARK    5  A    between atoms: C_17  and  C_18 
REMARK    6  A    between atoms: C_18  and  N_19 
REMARK    7  A    between atoms: C_23  and  O_24 
REMARK    8  A    between atoms: C_23  and  C_25 
ROOT
HETATM    1  N   UNL     1      20.794  49.419  48.375  1.00  0.00    -0.065 N 
HETATM    2  H   UNL     1      20.609  50.384  48.075  1.00  0.00     0.280 HD
HETATM    3  C   UNL     1      22.281  49.225  48.149  1.00  0.00     0.276 C 
HETATM    4  C   UNL     1      22.847  47.919  48.634  1.00  0.00     0.001 A 
HETATM    5  C   UNL     1      22.406  46.712  48.089  1.00  0.00     0.076 A 
HETATM    6  O   UNL     1      21.474  46.688  47.090  1.00  0.00    -0.349 OA
HETATM    7  C   UNL     1      20.176  47.073  47.560  1.00  0.00     0.203 C 
HETATM    8  C   UNL     1      19.954  48.581  47.410  1.00  0.00     0.261 C 
HETATM    9  C   UNL     1      23.864  47.881  49.607  1.00  0.00     0.020 A 
HETATM   10  C   UNL     1      24.425  46.659  50.033  1.00  0.00    -0.032 A 
HETATM   11  C   UNL     1      23.954  45.467  49.465  1.00  0.00     0.011 A 
HETATM   12  C   UNL     1      22.960  45.498  48.484  1.00  0.00     0.038 A 
ENDROOT
BRANCH  10  13
HETATM   13  C   UNL     1      25.513  46.641  51.082  1.00  0.00     0.273 C 
BRANCH  13  14
HETATM   14  N   UNL     1      25.707  45.314  51.797  1.00  0.00    -0.067 N 
HETATM   15  H   UNL     1      25.086  44.635  51.332  1.00  0.00     0.280 HD
HETATM   16  C   UNL     1      27.114  44.776  51.684  1.00  0.00     0.238 C 
HETATM   17  C   UNL     1      27.222  43.454  52.421  1.00  0.00     0.071 C 
HETATM   18  C   UNL     1      26.895  43.610  53.920  1.00  0.00     0.089 C 
HETATM   19  C   UNL     1      25.447  44.132  53.993  1.00  0.00     0.071 C 
HETATM   20  C   UNL     1      25.242  45.435  53.235  1.00  0.00     0.238 C 
BRANCH  18  21
HETATM   21  O   UNL     1      26.873  42.291  54.467  1.00  0.00    -0.385 OA
HETATM   22  H   UNL     1      27.124  42.312  55.410  1.00  0.00     0.211 HD
ENDBRANCH  18  21
BRANCH  18  23
HETATM   23  C   UNL     1      27.947  44.421  54.667  1.00  0.00    -0.006 A 
HETATM   24  C   UNL     1      27.695  45.674  55.226  1.00  0.00     0.126 A 
HETATM   25  N   UNL     1      28.625  46.452  55.818  1.00  0.00    -0.272 NA
HETATM   26  C   UNL     1      29.865  45.943  55.957  1.00  0.00     0.116 A 
HETATM   27  C   UNL     1      30.217  44.686  55.506  1.00  0.00     0.020 A 
HETATM   28  C   UNL     1      29.247  43.922  54.861  1.00  0.00     0.013 A 
ENDBRANCH  18  23
ENDBRANCH  13  14
ENDBRANCH  10  13
BRANCH   1  29
HETATM   29  C   UNL     1      20.311  49.320  49.808  1.00  0.00     0.236 C 
BRANCH  29  30
HETATM   30  C   UNL     1      18.887  49.830  50.017  1.00  0.00     0.039 C 
BRANCH  30  31
HETATM   31  C   UNL     1      18.689  51.353  49.910  1.00  0.00     0.040 C 
HETATM   32  C   UNL     1      19.721  52.000  48.986  1.00  0.00     0.017 C 
BRANCH  31  33
HETATM   33  C   UNL     1      17.287  51.635  49.477  1.00  0.00     0.057 A 
HETATM   34  O   UNL     1      16.499  52.250  50.411  1.00  0.00    -0.319 OA
HETATM   35  C   UNL     1      15.274  52.435  49.838  1.00  0.00     0.049 A 
HETATM   36  C   UNL     1      14.247  53.118  50.650  1.00  0.00     0.076 C 
HETATM   37  C   UNL     1      15.267  51.924  48.558  1.00  0.00     0.035 A 
HETATM   38  C   UNL     1      16.562  51.404  48.327  1.00  0.00     0.035 A 
ENDBRANCH  31  33
ENDBRANCH  30  31
ENDBRANCH  29  30
ENDBRANCH   1  29
TORSDOF 8
ENDMDL
MODEL 6
REMARK VINA RESULT:      -8.8      2.420      4.072
REMARK  8 active torsions:
REMARK  status: ('A' for Active; 'I' for Inactive)
REMARK    1  A    between atoms: C_4  and  C_5 
REMARK    2  A    between atoms: C_5  and  C_6 
REMARK    3  A    between atoms: C_6  and  C_7 
REMARK    4  A    between atoms: C_7  and  N_8 
REMARK    5  A    between atoms: C_17  and  C_18 
REMARK    6  A    between atoms: C_18  and  N_19 
REMARK    7  A    between atoms: C_23  and  O_24 
REMARK    8  A    between atoms: C_23  and  C_25 
ROOT
HETATM    1  N   UNL     1      25.290  46.537  50.539  1.00  0.00    -0.065 N 
HETATM    2  H   UNL     1      25.273  45.516  50.652  1.00  0.00     0.280 HD
HETATM    3  C   UNL     1      24.155  46.835  49.578  1.00  0.00     0.276 C 
HETATM    4  C   UNL     1      23.874  48.294  49.339  1.00  0.00     0.001 A 
HETATM    5  C   UNL     1      24.844  49.115  48.761  1.00  0.00     0.076 A 
HETATM    6  O   UNL     1      26.055  48.613  48.377  1.00  0.00    -0.349 OA
HETATM    7  C   UNL     1      26.870  48.263  49.503  1.00  0.00     0.203 C 
HETATM    8  C   UNL     1      26.659  46.802  49.910  1.00  0.00     0.261 C 
HETATM    9  C   UNL     1      22.618  48.854  49.642  1.00  0.00     0.020 A 
HETATM   10  C   UNL     1      22.339  50.211  49.380  1.00  0.00    -0.032 A 
HETATM   11  C   UNL     1      23.339  51.005  48.802  1.00  0.00     0.011 A 
HETATM   12  C   UNL     1      24.580  50.452  48.478  1.00  0.00     0.038 A 
ENDROOT
BRANCH  10  13
HETATM   13  C   UNL     1      20.986  50.793  49.718  1.00  0.00     0.273 C 
BRANCH  13  14
HETATM   14  N   UNL     1      19.818  50.227  48.927  1.00  0.00    -0.067 N 
HETATM   15  H   UNL     1      20.140  49.335  48.523  1.00  0.00     0.280 HD
HETATM   16  C   UNL     1      18.613  49.914  49.785  1.00  0.00     0.238 C 
HETATM   17  C   UNL     1      17.497  49.355  48.922  1.00  0.00     0.071 C 
HETATM   18  C   UNL     1      17.057  50.360  47.839  1.00  0.00     0.089 C 
HETATM   19  C   UNL     1      18.302  50.630  46.971  1.00  0.00     0.071 C 
HETATM   20  C   UNL     1      19.487  51.150  47.771  1.00  0.00     0.238 C 
BRANCH  18  21
HETATM   21  O   UNL     1      16.128  49.670  47.001  1.00  0.00    -0.385 OA
HETATM   22  H   UNL     1      15.444  49.234  47.544  1.00  0.00     0.211 HD
ENDBRANCH  18  21
BRANCH  18  23
HETATM   23  C   UNL     1      16.359  51.583  48.423  1.00  0.00    -0.006 A 
HETATM   24  C   UNL     1      16.575  52.042  49.721  1.00  0.00     0.126 A 
HETATM   25  N   UNL     1      15.911  53.068  50.294  1.00  0.00    -0.272 NA
HETATM   26  C   UNL     1      15.041  53.751  49.526  1.00  0.00     0.116 A 
HETATM   27  C   UNL     1      14.793  53.434  48.205  1.00  0.00     0.020 A 
HETATM   28  C   UNL     1      15.462  52.344  47.653  1.00  0.00     0.013 A 
ENDBRANCH  18  23
ENDBRANCH  13  14
ENDBRANCH  10  13
BRANCH   1  29
HETATM   29  C   UNL     1      25.165  47.120  51.932  1.00  0.00     0.236 C 
BRANCH  29  30
HETATM   30  C   UNL     1      25.929  46.340  53.000  1.00  0.00     0.039 C 
BRANCH  30  31
HETATM   31  C   UNL     1      26.885  47.162  53.885  1.00  0.00     0.040 C 
HETATM   32  C   UNL     1      26.131  48.002  54.916  1.00  0.00     0.017 C 
BRANCH  31  33
HETATM   33  C   UNL     1      27.876  46.242  54.520  1.00  0.00     0.057 A 
HETATM   34  O   UNL     1      27.985  45.008  53.939  1.00  0.00    -0.319 OA
HETATM   35  C   UNL     1      28.934  44.321  54.638  1.00  0.00     0.049 A 
HETATM   36  C   UNL     1      29.257  42.957  54.175  1.00  0.00     0.076 C 
HETATM   37  C   UNL     1      29.415  45.095  55.672  1.00  0.00     0.035 A 
HETATM   38  C   UNL     1      28.730  46.331  55.600  1.00  0.00     0.035 A 
ENDBRANCH  31  33
ENDBRANCH  30  31
ENDBRANCH  29  30
ENDBRANCH   1  29
TORSDOF 8
ENDMDL
MODEL 7
REMARK VINA RESULT:      -8.5      2.608      5.388
REMARK  8 active torsions:
REMARK  status: ('A' for Active; 'I' for Inactive)
REMARK    1  A    between atoms: C_4  and  C_5 
REMARK    2  A    between atoms: C_5  and  C_6 
REMARK    3  A    between atoms: C_6  and  C_7 
REMARK    4  A    between atoms: C_7  and  N_8 
REMARK    5  A    between atoms: C_17  and  C_18 
REMARK    6  A    between atoms: C_18  and  N_19 
REMARK    7  A    between atoms: C_23  and  O_24 
REMARK    8  A    between atoms: C_23  and  C_25 
ROOT
HETATM    1  N   UNL     1      28.151  42.122  52.804  1.00  0.00    -0.065 N 
HETATM    2  H   UNL     1      28.317  41.772  53.756  1.00  0.00     0.280 HD
HETATM    3  C   UNL     1      26.706  42.584  52.813  1.00  0.00     0.276 C 
HETATM    4  C   UNL     1      26.236  43.270  51.560  1.00  0.00     0.001 A 
HETATM    5  C   UNL     1      26.217  42.584  50.344  1.00  0.00     0.076 A 
HETATM    6  O   UNL     1      26.597  41.274  50.267  1.00  0.00    -0.349 OA
HETATM    7  C   UNL     1      28.009  41.115  50.455  1.00  0.00     0.203 C 
HETATM    8  C   UNL     1      28.351  40.883  51.930  1.00  0.00     0.261 C 
HETATM    9  C   UNL     1      25.759  44.594  51.588  1.00  0.00     0.020 A 
HETATM   10  C   UNL     1      25.279  45.225  50.421  1.00  0.00    -0.032 A 
HETATM   11  C   UNL     1      25.278  44.506  49.218  1.00  0.00     0.011 A 
HETATM   12  C   UNL     1      25.729  43.185  49.186  1.00  0.00     0.038 A 
ENDROOT
BRANCH  10  13
HETATM   13  C   UNL     1      24.777  46.649  50.473  1.00  0.00     0.273 C 
BRANCH  13  14
HETATM   14  N   UNL     1      24.015  47.117  49.244  1.00  0.00    -0.067 N 
HETATM   15  H   UNL     1      24.593  46.868  48.428  1.00  0.00     0.280 HD
HETATM   16  C   UNL     1      22.683  46.427  49.070  1.00  0.00     0.238 C 
HETATM   17  C   UNL     1      21.991  46.949  47.824  1.00  0.00     0.071 C 
HETATM   18  C   UNL     1      21.729  48.465  47.911  1.00  0.00     0.089 C 
HETATM   19  C   UNL     1      23.111  49.133  48.059  1.00  0.00     0.071 C 
HETATM   20  C   UNL     1      23.892  48.627  49.263  1.00  0.00     0.238 C 
BRANCH  18  21
HETATM   21  O   UNL     1      21.228  48.863  46.634  1.00  0.00    -0.385 OA
HETATM   22  H   UNL     1      20.343  48.478  46.484  1.00  0.00     0.211 HD
ENDBRANCH  18  21
BRANCH  18  23
HETATM   23  C   UNL     1      20.687  48.821  48.966  1.00  0.00    -0.006 A 
HETATM   24  C   UNL     1      19.696  47.937  49.392  1.00  0.00     0.126 A 
HETATM   25  N   UNL     1      18.710  48.249  50.259  1.00  0.00    -0.272 NA
HETATM   26  C   UNL     1      18.739  49.474  50.819  1.00  0.00     0.116 A 
HETATM   27  C   UNL     1      19.711  50.412  50.528  1.00  0.00     0.020 A 
HETATM   28  C   UNL     1      20.692  50.076  49.597  1.00  0.00     0.013 A 
ENDBRANCH  18  23
ENDBRANCH  13  14
ENDBRANCH  10  13
BRANCH   1  29
HETATM   29  C   UNL     1      29.198  43.188  52.555  1.00  0.00     0.236 C 
BRANCH  29  30
HETATM   30  C   UNL     1      30.312  43.218  53.599  1.00  0.00     0.039 C 
BRANCH  30  31
HETATM   31  C   UNL     1      29.868  43.422  55.059  1.00  0.00     0.040 C 
HETATM   32  C   UNL     1      31.034  43.278  56.038  1.00  0.00     0.017 C 
BRANCH  31  33
HETATM   33  C   UNL     1      29.187  44.746  55.181  1.00  0.00     0.057 A 
HETATM   34  O   UNL     1      27.928  44.809  54.650  1.00  0.00    -0.319 OA
HETATM   35  C   UNL     1      27.467  46.075  54.865  1.00  0.00     0.049 A 
HETATM   36  C   UNL     1      26.099  46.382  54.404  1.00  0.00     0.076 C 
HETATM   37  C   UNL     1      28.427  46.826  55.508  1.00  0.00     0.035 A 
HETATM   38  C   UNL     1      29.537  45.973  55.707  1.00  0.00     0.035 A 
ENDBRANCH  31  33
ENDBRANCH  30  31
ENDBRANCH  29  30
ENDBRANCH   1  29
TORSDOF 8
ENDMDL
MODEL 8
REMARK VINA RESULT:      -8.5      2.750      4.483
REMARK  8 active torsions:
REMARK  status: ('A' for Active; 'I' for Inactive)
REMARK    1  A    between atoms: C_4  and  C_5 
REMARK    2  A    between atoms: C_5  and  C_6 
REMARK    3  A    between atoms: C_6  and  C_7 
REMARK    4  A    between atoms: C_7  and  N_8 
REMARK    5  A    between atoms: C_17  and  C_18 
REMARK    6  A    between atoms: C_18  and  N_19 
REMARK    7  A    between atoms: C_23  and  O_24 
REMARK    8  A    between atoms: C_23  and  C_25 
ROOT
HETATM    1  N   UNL     1      25.518  43.070  51.001  1.00  0.00    -0.065 N 
HETATM    2  H   UNL     1      25.765  42.777  51.955  1.00  0.00     0.280 HD
HETATM    3  C   UNL     1      24.238  43.867  51.164  1.00  0.00     0.276 C 
HETATM    4  C   UNL     1      23.723  44.530  49.916  1.00  0.00     0.001 A 
HETATM    5  C   UNL     1      23.340  43.762  48.815  1.00  0.00     0.076 A 
HETATM    6  O   UNL     1      23.397  42.398  48.852  1.00  0.00    -0.349 OA
HETATM    7  C   UNL     1      24.747  41.919  48.849  1.00  0.00     0.203 C 
HETATM    8  C   UNL     1      25.280  41.745  50.275  1.00  0.00     0.261 C 
HETATM    9  C   UNL     1      23.569  45.927  49.842  1.00  0.00     0.020 A 
HETATM   10  C   UNL     1      23.047  46.547  48.688  1.00  0.00    -0.032 A 
HETATM   11  C   UNL     1      22.675  45.743  47.601  1.00  0.00     0.011 A 
HETATM   12  C   UNL     1      22.806  44.355  47.674  1.00  0.00     0.038 A 
ENDROOT
BRANCH  10  13
HETATM   13  C   UNL     1      22.894  48.049  48.629  1.00  0.00     0.273 C 
BRANCH  13  14
HETATM   14  N   UNL     1      21.728  48.617  49.422  1.00  0.00    -0.067 N 
HETATM   15  H   UNL     1      21.933  48.438  50.416  1.00  0.00     0.280 HD
HETATM   16  C   UNL     1      21.573  50.112  49.265  1.00  0.00     0.238 C 
HETATM   17  C   UNL     1      20.392  50.596  50.086  1.00  0.00     0.071 C 
HETATM   18  C   UNL     1      19.075  49.935  49.635  1.00  0.00     0.089 C 
HETATM   19  C   UNL     1      19.264  48.418  49.836  1.00  0.00     0.071 C 
HETATM   20  C   UNL     1      20.461  47.860  49.081  1.00  0.00     0.238 C 
BRANCH  18  21
HETATM   21  O   UNL     1      18.077  50.342  50.572  1.00  0.00    -0.385 OA
HETATM   22  H   UNL     1      17.729  49.566  51.052  1.00  0.00     0.211 HD
ENDBRANCH  18  21
BRANCH  18  23
HETATM   23  C   UNL     1      18.639  50.386  48.245  1.00  0.00    -0.006 A 
HETATM   24  C   UNL     1      18.463  49.509  47.175  1.00  0.00     0.126 A 
HETATM   25  N   UNL     1      18.161  49.886  45.915  1.00  0.00    -0.272 NA
HETATM   26  C   UNL     1      17.927  51.195  45.697  1.00  0.00     0.116 A 
HETATM   27  C   UNL     1      18.004  52.149  46.692  1.00  0.00     0.020 A 
HETATM   28  C   UNL     1      18.359  51.736  47.975  1.00  0.00     0.013 A 
ENDBRANCH  18  23
ENDBRANCH  13  14
ENDBRANCH  10  13
BRANCH   1  29
HETATM   29  C   UNL     1      26.718  43.823  50.465  1.00  0.00     0.236 C 
BRANCH  29  30
HETATM   30  C   UNL     1      27.708  44.259  51.542  1.00  0.00     0.039 C 
BRANCH  30  31
HETATM   31  C   UNL     1      27.988  43.237  52.659  1.00  0.00     0.040 C 
HETATM   32  C   UNL     1      28.863  42.081  52.172  1.00  0.00     0.017 C 
BRANCH  31  33
HETATM   33  C   UNL     1      28.587  43.945  53.831  1.00  0.00     0.057 A 
HETATM   34  O   UNL     1      29.638  43.305  54.428  1.00  0.00    -0.319 OA
HETATM   35  C   UNL     1      30.056  44.098  55.456  1.00  0.00     0.049 A 
HETATM   36  C   UNL     1      31.216  43.628  56.241  1.00  0.00     0.076 C 
HETATM   37  C   UNL     1      29.269  45.226  55.535  1.00  0.00     0.035 A 
HETATM   38  C   UNL     1      28.319  45.126  54.491  1.00  0.00     0.035 A 
ENDBRANCH  31  33
ENDBRANCH  30  31
ENDBRANCH  29  30
ENDBRANCH   1  29
TORSDOF 8
ENDMDL
MODEL 9
REMARK VINA RESULT:      -8.5     12.213     16.922
REMARK  8 active torsions:
REMARK  status: ('A' for Active; 'I' for Inactive)
REMARK    1  A    between atoms: C_4  and  C_5 
REMARK    2  A    between atoms: C_5  and  C_6 
REMARK    3  A    between atoms: C_6  and  C_7 
REMARK    4  A    between atoms: C_7  and  N_8 
REMARK    5  A    between atoms: C_17  and  C_18 
REMARK    6  A    between atoms: C_18  and  N_19 
REMARK    7  A    between atoms: C_23  and  O_24 
REMARK    8  A    between atoms: C_23  and  C_25 
ROOT
HETATM    1  N   UNL     1      30.925  47.926  40.141  1.00  0.00    -0.065 N 
HETATM    2  H   UNL     1      30.807  47.034  39.645  1.00  0.00     0.280 HD
HETATM    3  C   UNL     1      32.206  47.757  40.935  1.00  0.00     0.276 C 
HETATM    4  C   UNL     1      32.686  48.983  41.662  1.00  0.00     0.001 A 
HETATM    5  C   UNL     1      31.905  49.559  42.666  1.00  0.00     0.076 A 
HETATM    6  O   UNL     1      30.707  49.013  43.029  1.00  0.00    -0.349 OA
HETATM    7  C   UNL     1      29.712  49.183  42.011  1.00  0.00     0.203 C 
HETATM    8  C   UNL     1      29.693  47.994  41.046  1.00  0.00     0.261 C 
HETATM    9  C   UNL     1      33.945  49.548  41.387  1.00  0.00     0.020 A 
HETATM   10  C   UNL     1      34.415  50.673  42.097  1.00  0.00    -0.032 A 
HETATM   11  C   UNL     1      33.602  51.226  43.097  1.00  0.00     0.011 A 
HETATM   12  C   UNL     1      32.360  50.658  43.390  1.00  0.00     0.038 A 
ENDROOT
BRANCH  10  13
HETATM   13  C   UNL     1      35.768  51.266  41.783  1.00  0.00     0.273 C 
BRANCH  13  14
HETATM   14  N   UNL     1      36.119  52.532  42.547  1.00  0.00    -0.067 N 
HETATM   15  H   UNL     1      35.255  53.092  42.600  1.00  0.00     0.280 HD
HETATM   16  C   UNL     1      36.563  52.268  43.967  1.00  0.00     0.238 C 
HETATM   17  C   UNL     1      36.892  53.579  44.657  1.00  0.00     0.071 C 
HETATM   18  C   UNL     1      38.030  54.330  43.938  1.00  0.00     0.089 C 
HETATM   19  C   UNL     1      37.528  54.605  42.507  1.00  0.00     0.071 C 
HETATM   20  C   UNL     1      37.130  53.340  41.760  1.00  0.00     0.238 C 
BRANCH  18  21
HETATM   21  O   UNL     1      38.138  55.604  44.576  1.00  0.00    -0.385 OA
HETATM   22  H   UNL     1      37.669  56.283  44.054  1.00  0.00     0.211 HD
ENDBRANCH  18  21
BRANCH  18  23
HETATM   23  C   UNL     1      39.372  53.618  44.062  1.00  0.00    -0.006 A 
HETATM   24  C   UNL     1      40.327  53.602  43.046  1.00  0.00     0.126 A 
HETATM   25  N   UNL     1      41.486  52.912  43.093  1.00  0.00    -0.272 NA
HETATM   26  C   UNL     1      41.778  52.263  44.237  1.00  0.00     0.116 A 
HETATM   27  C   UNL     1      40.942  52.263  45.336  1.00  0.00     0.020 A 
HETATM   28  C   UNL     1      39.733  52.950  45.244  1.00  0.00     0.013 A 
ENDBRANCH  18  23
ENDBRANCH  13  14
ENDBRANCH  10  13
BRANCH   1  29
HETATM   29  C   UNL     1      30.928  49.006  39.077  1.00  0.00     0.236 C 
BRANCH  29  30
HETATM   30  C   UNL     1      29.539  49.535  38.727  1.00  0.00     0.039 C 
BRANCH  30  31
HETATM   31  C   UNL     1      29.457  51.024  38.345  1.00  0.00     0.040 C 
HETATM   32  C   UNL     1      28.024  51.554  38.410  1.00  0.00     0.017 C 
BRANCH  31  33
HETATM   33  C   UNL     1      30.389  51.803  39.214  1.00  0.00     0.057 A 
HETATM   34  O   UNL     1      31.668  51.923  38.744  1.00  0.00    -0.319 OA
HETATM   35  C   UNL     1      32.359  52.668  39.653  1.00  0.00     0.049 A 
HETATM   36  C   UNL     1      33.773  52.965  39.346  1.00  0.00     0.076 C 
HETATM   37  C   UNL     1      31.542  53.006  40.710  1.00  0.00     0.035 A 
HETATM   38  C   UNL     1      30.273  52.445  40.431  1.00  0.00     0.035 A 
ENDBRANCH  31  33
ENDBRANCH  30  31
ENDBRANCH  29  30
ENDBRANCH   1  29
TORSDOF 8
ENDMDL
MODEL 10
REMARK VINA RESULT:      -8.5      3.374      5.585
REMARK  8 active torsions:
REMARK  status: ('A' for Active; 'I' for Inactive)
REMARK    1  A    between atoms: C_4  and  C_5 
REMARK    2  A    between atoms: C_5  and  C_6 
REMARK    3  A    between atoms: C_6  and  C_7 
REMARK    4  A    between atoms: C_7  and  N_8 
REMARK    5  A    between atoms: C_17  and  C_18 
REMARK    6  A    between atoms: C_18  and  N_19 
REMARK    7  A    between atoms: C_23  and  O_24 
REMARK    8  A    between atoms: C_23  and  C_25 
ROOT
HETATM    1  N   UNL     1      27.778  40.898  51.323  1.00  0.00    -0.065 N 
HETATM    2  H   UNL     1      28.096  40.405  52.167  1.00  0.00     0.280 HD
HETATM    3  C   UNL     1      26.268  40.766  51.348  1.00  0.00     0.276 C 
HETATM    4  C   UNL     1      25.532  41.522  50.275  1.00  0.00     0.001 A 
HETATM    5  C   UNL     1      25.736  41.213  48.929  1.00  0.00     0.076 A 
HETATM    6  O   UNL     1      26.581  40.208  48.555  1.00  0.00    -0.349 OA
HETATM    7  C   UNL     1      27.953  40.546  48.794  1.00  0.00     0.203 C 
HETATM    8  C   UNL     1      28.405  40.091  50.185  1.00  0.00     0.261 C 
HETATM    9  C   UNL     1      24.591  42.517  50.598  1.00  0.00     0.020 A 
HETATM   10  C   UNL     1      23.870  43.197  49.595  1.00  0.00    -0.032 A 
HETATM   11  C   UNL     1      24.103  42.862  48.254  1.00  0.00     0.011 A 
HETATM   12  C   UNL     1      25.020  41.862  47.926  1.00  0.00     0.038 A 
ENDROOT
BRANCH  10  13
HETATM   13  C   UNL     1      22.867  44.265  49.964  1.00  0.00     0.273 C 
BRANCH  13  14
HETATM   14  N   UNL     1      22.149  44.918  48.794  1.00  0.00    -0.067 N 
HETATM   15  H   UNL     1      22.339  44.332  47.968  1.00  0.00     0.280 HD
HETATM   16  C   UNL     1      20.648  44.965  48.967  1.00  0.00     0.238 C 
HETATM   17  C   UNL     1      20.011  45.628  47.760  1.00  0.00     0.071 C 
HETATM   18  C   UNL     1      20.510  47.074  47.575  1.00  0.00     0.089 C 
HETATM   19  C   UNL     1      22.036  46.981  47.375  1.00  0.00     0.071 C 
HETATM   20  C   UNL     1      22.748  46.283  48.524  1.00  0.00     0.238 C 
BRANCH  18  21
HETATM   21  O   UNL     1      19.971  47.532  46.334  1.00  0.00    -0.385 OA
HETATM   22  H   UNL     1      19.056  47.210  46.225  1.00  0.00     0.211 HD
ENDBRANCH  18  21
BRANCH  18  23
HETATM   23  C   UNL     1      20.027  48.007  48.680  1.00  0.00    -0.006 A 
HETATM   24  C   UNL     1      18.939  47.720  49.503  1.00  0.00     0.126 A 
HETATM   25  N   UNL     1      18.436  48.561  50.432  1.00  0.00    -0.272 NA
HETATM   26  C   UNL     1      19.087  49.723  50.637  1.00  0.00     0.116 A 
HETATM   27  C   UNL     1      20.216  50.087  49.931  1.00  0.00     0.020 A 
HETATM   28  C   UNL     1      20.689  49.217  48.950  1.00  0.00     0.013 A 
ENDBRANCH  18  23
ENDBRANCH  13  14
ENDBRANCH  10  13
BRANCH   1  29
HETATM   29  C   UNL     1      28.335  42.304  51.418  1.00  0.00     0.236 C 
BRANCH  29  30
HETATM   30  C   UNL     1      29.159  42.560  52.678  1.00  0.00     0.039 C 
BRANCH  30  31
HETATM   31  C   UNL     1      28.626  43.648  53.627  1.00  0.00     0.040 C 
HETATM   32  C   UNL     1      27.210  43.339  54.114  1.00  0.00     0.017 C 
BRANCH  31  33
HETATM   33  C   UNL     1      29.587  43.824  54.758  1.00  0.00     0.057 A 
HETATM   34  O   UNL     1      29.350  44.902  55.566  1.00  0.00    -0.319 OA
HETATM   35  C   UNL     1      30.309  44.892  56.536  1.00  0.00     0.049 A 
HETATM   36  C   UNL     1      30.244  45.954  57.559  1.00  0.00     0.076 C 
HETATM   37  C   UNL     1      31.168  43.832  56.342  1.00  0.00     0.035 A 
HETATM   38  C   UNL     1      30.707  43.146  55.194  1.00  0.00     0.035 A 
ENDBRANCH  31  33
ENDBRANCH  30  31
ENDBRANCH  29  30
ENDBRANCH   1  29
TORSDOF 8
ENDMDL
