MODEL 1
REMARK VINA RESULT:      -9.9      0.000      0.000
REMARK  7 active torsions:
REMARK  status: ('A' for Active; 'I' for Inactive)
REMARK    1  A    between atoms: C_5  and  C_6 
REMARK       I    between atoms: C_6  and  N_7 
REMARK    2  A    between atoms: N_10  and  C_11 
REMARK    3  A    between atoms: C_14  and  N_15 
REMARK    4  A    between atoms: N_15  and  C_16 
REMARK    5  A    between atoms: C_16  and  N_17 
REMARK       I    between atoms: N_17  and  C_18 
REMARK    6  A    between atoms: C_18  and  C_19 
REMARK    7  A    between atoms: C_22  and  O_23 
ROOT
HETATM    1  C   UNL     1      24.228  46.239  49.479  1.00  0.00     0.030 A 
HETATM    2  C   UNL     1      23.046  45.901  48.800  1.00  0.00     0.031 A 
HETATM    3  C   UNL     1      22.157  46.874  48.312  1.00  0.00     0.032 A 
HETATM    4  C   UNL     1      22.430  48.230  48.470  1.00  0.00     0.034 A 
HETATM    5  C   UNL     1      23.598  48.597  49.129  1.00  0.00     0.032 A 
HETATM    6  C   UNL     1      24.466  47.616  49.633  1.00  0.00     0.031 A 
ENDROOT
BRANCH   4   7
HETATM    7  N   UNL     1      21.449  49.159  48.043  1.00  0.00    -0.333 N 
HETATM    8  H   UNL     1      21.086  48.970  47.113  1.00  0.00     0.168 HD
BRANCH   7   9
HETATM    9  C   UNL     1      20.621  49.895  48.831  1.00  0.00     0.179 C 
HETATM   10  S   UNL     1      20.286  51.482  48.436  1.00  0.00    -0.040 SA
BRANCH   9  11
HETATM   11  N   UNL     1      20.106  49.364  49.988  1.00  0.00    -0.299 N 
HETATM   12  C   UNL     1      18.803  49.246  50.457  1.00  0.00     0.257 C 
HETATM   13  O   UNL     1      18.558  49.314  51.658  1.00  0.00    -0.267 OA
HETATM   14  H   UNL     1      20.802  49.125  50.683  1.00  0.00     0.171 HD
BRANCH  12  15
HETATM   15  C   UNL     1      17.710  48.993  49.480  1.00  0.00     0.032 A 
HETATM   16  C   UNL     1      17.385  47.694  49.075  1.00  0.00     0.020 A 
HETATM   17  C   UNL     1      16.335  47.486  48.177  1.00  0.00     0.038 A 
HETATM   18  C   UNL     1      15.588  48.562  47.693  1.00  0.00     0.068 A 
HETATM   19  C   UNL     1      15.896  49.856  48.117  1.00  0.00     0.038 A 
HETATM   20  C   UNL     1      16.950  50.071  49.014  1.00  0.00     0.020 A 
BRANCH  18  21
HETATM   21  O   UNL     1      14.593  48.214  46.821  1.00  0.00    -0.356 OA
HETATM   22  C   UNL     1      14.292  49.138  45.784  1.00  0.00     0.210 C 
ENDBRANCH  18  21
ENDBRANCH  12  15
ENDBRANCH   9  11
ENDBRANCH   7   9
ENDBRANCH   4   7
BRANCH   1  23
HETATM   23  N   UNL     1      25.084  45.290  50.054  1.00  0.00    -0.378 N 
HETATM   24  C   UNL     1      24.473  44.005  50.481  1.00  0.00     0.143 C 
HETATM   25  C   UNL     1      25.548  42.921  50.658  1.00  0.00     0.146 C 
HETATM   26  N   UNL     1      26.619  43.339  51.562  1.00  0.00    -0.345 N 
HETATM   27  C   UNL     1      27.401  42.313  52.100  1.00  0.00     0.253 C 
HETATM   28  C   UNL     1      27.210  44.636  51.207  1.00  0.00     0.146 C 
HETATM   29  O   UNL     1      27.269  41.132  51.786  1.00  0.00    -0.267 OA
HETATM   30  C   UNL     1      26.158  45.740  50.970  1.00  0.00     0.143 C 
BRANCH  27  31
HETATM   31  C   UNL     1      28.389  42.643  53.157  1.00  0.00     0.032 A 
HETATM   32  C   UNL     1      29.745  42.347  52.985  1.00  0.00     0.017 A 
HETATM   33  C   UNL     1      30.675  42.758  53.944  1.00  0.00     0.007 A 
HETATM   34  C   UNL     1      30.259  43.469  55.077  1.00  0.00    -0.062 A 
HETATM   35  C   UNL     1      31.268  43.976  56.067  1.00  0.00     0.048 C 
HETATM   36  C   UNL     1      28.902  43.782  55.230  1.00  0.00     0.007 A 
HETATM   37  C   UNL     1      27.970  43.373  54.274  1.00  0.00     0.017 A 
ENDBRANCH  27  31
ENDBRANCH   1  23
TORSDOF 7
ENDMDL
MODEL 2
REMARK VINA RESULT:      -9.7      1.326      1.878
REMARK  7 active torsions:
REMARK  status: ('A' for Active; 'I' for Inactive)
REMARK    1  A    between atoms: C_5  and  C_6 
REMARK       I    between atoms: C_6  and  N_7 
REMARK    2  A    between atoms: N_10  and  C_11 
REMARK    3  A    between atoms: C_14  and  N_15 
REMARK    4  A    between atoms: N_15  and  C_16 
REMARK    5  A    between atoms: C_16  and  N_17 
REMARK       I    between atoms: N_17  and  C_18 
REMARK    6  A    between atoms: C_18  and  C_19 
REMARK    7  A    between atoms: C_22  and  O_23 
ROOT
HETATM    1  C   UNL     1      24.038  46.931  49.324  1.00  0.00     0.030 A 
HETATM    2  C   UNL     1      22.920  46.653  48.520  1.00  0.00     0.031 A 
HETATM    3  C   UNL     1      22.047  47.660  48.076  1.00  0.00     0.032 A 
HETATM    4  C   UNL     1      22.273  48.995  48.405  1.00  0.00     0.034 A 
HETATM    5  C   UNL     1      23.378  49.303  49.192  1.00  0.00     0.032 A 
HETATM    6  C   UNL     1      24.229  48.285  49.649  1.00  0.00     0.031 A 
ENDROOT
BRANCH   4   7
HETATM    7  N   UNL     1      21.306  49.950  48.009  1.00  0.00    -0.333 N 
HETATM    8  H   UNL     1      21.131  49.961  47.008  1.00  0.00     0.168 HD
BRANCH   7   9
HETATM    9  C   UNL     1      20.290  50.448  48.763  1.00  0.00     0.179 C 
HETATM   10  S   UNL     1      19.413  51.760  48.221  1.00  0.00    -0.040 SA
BRANCH   9  11
HETATM   11  N   UNL     1      20.018  49.919  50.000  1.00  0.00    -0.299 N 
HETATM   12  C   UNL     1      19.025  49.051  50.443  1.00  0.00     0.257 C 
HETATM   13  O   UNL     1      18.568  49.146  51.578  1.00  0.00    -0.267 OA
HETATM   14  H   UNL     1      20.557  50.323  50.755  1.00  0.00     0.171 HD
BRANCH  12  15
HETATM   15  C   UNL     1      18.553  47.976  49.530  1.00  0.00     0.032 A 
HETATM   16  C   UNL     1      19.344  46.855  49.260  1.00  0.00     0.020 A 
HETATM   17  C   UNL     1      18.863  45.848  48.419  1.00  0.00     0.038 A 
HETATM   18  C   UNL     1      17.587  45.937  47.860  1.00  0.00     0.068 A 
HETATM   19  C   UNL     1      16.787  47.044  48.150  1.00  0.00     0.038 A 
HETATM   20  C   UNL     1      17.266  48.058  48.989  1.00  0.00     0.020 A 
BRANCH  18  21
HETATM   21  O   UNL     1      17.245  44.883  47.058  1.00  0.00    -0.356 OA
HETATM   22  C   UNL     1      17.866  44.818  45.780  1.00  0.00     0.210 C 
ENDBRANCH  18  21
ENDBRANCH  12  15
ENDBRANCH   9  11
ENDBRANCH   7   9
ENDBRANCH   4   7
BRANCH   1  23
HETATM   23  N   UNL     1      24.870  45.936  49.855  1.00  0.00    -0.378 N 
HETATM   24  C   UNL     1      24.216  44.680  50.301  1.00  0.00     0.143 C 
HETATM   25  C   UNL     1      25.244  43.543  50.423  1.00  0.00     0.146 C 
HETATM   26  N   UNL     1      26.372  43.901  51.283  1.00  0.00    -0.345 N 
HETATM   27  C   UNL     1      27.126  42.834  51.779  1.00  0.00     0.253 C 
HETATM   28  C   UNL     1      27.010  45.170  50.910  1.00  0.00     0.146 C 
HETATM   29  O   UNL     1      26.923  41.663  51.463  1.00  0.00    -0.267 OA
HETATM   30  C   UNL     1      26.004  46.327  50.726  1.00  0.00     0.143 C 
BRANCH  27  31
HETATM   31  C   UNL     1      28.174  43.106  52.794  1.00  0.00     0.032 A 
HETATM   32  C   UNL     1      27.861  43.769  53.985  1.00  0.00     0.017 A 
HETATM   33  C   UNL     1      28.836  43.925  54.973  1.00  0.00     0.007 A 
HETATM   34  C   UNL     1      30.128  43.418  54.782  1.00  0.00    -0.062 A 
HETATM   35  C   UNL     1      31.152  43.519  55.875  1.00  0.00     0.048 C 
HETATM   36  C   UNL     1      30.427  42.735  53.596  1.00  0.00     0.007 A 
HETATM   37  C   UNL     1      29.454  42.577  52.605  1.00  0.00     0.017 A 
ENDBRANCH  27  31
ENDBRANCH   1  23
TORSDOF 7
ENDMDL
MODEL 3
REMARK VINA RESULT:      -9.6      3.928     10.957
REMARK  7 active torsions:
REMARK  status: ('A' for Active; 'I' for Inactive)
REMARK    1  A    between atoms: C_5  and  C_6 
REMARK       I    between atoms: C_6  and  N_7 
REMARK    2  A    between atoms: N_10  and  C_11 
REMARK    3  A    between atoms: C_14  and  N_15 
REMARK    4  A    between atoms: N_15  and  C_16 
REMARK    5  A    between atoms: C_16  and  N_17 
REMARK       I    between atoms: N_17  and  C_18 
REMARK    6  A    between atoms: C_18  and  C_19 
REMARK    7  A    between atoms: C_22  and  O_23 
ROOT
HETATM    1  C   UNL     1      24.874  44.903  49.796  1.00  0.00     0.030 A 
HETATM    2  C   UNL     1      26.171  44.447  49.512  1.00  0.00     0.031 A 
HETATM    3  C   UNL     1      26.656  43.218  49.991  1.00  0.00     0.032 A 
HETATM    4  C   UNL     1      25.848  42.385  50.760  1.00  0.00     0.034 A 
HETATM    5  C   UNL     1      24.554  42.805  51.051  1.00  0.00     0.032 A 
HETATM    6  C   UNL     1      24.090  44.045  50.586  1.00  0.00     0.031 A 
ENDROOT
BRANCH   4   7
HETATM    7  N   UNL     1      26.425  41.207  51.293  1.00  0.00    -0.333 N 
HETATM    8  H   UNL     1      25.755  40.458  51.444  1.00  0.00     0.168 HD
BRANCH   7   9
HETATM    9  C   UNL     1      27.712  40.792  51.157  1.00  0.00     0.179 C 
HETATM   10  S   UNL     1      28.249  40.204  49.690  1.00  0.00    -0.040 SA
BRANCH   9  11
HETATM   11  N   UNL     1      28.562  40.793  52.235  1.00  0.00    -0.299 N 
HETATM   12  C   UNL     1      29.017  41.817  53.059  1.00  0.00     0.257 C 
HETATM   13  O   UNL     1      30.146  41.780  53.541  1.00  0.00    -0.267 OA
HETATM   14  H   UNL     1      29.043  39.916  52.388  1.00  0.00     0.171 HD
BRANCH  12  15
HETATM   15  C   UNL     1      28.098  42.941  53.380  1.00  0.00     0.032 A 
HETATM   16  C   UNL     1      27.074  42.793  54.322  1.00  0.00     0.020 A 
HETATM   17  C   UNL     1      26.243  43.875  54.624  1.00  0.00     0.038 A 
HETATM   18  C   UNL     1      26.437  45.114  54.010  1.00  0.00     0.068 A 
HETATM   19  C   UNL     1      27.475  45.269  53.089  1.00  0.00     0.038 A 
HETATM   20  C   UNL     1      28.308  44.186  52.780  1.00  0.00     0.020 A 
BRANCH  18  21
HETATM   21  O   UNL     1      25.552  46.083  54.398  1.00  0.00    -0.356 OA
HETATM   22  C   UNL     1      25.868  47.423  54.047  1.00  0.00     0.210 C 
ENDBRANCH  18  21
ENDBRANCH  12  15
ENDBRANCH   9  11
ENDBRANCH   7   9
ENDBRANCH   4   7
BRANCH   1  23
HETATM   23  N   UNL     1      24.399  46.164  49.409  1.00  0.00    -0.378 N 
HETATM   24  C   UNL     1      25.192  47.343  49.839  1.00  0.00     0.143 C 
HETATM   25  C   UNL     1      24.839  48.577  48.993  1.00  0.00     0.146 C 
HETATM   26  N   UNL     1      23.405  48.861  48.992  1.00  0.00    -0.345 N 
HETATM   27  C   UNL     1      23.037  50.154  48.611  1.00  0.00     0.253 C 
HETATM   28  C   UNL     1      22.581  47.701  48.628  1.00  0.00     0.146 C 
HETATM   29  O   UNL     1      23.844  50.995  48.219  1.00  0.00    -0.267 OA
HETATM   30  C   UNL     1      22.941  46.426  49.421  1.00  0.00     0.143 C 
BRANCH  27  31
HETATM   31  C   UNL     1      21.619  50.568  48.753  1.00  0.00     0.032 A 
HETATM   32  C   UNL     1      21.089  50.885  50.008  1.00  0.00     0.017 A 
HETATM   33  C   UNL     1      19.784  51.373  50.111  1.00  0.00     0.007 A 
HETATM   34  C   UNL     1      19.000  51.551  48.963  1.00  0.00    -0.062 A 
HETATM   35  C   UNL     1      17.626  52.147  49.068  1.00  0.00     0.048 C 
HETATM   36  C   UNL     1      19.546  51.254  47.708  1.00  0.00     0.007 A 
HETATM   37  C   UNL     1      20.851  50.766  47.601  1.00  0.00     0.017 A 
ENDBRANCH  27  31
ENDBRANCH   1  23
TORSDOF 7
ENDMDL
MODEL 4
REMARK VINA RESULT:      -9.4      3.346      4.378
REMARK  7 active torsions:
REMARK  status: ('A' for Active; 'I' for Inactive)
REMARK    1  A    between atoms: C_5  and  C_6 
REMARK       I    between atoms: C_6  and  N_7 
REMARK    2  A    between atoms: N_10  and  C_11 
REMARK    3  A    between atoms: C_14  and  N_15 
REMARK    4  A    between atoms: N_15  and  C_16 
REMARK    5  A    between atoms: C_16  and  N_17 
REMARK       I    between atoms: N_17  and  C_18 
REMARK    6  A    between atoms: C_18  and  C_19 
REMARK    7  A    between atoms: C_22  and  O_23 
ROOT
HETATM    1  C   UNL     1      24.242  44.930  50.633  1.00  0.00     0.030 A 
HETATM    2  C   UNL     1      23.994  45.794  49.554  1.00  0.00     0.031 A 
HETATM    3  C   UNL     1      23.302  45.379  48.404  1.00  0.00     0.032 A 
HETATM    4  C   UNL     1      22.811  44.079  48.299  1.00  0.00     0.034 A 
HETATM    5  C   UNL     1      23.033  43.203  49.356  1.00  0.00     0.032 A 
HETATM    6  C   UNL     1      23.746  43.623  50.489  1.00  0.00     0.031 A 
ENDROOT
BRANCH   4   7
HETATM    7  N   UNL     1      22.208  43.694  47.078  1.00  0.00    -0.333 N 
HETATM    8  H   UNL     1      22.220  42.690  46.916  1.00  0.00     0.168 HD
BRANCH   7   9
HETATM    9  C   UNL     1      21.239  44.362  46.396  1.00  0.00     0.179 C 
HETATM   10  S   UNL     1      21.636  45.254  45.043  1.00  0.00    -0.040 SA
BRANCH   9  11
HETATM   11  N   UNL     1      19.943  44.359  46.847  1.00  0.00    -0.299 N 
HETATM   12  C   UNL     1      19.265  45.189  47.733  1.00  0.00     0.257 C 
HETATM   13  O   UNL     1      18.376  44.746  48.455  1.00  0.00    -0.267 OA
HETATM   14  H   UNL     1      19.412  43.537  46.588  1.00  0.00     0.171 HD
BRANCH  12  15
HETATM   15  C   UNL     1      19.606  46.637  47.763  1.00  0.00     0.032 A 
HETATM   16  C   UNL     1      20.459  47.160  48.740  1.00  0.00     0.020 A 
HETATM   17  C   UNL     1      20.784  48.519  48.726  1.00  0.00     0.038 A 
HETATM   18  C   UNL     1      20.283  49.361  47.732  1.00  0.00     0.068 A 
HETATM   19  C   UNL     1      19.451  48.833  46.741  1.00  0.00     0.038 A 
HETATM   20  C   UNL     1      19.120  47.472  46.752  1.00  0.00     0.020 A 
BRANCH  18  21
HETATM   21  O   UNL     1      20.680  50.665  47.841  1.00  0.00    -0.356 OA
HETATM   22  C   UNL     1      20.111  51.426  48.898  1.00  0.00     0.210 C 
ENDBRANCH  18  21
ENDBRANCH  12  15
ENDBRANCH   9  11
ENDBRANCH   7   9
ENDBRANCH   4   7
BRANCH   1  23
HETATM   23  N   UNL     1      25.009  45.293  51.749  1.00  0.00    -0.378 N 
HETATM   24  C   UNL     1      25.616  46.648  51.736  1.00  0.00     0.143 C 
HETATM   25  C   UNL     1      26.022  47.078  53.155  1.00  0.00     0.146 C 
HETATM   26  N   UNL     1      26.894  46.100  53.806  1.00  0.00    -0.345 N 
HETATM   27  C   UNL     1      27.633  46.569  54.896  1.00  0.00     0.253 C 
HETATM   28  C   UNL     1      26.355  44.734  53.787  1.00  0.00     0.146 C 
HETATM   29  O   UNL     1      27.514  47.705  55.349  1.00  0.00    -0.267 OA
HETATM   30  C   UNL     1      25.886  44.284  52.386  1.00  0.00     0.143 C 
BRANCH  27  31
HETATM   31  C   UNL     1      28.665  45.687  55.495  1.00  0.00     0.032 A 
HETATM   32  C   UNL     1      29.197  44.614  54.772  1.00  0.00     0.017 A 
HETATM   33  C   UNL     1      30.241  43.859  55.311  1.00  0.00     0.007 A 
HETATM   34  C   UNL     1      30.764  44.171  56.573  1.00  0.00    -0.062 A 
HETATM   35  C   UNL     1      31.936  43.407  57.118  1.00  0.00     0.048 C 
HETATM   36  C   UNL     1      30.242  45.261  57.281  1.00  0.00     0.007 A 
HETATM   37  C   UNL     1      29.198  46.019  56.745  1.00  0.00     0.017 A 
ENDBRANCH  27  31
ENDBRANCH   1  23
TORSDOF 7
ENDMDL
MODEL 5
REMARK VINA RESULT:      -9.4      7.550     10.623
REMARK  7 active torsions:
REMARK  status: ('A' for Active; 'I' for Inactive)
REMARK    1  A    between atoms: C_5  and  C_6 
REMARK       I    between atoms: C_6  and  N_7 
REMARK    2  A    between atoms: N_10  and  C_11 
REMARK    3  A    between atoms: C_14  and  N_15 
REMARK    4  A    between atoms: N_15  and  C_16 
REMARK    5  A    between atoms: C_16  and  N_17 
REMARK       I    between atoms: N_17  and  C_18 
REMARK    6  A    between atoms: C_18  and  C_19 
REMARK    7  A    between atoms: C_22  and  O_23 
ROOT
HETATM    1  C   UNL     1      26.402  41.606  49.056  1.00  0.00     0.030 A 
HETATM    2  C   UNL     1      25.137  41.089  48.735  1.00  0.00     0.031 A 
HETATM    3  C   UNL     1      24.883  40.425  47.522  1.00  0.00     0.032 A 
HETATM    4  C   UNL     1      25.899  40.237  46.588  1.00  0.00     0.034 A 
HETATM    5  C   UNL     1      27.166  40.730  46.882  1.00  0.00     0.032 A 
HETATM    6  C   UNL     1      27.400  41.411  48.086  1.00  0.00     0.031 A 
ENDROOT
BRANCH   4   7
HETATM    7  N   UNL     1      25.558  39.648  45.347  1.00  0.00    -0.333 N 
HETATM    8  H   UNL     1      25.084  40.284  44.711  1.00  0.00     0.168 HD
BRANCH   7   9
HETATM    9  C   UNL     1      26.179  38.603  44.738  1.00  0.00     0.179 C 
HETATM   10  S   UNL     1      27.232  38.880  43.472  1.00  0.00    -0.040 SA
BRANCH   9  11
HETATM   11  N   UNL     1      25.901  37.313  45.115  1.00  0.00    -0.299 N 
HETATM   12  C   UNL     1      26.550  36.434  45.974  1.00  0.00     0.257 C 
HETATM   13  O   UNL     1      26.548  35.226  45.758  1.00  0.00    -0.267 OA
HETATM   14  H   UNL     1      25.161  36.873  44.582  1.00  0.00     0.171 HD
BRANCH  12  15
HETATM   15  C   UNL     1      27.217  36.980  47.187  1.00  0.00     0.032 A 
HETATM   16  C   UNL     1      28.552  37.395  47.156  1.00  0.00     0.020 A 
HETATM   17  C   UNL     1      29.144  37.929  48.303  1.00  0.00     0.038 A 
HETATM   18  C   UNL     1      28.409  38.075  49.481  1.00  0.00     0.068 A 
HETATM   19  C   UNL     1      27.068  37.684  49.505  1.00  0.00     0.038 A 
HETATM   20  C   UNL     1      26.471  37.145  48.359  1.00  0.00     0.020 A 
BRANCH  18  21
HETATM   21  O   UNL     1      29.112  38.609  50.525  1.00  0.00    -0.356 OA
HETATM   22  C   UNL     1      30.092  37.779  51.135  1.00  0.00     0.210 C 
ENDBRANCH  18  21
ENDBRANCH  12  15
ENDBRANCH   9  11
ENDBRANCH   7   9
ENDBRANCH   4   7
BRANCH   1  23
HETATM   23  N   UNL     1      26.658  42.351  50.216  1.00  0.00    -0.378 N 
HETATM   24  C   UNL     1      26.780  43.822  50.057  1.00  0.00     0.143 C 
HETATM   25  C   UNL     1      26.602  44.534  51.408  1.00  0.00     0.146 C 
HETATM   26  N   UNL     1      27.511  44.023  52.432  1.00  0.00    -0.345 N 
HETATM   27  C   UNL     1      27.716  44.852  53.539  1.00  0.00     0.253 C 
HETATM   28  C   UNL     1      27.463  42.562  52.579  1.00  0.00     0.146 C 
HETATM   29  O   UNL     1      27.118  45.913  53.703  1.00  0.00    -0.267 OA
HETATM   30  C   UNL     1      27.587  41.811  51.236  1.00  0.00     0.143 C 
BRANCH  27  31
HETATM   31  C   UNL     1      28.755  44.481  54.531  1.00  0.00     0.032 A 
HETATM   32  C   UNL     1      29.497  43.304  54.384  1.00  0.00     0.017 A 
HETATM   33  C   UNL     1      30.541  43.023  55.269  1.00  0.00     0.007 A 
HETATM   34  C   UNL     1      30.855  43.915  56.303  1.00  0.00    -0.062 A 
HETATM   35  C   UNL     1      32.025  43.649  57.204  1.00  0.00     0.048 C 
HETATM   36  C   UNL     1      30.122  45.103  56.428  1.00  0.00     0.007 A 
HETATM   37  C   UNL     1      29.078  45.387  55.546  1.00  0.00     0.017 A 
ENDBRANCH  27  31
ENDBRANCH   1  23
TORSDOF 7
ENDMDL
MODEL 6
REMARK VINA RESULT:      -9.3      1.858      2.711
REMARK  7 active torsions:
REMARK  status: ('A' for Active; 'I' for Inactive)
REMARK    1  A    between atoms: C_5  and  C_6 
REMARK       I    between atoms: C_6  and  N_7 
REMARK    2  A    between atoms: N_10  and  C_11 
REMARK    3  A    between atoms: C_14  and  N_15 
REMARK    4  A    between atoms: N_15  and  C_16 
REMARK    5  A    between atoms: C_16  and  N_17 
REMARK       I    between atoms: N_17  and  C_18 
REMARK    6  A    between atoms: C_18  and  C_19 
REMARK    7  A    between atoms: C_22  and  O_23 
ROOT
HETATM    1  C   UNL     1      23.524  46.665  49.297  1.00  0.00     0.030 A 
HETATM    2  C   UNL     1      23.567  48.038  49.591  1.00  0.00     0.031 A 
HETATM    3  C   UNL     1      22.691  48.960  48.995  1.00  0.00     0.032 A 
HETATM    4  C   UNL     1      21.720  48.537  48.091  1.00  0.00     0.034 A 
HETATM    5  C   UNL     1      21.646  47.182  47.787  1.00  0.00     0.032 A 
HETATM    6  C   UNL     1      22.542  46.274  48.371  1.00  0.00     0.031 A 
ENDROOT
BRANCH   4   7
HETATM    7  N   UNL     1      20.932  49.525  47.451  1.00  0.00    -0.333 N 
HETATM    8  H   UNL     1      21.473  50.176  46.888  1.00  0.00     0.168 HD
BRANCH   7   9
HETATM    9  C   UNL     1      19.624  49.425  47.094  1.00  0.00     0.179 C 
HETATM   10  S   UNL     1      19.031  50.343  45.833  1.00  0.00    -0.040 SA
BRANCH   9  11
HETATM   11  N   UNL     1      18.769  48.619  47.804  1.00  0.00    -0.299 N 
HETATM   12  C   UNL     1      18.032  48.837  48.963  1.00  0.00     0.257 C 
HETATM   13  O   UNL     1      17.821  47.923  49.755  1.00  0.00    -0.267 OA
HETATM   14  H   UNL     1      18.762  47.652  47.505  1.00  0.00     0.171 HD
BRANCH  12  15
HETATM   15  C   UNL     1      17.467  50.191  49.209  1.00  0.00     0.032 A 
HETATM   16  C   UNL     1      18.233  51.199  49.801  1.00  0.00     0.020 A 
HETATM   17  C   UNL     1      17.685  52.469  49.995  1.00  0.00     0.038 A 
HETATM   18  C   UNL     1      16.381  52.752  49.582  1.00  0.00     0.068 A 
HETATM   19  C   UNL     1      15.624  51.752  48.967  1.00  0.00     0.038 A 
HETATM   20  C   UNL     1      16.169  50.476  48.774  1.00  0.00     0.020 A 
BRANCH  18  21
HETATM   21  O   UNL     1      15.972  54.033  49.834  1.00  0.00    -0.356 OA
HETATM   22  C   UNL     1      14.968  54.206  50.826  1.00  0.00     0.210 C 
ENDBRANCH  18  21
ENDBRANCH  12  15
ENDBRANCH   9  11
ENDBRANCH   7   9
ENDBRANCH   4   7
BRANCH   1  23
HETATM   23  N   UNL     1      24.445  45.739  49.808  1.00  0.00    -0.378 N 
HETATM   24  C   UNL     1      23.909  44.422  50.233  1.00  0.00     0.143 C 
HETATM   25  C   UNL     1      25.034  43.380  50.331  1.00  0.00     0.146 C 
HETATM   26  N   UNL     1      26.131  43.822  51.193  1.00  0.00    -0.345 N 
HETATM   27  C   UNL     1      26.979  42.818  51.667  1.00  0.00     0.253 C 
HETATM   28  C   UNL     1      26.651  45.149  50.840  1.00  0.00     0.146 C 
HETATM   29  O   UNL     1      26.880  41.639  51.331  1.00  0.00    -0.267 OA
HETATM   30  C   UNL     1      25.544  46.214  50.681  1.00  0.00     0.143 C 
BRANCH  27  31
HETATM   31  C   UNL     1      28.004  43.165  52.683  1.00  0.00     0.032 A 
HETATM   32  C   UNL     1      27.655  43.873  53.838  1.00  0.00     0.017 A 
HETATM   33  C   UNL     1      28.611  44.101  54.831  1.00  0.00     0.007 A 
HETATM   34  C   UNL     1      29.919  43.621  54.681  1.00  0.00    -0.062 A 
HETATM   35  C   UNL     1      30.923  43.800  55.783  1.00  0.00     0.048 C 
HETATM   36  C   UNL     1      30.254  42.893  53.532  1.00  0.00     0.007 A 
HETATM   37  C   UNL     1      29.301  42.663  52.537  1.00  0.00     0.017 A 
ENDBRANCH  27  31
ENDBRANCH   1  23
TORSDOF 7
ENDMDL
MODEL 7
REMARK VINA RESULT:      -9.3      4.054     10.721
REMARK  7 active torsions:
REMARK  status: ('A' for Active; 'I' for Inactive)
REMARK    1  A    between atoms: C_5  and  C_6 
REMARK       I    between atoms: C_6  and  N_7 
REMARK    2  A    between atoms: N_10  and  C_11 
REMARK    3  A    between atoms: C_14  and  N_15 
REMARK    4  A    between atoms: N_15  and  C_16 
REMARK    5  A    between atoms: C_16  and  N_17 
REMARK       I    between atoms: N_17  and  C_18 
REMARK    6  A    between atoms: C_18  and  C_19 
REMARK    7  A    between atoms: C_22  and  O_23 
ROOT
HETATM    1  C   UNL     1      22.821  44.909  48.449  1.00  0.00     0.030 A 
HETATM    2  C   UNL     1      23.303  44.242  47.311  1.00  0.00     0.031 A 
HETATM    3  C   UNL     1      23.647  42.880  47.329  1.00  0.00     0.032 A 
HETATM    4  C   UNL     1      23.501  42.124  48.490  1.00  0.00     0.034 A 
HETATM    5  C   UNL     1      23.017  42.754  49.631  1.00  0.00     0.032 A 
HETATM    6  C   UNL     1      22.699  44.121  49.607  1.00  0.00     0.031 A 
ENDROOT
BRANCH   4   7
HETATM    7  N   UNL     1      23.956  40.783  48.471  1.00  0.00    -0.333 N 
HETATM    8  H   UNL     1      23.254  40.120  48.155  1.00  0.00     0.168 HD
BRANCH   7   9
HETATM    9  C   UNL     1      25.239  40.355  48.330  1.00  0.00     0.179 C 
HETATM   10  S   UNL     1      25.900  40.188  46.807  1.00  0.00    -0.040 SA
BRANCH   9  11
HETATM   11  N   UNL     1      25.978  39.999  49.431  1.00  0.00    -0.299 N 
HETATM   12  C   UNL     1      26.887  40.706  50.209  1.00  0.00     0.257 C 
HETATM   13  O   UNL     1      27.847  40.140  50.725  1.00  0.00    -0.267 OA
HETATM   14  H   UNL     1      25.955  39.010  49.646  1.00  0.00     0.171 HD
BRANCH  12  15
HETATM   15  C   UNL     1      26.655  42.157  50.442  1.00  0.00     0.032 A 
HETATM   16  C   UNL     1      26.888  43.099  49.435  1.00  0.00     0.020 A 
HETATM   17  C   UNL     1      26.635  44.452  49.674  1.00  0.00     0.038 A 
HETATM   18  C   UNL     1      26.130  44.875  50.904  1.00  0.00     0.068 A 
HETATM   19  C   UNL     1      25.873  43.931  51.901  1.00  0.00     0.038 A 
HETATM   20  C   UNL     1      26.128  42.574  51.668  1.00  0.00     0.020 A 
BRANCH  18  21
HETATM   21  O   UNL     1      25.931  46.225  51.001  1.00  0.00    -0.356 OA
HETATM   22  C   UNL     1      25.747  46.758  52.306  1.00  0.00     0.210 C 
ENDBRANCH  18  21
ENDBRANCH  12  15
ENDBRANCH   9  11
ENDBRANCH   7   9
ENDBRANCH   4   7
BRANCH   1  23
HETATM   23  N   UNL     1      22.558  46.285  48.481  1.00  0.00    -0.378 N 
HETATM   24  C   UNL     1      23.442  47.119  49.335  1.00  0.00     0.143 C 
HETATM   25  C   UNL     1      23.348  48.600  48.936  1.00  0.00     0.146 C 
HETATM   26  N   UNL     1      21.971  49.093  48.939  1.00  0.00    -0.345 N 
HETATM   27  C   UNL     1      21.818  50.481  48.996  1.00  0.00     0.253 C 
HETATM   28  C   UNL     1      21.052  48.261  48.152  1.00  0.00     0.146 C 
HETATM   29  O   UNL     1      22.765  51.264  48.964  1.00  0.00    -0.267 OA
HETATM   30  C   UNL     1      21.154  46.757  48.488  1.00  0.00     0.143 C 
BRANCH  27  31
HETATM   31  C   UNL     1      20.458  51.045  49.178  1.00  0.00     0.032 A 
HETATM   32  C   UNL     1      19.982  52.053  48.332  1.00  0.00     0.017 A 
HETATM   33  C   UNL     1      18.664  52.500  48.453  1.00  0.00     0.007 A 
HETATM   34  C   UNL     1      17.810  51.942  49.414  1.00  0.00    -0.062 A 
HETATM   35  C   UNL     1      16.373  52.369  49.490  1.00  0.00     0.048 C 
HETATM   36  C   UNL     1      18.287  50.917  50.241  1.00  0.00     0.007 A 
HETATM   37  C   UNL     1      19.605  50.468  50.124  1.00  0.00     0.017 A 
ENDBRANCH  27  31
ENDBRANCH   1  23
TORSDOF 7
ENDMDL
MODEL 8
REMARK VINA RESULT:      -9.1     12.919     14.568
REMARK  7 active torsions:
REMARK  status: ('A' for Active; 'I' for Inactive)
REMARK    1  A    between atoms: C_5  and  C_6 
REMARK       I    between atoms: C_6  and  N_7 
REMARK    2  A    between atoms: N_10  and  C_11 
REMARK    3  A    between atoms: C_14  and  N_15 
REMARK    4  A    between atoms: N_15  and  C_16 
REMARK    5  A    between atoms: C_16  and  N_17 
REMARK       I    between atoms: N_17  and  C_18 
REMARK    6  A    between atoms: C_18  and  C_19 
REMARK    7  A    between atoms: C_22  and  O_23 
ROOT
HETATM    1  C   UNL     1      31.850  49.161  41.386  1.00  0.00     0.030 A 
HETATM    2  C   UNL     1      30.722  49.323  42.206  1.00  0.00     0.031 A 
HETATM    3  C   UNL     1      29.532  48.607  41.994  1.00  0.00     0.032 A 
HETATM    4  C   UNL     1      29.433  47.682  40.957  1.00  0.00     0.034 A 
HETATM    5  C   UNL     1      30.537  47.494  40.133  1.00  0.00     0.032 A 
HETATM    6  C   UNL     1      31.712  48.232  40.341  1.00  0.00     0.031 A 
ENDROOT
BRANCH   4   7
HETATM    7  N   UNL     1      28.178  47.065  40.735  1.00  0.00    -0.333 N 
HETATM    8  H   UNL     1      27.949  46.350  41.421  1.00  0.00     0.168 HD
BRANCH   7   9
HETATM    9  C   UNL     1      27.101  47.602  40.102  1.00  0.00     0.179 C 
HETATM   10  S   UNL     1      25.610  47.613  40.852  1.00  0.00    -0.040 SA
BRANCH   9  11
HETATM   11  N   UNL     1      27.216  48.083  38.821  1.00  0.00    -0.299 N 
HETATM   12  C   UNL     1      27.314  49.375  38.317  1.00  0.00     0.257 C 
HETATM   13  O   UNL     1      26.828  49.663  37.227  1.00  0.00    -0.267 OA
HETATM   14  H   UNL     1      27.084  47.384  38.100  1.00  0.00     0.171 HD
BRANCH  12  15
HETATM   15  C   UNL     1      28.055  50.397  39.104  1.00  0.00     0.032 A 
HETATM   16  C   UNL     1      29.358  50.771  38.761  1.00  0.00     0.020 A 
HETATM   17  C   UNL     1      30.019  51.754  39.503  1.00  0.00     0.038 A 
HETATM   18  C   UNL     1      29.384  52.386  40.574  1.00  0.00     0.068 A 
HETATM   19  C   UNL     1      28.073  52.030  40.900  1.00  0.00     0.038 A 
HETATM   20  C   UNL     1      27.407  51.043  40.162  1.00  0.00     0.020 A 
BRANCH  18  21
HETATM   21  O   UNL     1      30.146  53.325  41.211  1.00  0.00    -0.356 OA
HETATM   22  C   UNL     1      31.450  53.556  40.693  1.00  0.00     0.210 C 
ENDBRANCH  18  21
ENDBRANCH  12  15
ENDBRANCH   9  11
ENDBRANCH   7   9
ENDBRANCH   4   7
BRANCH   1  23
HETATM   23  N   UNL     1      33.016  49.929  41.520  1.00  0.00    -0.378 N 
HETATM   24  C   UNL     1      34.286  49.308  41.064  1.00  0.00     0.143 C 
HETATM   25  C   UNL     1      35.367  50.378  40.842  1.00  0.00     0.146 C 
HETATM   26  N   UNL     1      35.568  51.222  42.019  1.00  0.00    -0.345 N 
HETATM   27  C   UNL     1      36.773  51.929  42.067  1.00  0.00     0.253 C 
HETATM   28  C   UNL     1      34.325  51.808  42.536  1.00  0.00     0.146 C 
HETATM   29  O   UNL     1      37.593  51.922  41.152  1.00  0.00    -0.267 OA
HETATM   30  C   UNL     1      33.195  50.772  42.725  1.00  0.00     0.143 C 
BRANCH  27  31
HETATM   31  C   UNL     1      37.124  52.665  43.307  1.00  0.00     0.032 A 
HETATM   32  C   UNL     1      37.380  51.979  44.498  1.00  0.00     0.017 A 
HETATM   33  C   UNL     1      37.809  52.679  45.628  1.00  0.00     0.007 A 
HETATM   34  C   UNL     1      37.991  54.068  45.576  1.00  0.00    -0.062 A 
HETATM   35  C   UNL     1      38.526  54.808  46.767  1.00  0.00     0.048 C 
HETATM   36  C   UNL     1      37.755  54.745  44.372  1.00  0.00     0.007 A 
HETATM   37  C   UNL     1      37.325  54.047  43.241  1.00  0.00     0.017 A 
ENDBRANCH  27  31
ENDBRANCH   1  23
TORSDOF 7
ENDMDL
MODEL 9
REMARK VINA RESULT:      -8.9     21.224     23.220
REMARK  7 active torsions:
REMARK  status: ('A' for Active; 'I' for Inactive)
REMARK    1  A    between atoms: C_5  and  C_6 
REMARK       I    between atoms: C_6  and  N_7 
REMARK    2  A    between atoms: N_10  and  C_11 
REMARK    3  A    between atoms: C_14  and  N_15 
REMARK    4  A    between atoms: N_15  and  C_16 
REMARK    5  A    between atoms: C_16  and  N_17 
REMARK       I    between atoms: N_17  and  C_18 
REMARK    6  A    between atoms: C_18  and  C_19 
REMARK    7  A    between atoms: C_22  and  O_23 
ROOT
HETATM    1  C   UNL     1      38.080  45.049  65.404  1.00  0.00     0.030 A 
HETATM    2  C   UNL     1      37.325  45.948  64.634  1.00  0.00     0.031 A 
HETATM    3  C   UNL     1      36.787  47.129  65.172  1.00  0.00     0.032 A 
HETATM    4  C   UNL     1      37.002  47.466  66.506  1.00  0.00     0.034 A 
HETATM    5  C   UNL     1      37.755  46.600  67.292  1.00  0.00     0.032 A 
HETATM    6  C   UNL     1      38.267  45.412  66.749  1.00  0.00     0.031 A 
ENDROOT
BRANCH   4   7
HETATM    7  N   UNL     1      36.353  48.617  67.014  1.00  0.00    -0.333 N 
HETATM    8  H   UNL     1      35.388  48.454  67.287  1.00  0.00     0.168 HD
BRANCH   7   9
HETATM    9  C   UNL     1      36.936  49.686  67.619  1.00  0.00     0.179 C 
HETATM   10  S   UNL     1      36.885  49.835  69.281  1.00  0.00    -0.040 SA
BRANCH   9  11
HETATM   11  N   UNL     1      37.516  50.680  66.870  1.00  0.00    -0.299 N 
HETATM   12  C   UNL     1      38.827  50.889  66.457  1.00  0.00     0.257 C 
HETATM   13  O   UNL     1      39.274  52.026  66.337  1.00  0.00    -0.267 OA
HETATM   14  H   UNL     1      36.910  51.470  66.684  1.00  0.00     0.171 HD
BRANCH  12  15
HETATM   15  C   UNL     1      39.669  49.710  66.121  1.00  0.00     0.032 A 
HETATM   16  C   UNL     1      40.416  49.051  67.103  1.00  0.00     0.020 A 
HETATM   17  C   UNL     1      41.177  47.928  66.764  1.00  0.00     0.038 A 
HETATM   18  C   UNL     1      41.184  47.442  65.455  1.00  0.00     0.068 A 
HETATM   19  C   UNL     1      40.418  48.085  64.481  1.00  0.00     0.038 A 
HETATM   20  C   UNL     1      39.656  49.213  64.815  1.00  0.00     0.020 A 
BRANCH  18  21
HETATM   21  O   UNL     1      41.972  46.340  65.265  1.00  0.00    -0.356 OA
HETATM   22  C   UNL     1      41.667  45.516  64.148  1.00  0.00     0.210 C 
ENDBRANCH  18  21
ENDBRANCH  12  15
ENDBRANCH   9  11
ENDBRANCH   7   9
ENDBRANCH   4   7
BRANCH   1  23
HETATM   23  N   UNL     1      38.550  43.822  64.915  1.00  0.00    -0.378 N 
HETATM   24  C   UNL     1      37.651  43.075  63.999  1.00  0.00     0.143 C 
HETATM   25  C   UNL     1      38.437  42.022  63.201  1.00  0.00     0.146 C 
HETATM   26  N   UNL     1      39.199  41.121  64.066  1.00  0.00    -0.345 N 
HETATM   27  C   UNL     1      39.601  39.914  63.489  1.00  0.00     0.253 C 
HETATM   28  C   UNL     1      40.057  41.824  65.029  1.00  0.00     0.146 C 
HETATM   29  O   UNL     1      39.409  39.637  62.307  1.00  0.00    -0.267 OA
HETATM   30  C   UNL     1      39.315  42.927  65.814  1.00  0.00     0.143 C 
BRANCH  27  31
HETATM   31  C   UNL     1      40.223  38.878  64.352  1.00  0.00     0.032 A 
HETATM   32  C   UNL     1      39.564  38.408  65.492  1.00  0.00     0.017 A 
HETATM   33  C   UNL     1      40.116  37.361  66.235  1.00  0.00     0.007 A 
HETATM   34  C   UNL     1      41.326  36.773  65.842  1.00  0.00    -0.062 A 
HETATM   35  C   UNL     1      41.878  35.598  66.595  1.00  0.00     0.048 C 
HETATM   36  C   UNL     1      41.967  37.234  64.685  1.00  0.00     0.007 A 
HETATM   37  C   UNL     1      41.418  38.281  63.940  1.00  0.00     0.017 A 
ENDBRANCH  27  31
ENDBRANCH   1  23
TORSDOF 7
ENDMDL
MODEL 10
REMARK VINA RESULT:      -8.8      5.997      8.662
REMARK  7 active torsions:
REMARK  status: ('A' for Active; 'I' for Inactive)
REMARK    1  A    between atoms: C_5  and  C_6 
REMARK       I    between atoms: C_6  and  N_7 
REMARK    2  A    between atoms: N_10  and  C_11 
REMARK    3  A    between atoms: C_14  and  N_15 
REMARK    4  A    between atoms: N_15  and  C_16 
REMARK    5  A    between atoms: C_16  and  N_17 
REMARK       I    between atoms: N_17  and  C_18 
REMARK    6  A    between atoms: C_18  and  C_19 
REMARK    7  A    between atoms: C_22  and  O_23 
ROOT
HETATM    1  C   UNL     1      24.421  44.127  50.394  1.00  0.00     0.030 A 
HETATM    2  C   UNL     1      24.444  44.712  49.118  1.00  0.00     0.031 A 
HETATM    3  C   UNL     1      23.745  44.164  48.029  1.00  0.00     0.032 A 
HETATM    4  C   UNL     1      22.975  43.014  48.184  1.00  0.00     0.034 A 
HETATM    5  C   UNL     1      22.924  42.417  49.439  1.00  0.00     0.032 A 
HETATM    6  C   UNL     1      23.646  42.961  50.513  1.00  0.00     0.031 A 
ENDROOT
BRANCH   4   7
HETATM    7  N   UNL     1      22.373  42.457  47.029  1.00  0.00    -0.333 N 
HETATM    8  H   UNL     1      22.035  43.153  46.370  1.00  0.00     0.168 HD
BRANCH   7   9
HETATM    9  C   UNL     1      22.626  41.239  46.481  1.00  0.00     0.179 C 
HETATM   10  S   UNL     1      21.872  39.879  47.086  1.00  0.00    -0.040 SA
BRANCH   9  11
HETATM   11  N   UNL     1      23.546  41.108  45.470  1.00  0.00    -0.299 N 
HETATM   12  C   UNL     1      24.936  41.083  45.476  1.00  0.00     0.257 C 
HETATM   13  O   UNL     1      25.576  41.544  44.535  1.00  0.00    -0.267 OA
HETATM   14  H   UNL     1      23.153  41.161  44.539  1.00  0.00     0.171 HD
BRANCH  12  15
HETATM   15  C   UNL     1      25.637  40.449  46.624  1.00  0.00     0.032 A 
HETATM   16  C   UNL     1      26.094  41.212  47.704  1.00  0.00     0.020 A 
HETATM   17  C   UNL     1      26.725  40.586  48.782  1.00  0.00     0.038 A 
HETATM   18  C   UNL     1      26.887  39.200  48.806  1.00  0.00     0.068 A 
HETATM   19  C   UNL     1      26.407  38.436  47.739  1.00  0.00     0.038 A 
HETATM   20  C   UNL     1      25.777  39.059  46.654  1.00  0.00     0.020 A 
BRANCH  18  21
HETATM   21  O   UNL     1      27.521  38.722  49.919  1.00  0.00    -0.356 OA
HETATM   22  C   UNL     1      28.706  37.965  49.711  1.00  0.00     0.210 C 
ENDBRANCH  18  21
ENDBRANCH  12  15
ENDBRANCH   9  11
ENDBRANCH   7   9
ENDBRANCH   4   7
BRANCH   1  23
HETATM   23  N   UNL     1      25.182  44.601  51.472  1.00  0.00    -0.378 N 
HETATM   24  C   UNL     1      25.802  45.942  51.319  1.00  0.00     0.143 C 
HETATM   25  C   UNL     1      26.201  46.518  52.687  1.00  0.00     0.146 C 
HETATM   26  N   UNL     1      27.058  45.608  53.448  1.00  0.00    -0.345 N 
HETATM   27  C   UNL     1      27.793  46.184  54.488  1.00  0.00     0.253 C 
HETATM   28  C   UNL     1      26.506  44.253  53.571  1.00  0.00     0.146 C 
HETATM   29  O   UNL     1      27.682  47.364  54.815  1.00  0.00    -0.267 OA
HETATM   30  C   UNL     1      26.044  43.658  52.222  1.00  0.00     0.143 C 
BRANCH  27  31
HETATM   31  C   UNL     1      28.811  45.363  55.188  1.00  0.00     0.032 A 
HETATM   32  C   UNL     1      29.330  44.208  54.593  1.00  0.00     0.017 A 
HETATM   33  C   UNL     1      30.363  43.505  55.220  1.00  0.00     0.007 A 
HETATM   34  C   UNL     1      30.887  43.951  56.440  1.00  0.00    -0.062 A 
HETATM   35  C   UNL     1      32.046  43.239  57.073  1.00  0.00     0.048 C 
HETATM   36  C   UNL     1      30.377  45.122  57.017  1.00  0.00     0.007 A 
HETATM   37  C   UNL     1      29.345  45.827  56.394  1.00  0.00     0.017 A 
ENDBRANCH  27  31
ENDBRANCH   1  23
TORSDOF 7
ENDMDL
