MODEL 1
REMARK VINA RESULT:      -9.7      0.000      0.000
REMARK  3 active torsions:
REMARK  status: ('A' for Active; 'I' for Inactive)
REMARK    1  A    between atoms: C_5  and  C_6 
REMARK    2  A    between atoms: C_11  and  C_12 
REMARK    3  A    between atoms: C_23  and  O_24 
ROOT
HETATM    1  C   UNL     1      24.774  47.530  50.504  1.00  0.00     0.031 C 
HETATM    2  C   UNL     1      25.166  48.309  49.485  1.00  0.00     0.066 A 
HETATM    3  C   UNL     1      26.550  48.615  49.046  1.00  0.00     0.274 A 
HETATM    4  O   UNL     1      27.608  48.165  49.433  1.00  0.00    -0.266 OA
HETATM    5  N   UNL     1      26.361  49.591  48.079  1.00  0.00    -0.242 N 
HETATM    6  C   UNL     1      24.321  49.159  48.603  1.00  0.00     0.111 A 
HETATM    7  N   UNL     1      25.052  49.919  47.817  1.00  0.00    -0.170 NA
HETATM    8  H   UNL     1      27.125  50.018  47.568  1.00  0.00     0.192 HD
ENDROOT
BRANCH   6   9
HETATM    9  C   UNL     1      22.843  49.188  48.623  1.00  0.00     0.098 C 
HETATM   10  C   UNL     1      22.022  48.126  47.983  1.00  0.00     0.263 C 
HETATM   11  O   UNL     1      22.578  47.264  47.303  1.00  0.00    -0.267 OA
HETATM   12  N   UNL     1      20.646  48.154  48.184  1.00  0.00    -0.317 N 
HETATM   13  C   UNL     1      19.848  47.066  47.640  1.00  0.00     0.159 C 
HETATM   14  C   UNL     1      20.002  49.256  48.822  1.00  0.00     0.050 A 
HETATM   15  C   UNL     1      20.784  50.316  49.313  1.00  0.00     0.025 A 
HETATM   16  C   UNL     1      18.604  49.323  48.952  1.00  0.00     0.031 A 
HETATM   17  C   UNL     1      20.152  51.420  49.911  1.00  0.00     0.016 A 
HETATM   18  C   UNL     1      22.249  50.247  49.203  1.00  0.00     0.096 C 
HETATM   19  C   UNL     1      18.764  51.476  50.028  1.00  0.00     0.001 A 
HETATM   20  C   UNL     1      17.991  50.425  49.550  1.00  0.00     0.002 A 
BRANCH  18  21
HETATM   21  O   UNL     1      22.931  51.325  49.745  1.00  0.00    -0.359 OA
HETATM   22  H   UNL     1      23.661  50.987  50.307  1.00  0.00     0.218 HD
ENDBRANCH  18  21
ENDBRANCH   6   9
BRANCH   1  23
HETATM   23  C   UNL     1      25.624  46.685  51.351  1.00  0.00    -0.035 A 
HETATM   24  C   UNL     1      25.896  47.083  52.664  1.00  0.00     0.012 A 
HETATM   25  C   UNL     1      26.635  46.257  53.517  1.00  0.00     0.007 A 
HETATM   26  C   UNL     1      27.113  45.021  53.069  1.00  0.00    -0.062 A 
HETATM   27  C   UNL     1      27.875  44.111  53.986  1.00  0.00     0.048 C 
HETATM   28  C   UNL     1      26.823  44.616  51.762  1.00  0.00     0.007 A 
HETATM   29  C   UNL     1      26.081  45.439  50.911  1.00  0.00     0.012 A 
ENDBRANCH   1  23
TORSDOF 3
ENDMDL
MODEL 2
REMARK VINA RESULT:      -9.0      0.770      2.382
REMARK  3 active torsions:
REMARK  status: ('A' for Active; 'I' for Inactive)
REMARK    1  A    between atoms: C_5  and  C_6 
REMARK    2  A    between atoms: C_11  and  C_12 
REMARK    3  A    between atoms: C_23  and  O_24 
ROOT
HETATM    1  C   UNL     1      24.587  47.600  50.459  1.00  0.00     0.031 C 
HETATM    2  C   UNL     1      24.951  48.408  49.452  1.00  0.00     0.066 A 
HETATM    3  C   UNL     1      26.324  48.750  49.003  1.00  0.00     0.274 A 
HETATM    4  O   UNL     1      27.395  48.312  49.367  1.00  0.00    -0.266 OA
HETATM    5  N   UNL     1      26.103  49.742  48.059  1.00  0.00    -0.242 N 
HETATM    6  C   UNL     1      24.079  49.260  48.599  1.00  0.00     0.111 A 
HETATM    7  N   UNL     1      24.786  50.050  47.821  1.00  0.00    -0.170 NA
HETATM    8  H   UNL     1      26.852  50.195  47.548  1.00  0.00     0.192 HD
ENDROOT
BRANCH   6   9
HETATM    9  C   UNL     1      22.601  49.260  48.637  1.00  0.00     0.098 C 
HETATM   10  C   UNL     1      21.831  50.241  49.448  1.00  0.00     0.263 C 
HETATM   11  O   UNL     1      22.434  50.994  50.213  1.00  0.00    -0.267 OA
HETATM   12  N   UNL     1      20.448  50.264  49.302  1.00  0.00    -0.317 N 
HETATM   13  C   UNL     1      19.698  51.284  50.020  1.00  0.00     0.159 C 
HETATM   14  C   UNL     1      19.753  49.270  48.550  1.00  0.00     0.050 A 
HETATM   15  C   UNL     1      20.490  48.272  47.890  1.00  0.00     0.025 A 
HETATM   16  C   UNL     1      18.351  49.247  48.472  1.00  0.00     0.031 A 
HETATM   17  C   UNL     1      19.810  47.270  47.177  1.00  0.00     0.016 A 
HETATM   18  C   UNL     1      21.960  48.299  47.946  1.00  0.00     0.096 C 
HETATM   19  C   UNL     1      18.417  47.256  47.111  1.00  0.00     0.001 A 
HETATM   20  C   UNL     1      17.689  48.246  47.758  1.00  0.00     0.002 A 
BRANCH  18  21
HETATM   21  O   UNL     1      22.595  47.292  47.236  1.00  0.00    -0.359 OA
HETATM   22  H   UNL     1      21.915  46.743  46.790  1.00  0.00     0.218 HD
ENDBRANCH  18  21
ENDBRANCH   6   9
BRANCH   1  23
HETATM   23  C   UNL     1      25.463  46.753  51.276  1.00  0.00    -0.035 A 
HETATM   24  C   UNL     1      25.791  47.157  52.575  1.00  0.00     0.012 A 
HETATM   25  C   UNL     1      26.557  46.330  53.404  1.00  0.00     0.007 A 
HETATM   26  C   UNL     1      27.007  45.088  52.945  1.00  0.00    -0.062 A 
HETATM   27  C   UNL     1      27.798  44.178  53.837  1.00  0.00     0.048 C 
HETATM   28  C   UNL     1      26.663  44.677  51.653  1.00  0.00     0.007 A 
HETATM   29  C   UNL     1      25.894  45.501  50.827  1.00  0.00     0.012 A 
ENDBRANCH   1  23
TORSDOF 3
ENDMDL
MODEL 3
REMARK VINA RESULT:      -8.8      2.019      7.194
REMARK  3 active torsions:
REMARK  status: ('A' for Active; 'I' for Inactive)
REMARK    1  A    between atoms: C_5  and  C_6 
REMARK    2  A    between atoms: C_11  and  C_12 
REMARK    3  A    between atoms: C_23  and  O_24 
ROOT
HETATM    1  C   UNL     1      23.426  48.455  49.448  1.00  0.00     0.031 C 
HETATM    2  C   UNL     1      24.711  48.672  49.132  1.00  0.00     0.066 A 
HETATM    3  C   UNL     1      25.272  49.723  48.248  1.00  0.00     0.274 A 
HETATM    4  O   UNL     1      24.724  50.661  47.706  1.00  0.00    -0.266 OA
HETATM    5  N   UNL     1      26.609  49.366  48.150  1.00  0.00    -0.242 N 
HETATM    6  C   UNL     1      25.896  47.846  49.492  1.00  0.00     0.111 A 
HETATM    7  N   UNL     1      26.981  48.260  48.875  1.00  0.00    -0.170 NA
HETATM    8  H   UNL     1      27.284  49.895  47.609  1.00  0.00     0.192 HD
ENDROOT
BRANCH   6   9
HETATM    9  C   UNL     1      25.866  46.678  50.398  1.00  0.00     0.098 C 
HETATM   10  C   UNL     1      25.363  45.349  49.959  1.00  0.00     0.263 C 
HETATM   11  O   UNL     1      24.833  45.243  48.853  1.00  0.00    -0.267 OA
HETATM   12  N   UNL     1      25.517  44.274  50.827  1.00  0.00    -0.317 N 
HETATM   13  C   UNL     1      25.112  42.954  50.366  1.00  0.00     0.159 C 
HETATM   14  C   UNL     1      25.968  44.449  52.170  1.00  0.00     0.050 A 
HETATM   15  C   UNL     1      26.322  45.736  52.610  1.00  0.00     0.025 A 
HETATM   16  C   UNL     1      26.044  43.375  53.072  1.00  0.00     0.031 A 
HETATM   17  C   UNL     1      26.734  45.921  53.941  1.00  0.00     0.016 A 
HETATM   18  C   UNL     1      26.268  46.865  51.669  1.00  0.00     0.096 C 
HETATM   19  C   UNL     1      26.800  44.846  54.828  1.00  0.00     0.001 A 
HETATM   20  C   UNL     1      26.456  43.573  54.391  1.00  0.00     0.002 A 
BRANCH  18  21
HETATM   21  O   UNL     1      26.668  48.086  52.190  1.00  0.00    -0.359 OA
HETATM   22  H   UNL     1      27.541  47.974  52.623  1.00  0.00     0.218 HD
ENDBRANCH  18  21
ENDBRANCH   6   9
BRANCH   1  23
HETATM   23  C   UNL     1      22.274  49.294  49.096  1.00  0.00    -0.035 A 
HETATM   24  C   UNL     1      21.946  50.384  49.909  1.00  0.00     0.012 A 
HETATM   25  C   UNL     1      20.904  51.248  49.553  1.00  0.00     0.007 A 
HETATM   26  C   UNL     1      20.175  51.031  48.379  1.00  0.00    -0.062 A 
HETATM   27  C   UNL     1      19.080  51.971  47.968  1.00  0.00     0.048 C 
HETATM   28  C   UNL     1      20.517  49.952  47.558  1.00  0.00     0.007 A 
HETATM   29  C   UNL     1      21.560  49.093  47.912  1.00  0.00     0.012 A 
ENDBRANCH   1  23
TORSDOF 3
ENDMDL
MODEL 4
REMARK VINA RESULT:      -8.7     10.566     12.004
REMARK  3 active torsions:
REMARK  status: ('A' for Active; 'I' for Inactive)
REMARK    1  A    between atoms: C_5  and  C_6 
REMARK    2  A    between atoms: C_11  and  C_12 
REMARK    3  A    between atoms: C_23  and  O_24 
ROOT
HETATM    1  C   UNL     1      31.108  50.889  41.403  1.00  0.00     0.031 C 
HETATM    2  C   UNL     1      30.382  51.742  40.666  1.00  0.00     0.066 A 
HETATM    3  C   UNL     1      30.536  53.214  40.551  1.00  0.00     0.274 A 
HETATM    4  O   UNL     1      31.392  53.946  41.004  1.00  0.00    -0.266 OA
HETATM    5  N   UNL     1      29.427  53.586  39.807  1.00  0.00    -0.242 N 
HETATM    6  C   UNL     1      29.163  51.453  39.862  1.00  0.00     0.111 A 
HETATM    7  N   UNL     1      28.612  52.555  39.403  1.00  0.00    -0.170 NA
HETATM    8  H   UNL     1      29.234  54.545  39.543  1.00  0.00     0.192 HD
ENDROOT
BRANCH   6   9
HETATM    9  C   UNL     1      28.604  50.104  39.634  1.00  0.00     0.098 C 
HETATM   10  C   UNL     1      29.358  49.048  38.905  1.00  0.00     0.263 C 
HETATM   11  O   UNL     1      30.423  49.338  38.360  1.00  0.00    -0.267 OA
HETATM   12  N   UNL     1      28.818  47.767  38.872  1.00  0.00    -0.317 N 
HETATM   13  C   UNL     1      29.595  46.709  38.242  1.00  0.00     0.159 C 
HETATM   14  C   UNL     1      27.503  47.491  39.352  1.00  0.00     0.050 A 
HETATM   15  C   UNL     1      26.752  48.531  39.927  1.00  0.00     0.025 A 
HETATM   16  C   UNL     1      26.928  46.214  39.243  1.00  0.00     0.031 A 
HETATM   17  C   UNL     1      25.444  48.274  40.370  1.00  0.00     0.016 A 
HETATM   18  C   UNL     1      27.352  49.866  40.066  1.00  0.00     0.096 C 
HETATM   19  C   UNL     1      24.883  47.002  40.251  1.00  0.00     0.001 A 
HETATM   20  C   UNL     1      25.627  45.973  39.689  1.00  0.00     0.002 A 
BRANCH  18  21
HETATM   21  O   UNL     1      26.544  50.814  40.675  1.00  0.00    -0.359 OA
HETATM   22  H   UNL     1      25.944  50.360  41.305  1.00  0.00     0.218 HD
ENDBRANCH  18  21
ENDBRANCH   6   9
BRANCH   1  23
HETATM   23  C   UNL     1      32.319  51.193  42.173  1.00  0.00    -0.035 A 
HETATM   24  C   UNL     1      33.561  51.191  41.529  1.00  0.00     0.012 A 
HETATM   25  C   UNL     1      34.721  51.557  42.221  1.00  0.00     0.007 A 
HETATM   26  C   UNL     1      34.654  51.930  43.568  1.00  0.00    -0.062 A 
HETATM   27  C   UNL     1      35.886  52.359  44.309  1.00  0.00     0.048 C 
HETATM   28  C   UNL     1      33.410  51.951  44.205  1.00  0.00     0.007 A 
HETATM   29  C   UNL     1      32.251  51.589  43.512  1.00  0.00     0.012 A 
ENDBRANCH   1  23
TORSDOF 3
ENDMDL
MODEL 5
REMARK VINA RESULT:      -8.4      1.523      2.025
REMARK  3 active torsions:
REMARK  status: ('A' for Active; 'I' for Inactive)
REMARK    1  A    between atoms: C_5  and  C_6 
REMARK    2  A    between atoms: C_11  and  C_12 
REMARK    3  A    between atoms: C_23  and  O_24 
ROOT
HETATM    1  C   UNL     1      23.791  46.344  49.736  1.00  0.00     0.031 C 
HETATM    2  C   UNL     1      24.434  47.475  49.411  1.00  0.00     0.066 A 
HETATM    3  C   UNL     1      25.891  47.751  49.473  1.00  0.00     0.274 A 
HETATM    4  O   UNL     1      26.815  47.007  49.727  1.00  0.00    -0.266 OA
HETATM    5  N   UNL     1      25.962  49.108  49.195  1.00  0.00    -0.242 N 
HETATM    6  C   UNL     1      23.845  48.783  49.014  1.00  0.00     0.111 A 
HETATM    7  N   UNL     1      24.762  49.721  48.929  1.00  0.00    -0.170 NA
HETATM    8  H   UNL     1      26.837  49.618  49.154  1.00  0.00     0.192 HD
ENDROOT
BRANCH   6   9
HETATM    9  C   UNL     1      22.405  49.024  48.781  1.00  0.00     0.098 C 
HETATM   10  C   UNL     1      21.632  48.271  47.757  1.00  0.00     0.263 C 
HETATM   11  O   UNL     1      22.228  47.516  46.989  1.00  0.00    -0.267 OA
HETATM   12  N   UNL     1      20.254  48.454  47.715  1.00  0.00    -0.317 N 
HETATM   13  C   UNL     1      19.482  47.651  46.780  1.00  0.00     0.159 C 
HETATM   14  C   UNL     1      19.605  49.462  48.489  1.00  0.00     0.050 A 
HETATM   15  C   UNL     1      20.370  50.253  49.363  1.00  0.00     0.025 A 
HETATM   16  C   UNL     1      18.225  49.702  48.384  1.00  0.00     0.031 A 
HETATM   17  C   UNL     1      19.742  51.270  50.102  1.00  0.00     0.016 A 
HETATM   18  C   UNL     1      21.812  49.997  49.498  1.00  0.00     0.096 C 
HETATM   19  C   UNL     1      18.372  51.501  49.984  1.00  0.00     0.001 A 
HETATM   20  C   UNL     1      17.614  50.715  49.126  1.00  0.00     0.002 A 
BRANCH  18  21
HETATM   21  O   UNL     1      22.472  50.808  50.408  1.00  0.00    -0.359 OA
HETATM   22  H   UNL     1      23.438  50.737  50.253  1.00  0.00     0.218 HD
ENDBRANCH  18  21
ENDBRANCH   6   9
BRANCH   1  23
HETATM   23  C   UNL     1      24.393  45.058  50.107  1.00  0.00    -0.035 A 
HETATM   24  C   UNL     1      24.769  44.161  49.101  1.00  0.00     0.012 A 
HETATM   25  C   UNL     1      25.420  42.965  49.423  1.00  0.00     0.007 A 
HETATM   26  C   UNL     1      25.702  42.649  50.757  1.00  0.00    -0.062 A 
HETATM   27  C   UNL     1      26.431  41.387  51.111  1.00  0.00     0.048 C 
HETATM   28  C   UNL     1      25.343  43.556  51.759  1.00  0.00     0.007 A 
HETATM   29  C   UNL     1      24.698  44.752  51.436  1.00  0.00     0.012 A 
ENDBRANCH   1  23
TORSDOF 3
ENDMDL
MODEL 6
REMARK VINA RESULT:      -8.3      2.621      4.682
REMARK  3 active torsions:
REMARK  status: ('A' for Active; 'I' for Inactive)
REMARK    1  A    between atoms: C_5  and  C_6 
REMARK    2  A    between atoms: C_11  and  C_12 
REMARK    3  A    between atoms: C_23  and  O_24 
ROOT
HETATM    1  C   UNL     1      26.852  45.018  51.455  1.00  0.00     0.031 C 
HETATM    2  C   UNL     1      26.066  44.361  50.590  1.00  0.00     0.066 A 
HETATM    3  C   UNL     1      25.956  42.895  50.383  1.00  0.00     0.274 A 
HETATM    4  O   UNL     1      26.463  41.981  50.999  1.00  0.00    -0.266 OA
HETATM    5  N   UNL     1      25.140  42.800  49.266  1.00  0.00    -0.242 N 
HETATM    6  C   UNL     1      25.184  44.932  49.536  1.00  0.00     0.111 A 
HETATM    7  N   UNL     1      24.686  43.994  48.760  1.00  0.00    -0.170 NA
HETATM    8  H   UNL     1      24.861  41.914  48.860  1.00  0.00     0.192 HD
ENDROOT
BRANCH   6   9
HETATM    9  C   UNL     1      24.923  46.374  49.344  1.00  0.00     0.098 C 
HETATM   10  C   UNL     1      26.024  47.367  49.210  1.00  0.00     0.263 C 
HETATM   11  O   UNL     1      27.185  47.004  49.393  1.00  0.00    -0.267 OA
HETATM   12  N   UNL     1      25.686  48.674  48.879  1.00  0.00    -0.317 N 
HETATM   13  C   UNL     1      26.762  49.627  48.654  1.00  0.00     0.159 C 
HETATM   14  C   UNL     1      24.329  49.116  48.846  1.00  0.00     0.050 A 
HETATM   15  C   UNL     1      23.302  48.191  49.099  1.00  0.00     0.025 A 
HETATM   16  C   UNL     1      23.993  50.456  48.593  1.00  0.00     0.031 A 
HETATM   17  C   UNL     1      21.966  48.627  49.103  1.00  0.00     0.016 A 
HETATM   18  C   UNL     1      23.640  46.781  49.344  1.00  0.00     0.096 C 
HETATM   19  C   UNL     1      21.646  49.962  48.855  1.00  0.00     0.001 A 
HETATM   20  C   UNL     1      22.661  50.875  48.598  1.00  0.00     0.002 A 
BRANCH  18  21
HETATM   21  O   UNL     1      22.556  45.942  49.550  1.00  0.00    -0.359 OA
HETATM   22  H   UNL     1      21.808  46.250  48.995  1.00  0.00     0.218 HD
ENDBRANCH  18  21
ENDBRANCH   6   9
BRANCH   1  23
HETATM   23  C   UNL     1      27.700  44.435  52.501  1.00  0.00    -0.035 A 
HETATM   24  C   UNL     1      28.816  43.675  52.135  1.00  0.00     0.012 A 
HETATM   25  C   UNL     1      29.687  43.176  53.109  1.00  0.00     0.007 A 
HETATM   26  C   UNL     1      29.452  43.429  54.465  1.00  0.00    -0.062 A 
HETATM   27  C   UNL     1      30.399  42.930  55.517  1.00  0.00     0.048 C 
HETATM   28  C   UNL     1      28.347  44.205  54.829  1.00  0.00     0.007 A 
HETATM   29  C   UNL     1      27.480  44.707  53.854  1.00  0.00     0.012 A 
ENDBRANCH   1  23
TORSDOF 3
ENDMDL
MODEL 7
REMARK VINA RESULT:      -8.2      2.108      3.319
REMARK  3 active torsions:
REMARK  status: ('A' for Active; 'I' for Inactive)
REMARK    1  A    between atoms: C_5  and  C_6 
REMARK    2  A    between atoms: C_11  and  C_12 
REMARK    3  A    between atoms: C_23  and  O_24 
ROOT
HETATM    1  C   UNL     1      24.164  45.998  49.934  1.00  0.00     0.031 C 
HETATM    2  C   UNL     1      23.431  45.559  48.900  1.00  0.00     0.066 A 
HETATM    3  C   UNL     1      23.544  44.266  48.181  1.00  0.00     0.274 A 
HETATM    4  O   UNL     1      24.236  43.298  48.421  1.00  0.00    -0.266 OA
HETATM    5  N   UNL     1      22.671  44.426  47.116  1.00  0.00    -0.242 N 
HETATM    6  C   UNL     1      22.392  46.299  48.133  1.00  0.00     0.111 A 
HETATM    7  N   UNL     1      21.994  45.621  47.079  1.00  0.00    -0.170 NA
HETATM    8  H   UNL     1      22.508  43.705  46.421  1.00  0.00     0.192 HD
ENDROOT
BRANCH   6   9
HETATM    9  C   UNL     1      21.889  47.646  48.476  1.00  0.00     0.098 C 
HETATM   10  C   UNL     1      22.717  48.869  48.298  1.00  0.00     0.263 C 
HETATM   11  O   UNL     1      23.900  48.752  47.981  1.00  0.00    -0.267 OA
HETATM   12  N   UNL     1      22.109  50.103  48.501  1.00  0.00    -0.317 N 
HETATM   13  C   UNL     1      22.887  51.305  48.237  1.00  0.00     0.159 C 
HETATM   14  C   UNL     1      20.793  50.214  49.040  1.00  0.00     0.050 A 
HETATM   15  C   UNL     1      20.067  49.044  49.321  1.00  0.00     0.025 A 
HETATM   16  C   UNL     1      20.211  51.462  49.321  1.00  0.00     0.031 A 
HETATM   17  C   UNL     1      18.784  49.146  49.885  1.00  0.00     0.016 A 
HETATM   18  C   UNL     1      20.657  47.733  49.010  1.00  0.00     0.096 C 
HETATM   19  C   UNL     1      18.220  50.391  50.164  1.00  0.00     0.001 A 
HETATM   20  C   UNL     1      18.934  51.548  49.880  1.00  0.00     0.002 A 
BRANCH  18  21
HETATM   21  O   UNL     1      19.850  46.642  49.293  1.00  0.00    -0.359 OA
HETATM   22  H   UNL     1      20.396  45.948  49.721  1.00  0.00     0.218 HD
ENDBRANCH  18  21
ENDBRANCH   6   9
BRANCH   1  23
HETATM   23  C   UNL     1      25.172  45.244  50.688  1.00  0.00    -0.035 A 
HETATM   24  C   UNL     1      26.477  45.155  50.191  1.00  0.00     0.012 A 
HETATM   25  C   UNL     1      27.476  44.512  50.930  1.00  0.00     0.007 A 
HETATM   26  C   UNL     1      27.183  43.949  52.177  1.00  0.00    -0.062 A 
HETATM   27  C   UNL     1      28.254  43.289  52.994  1.00  0.00     0.048 C 
HETATM   28  C   UNL     1      25.883  44.056  52.681  1.00  0.00     0.007 A 
HETATM   29  C   UNL     1      24.887  44.702  51.945  1.00  0.00     0.012 A 
ENDBRANCH   1  23
TORSDOF 3
ENDMDL
MODEL 8
REMARK VINA RESULT:      -8.2      3.270      5.401
REMARK  3 active torsions:
REMARK  status: ('A' for Active; 'I' for Inactive)
REMARK    1  A    between atoms: C_5  and  C_6 
REMARK    2  A    between atoms: C_11  and  C_12 
REMARK    3  A    between atoms: C_23  and  O_24 
ROOT
HETATM    1  C   UNL     1      22.277  49.006  48.330  1.00  0.00     0.031 C 
HETATM    2  C   UNL     1      21.314  49.743  48.904  1.00  0.00     0.066 A 
HETATM    3  C   UNL     1      21.443  50.707  50.024  1.00  0.00     0.274 A 
HETATM    4  O   UNL     1      22.435  51.114  50.593  1.00  0.00    -0.266 OA
HETATM    5  N   UNL     1      20.125  51.031  50.308  1.00  0.00    -0.242 N 
HETATM    6  C   UNL     1      19.849  49.699  48.643  1.00  0.00     0.111 A 
HETATM    7  N   UNL     1      19.183  50.438  49.503  1.00  0.00    -0.170 NA
HETATM    8  H   UNL     1      19.861  51.686  51.036  1.00  0.00     0.192 HD
ENDROOT
BRANCH   6   9
HETATM    9  C   UNL     1      19.204  48.899  47.581  1.00  0.00     0.098 C 
HETATM   10  C   UNL     1      18.901  49.463  46.239  1.00  0.00     0.263 C 
HETATM   11  O   UNL     1      19.069  50.666  46.041  1.00  0.00    -0.267 OA
HETATM   12  N   UNL     1      18.437  48.595  45.256  1.00  0.00    -0.317 N 
HETATM   13  C   UNL     1      18.228  49.122  43.916  1.00  0.00     0.159 C 
HETATM   14  C   UNL     1      18.079  47.246  45.552  1.00  0.00     0.050 A 
HETATM   15  C   UNL     1      18.254  46.762  46.860  1.00  0.00     0.025 A 
HETATM   16  C   UNL     1      17.532  46.395  44.577  1.00  0.00     0.031 A 
HETATM   17  C   UNL     1      17.871  45.445  47.165  1.00  0.00     0.016 A 
HETATM   18  C   UNL     1      18.847  47.637  47.883  1.00  0.00     0.096 C 
HETATM   19  C   UNL     1      17.324  44.612  46.189  1.00  0.00     0.001 A 
HETATM   20  C   UNL     1      17.157  45.087  44.895  1.00  0.00     0.002 A 
BRANCH  18  21
HETATM   21  O   UNL     1      19.008  47.057  49.131  1.00  0.00    -0.359 OA
HETATM   22  H   UNL     1      19.764  46.431  49.094  1.00  0.00     0.218 HD
ENDBRANCH  18  21
ENDBRANCH   6   9
BRANCH   1  23
HETATM   23  C   UNL     1      23.720  49.079  48.590  1.00  0.00    -0.035 A 
HETATM   24  C   UNL     1      24.312  48.139  49.440  1.00  0.00     0.012 A 
HETATM   25  C   UNL     1      25.697  48.135  49.639  1.00  0.00     0.007 A 
HETATM   26  C   UNL     1      26.509  49.072  48.992  1.00  0.00    -0.062 A 
HETATM   27  C   UNL     1      27.998  49.055  49.170  1.00  0.00     0.048 C 
HETATM   28  C   UNL     1      25.917  49.999  48.127  1.00  0.00     0.007 A 
HETATM   29  C   UNL     1      24.535  49.999  47.925  1.00  0.00     0.012 A 
ENDBRANCH   1  23
TORSDOF 3
ENDMDL
MODEL 9
REMARK VINA RESULT:      -7.9     10.231     12.598
REMARK  3 active torsions:
REMARK  status: ('A' for Active; 'I' for Inactive)
REMARK    1  A    between atoms: C_5  and  C_6 
REMARK    2  A    between atoms: C_11  and  C_12 
REMARK    3  A    between atoms: C_23  and  O_24 
ROOT
HETATM    1  C   UNL     1      29.415  49.601  39.415  1.00  0.00     0.031 C 
HETATM    2  C   UNL     1      28.184  49.761  38.907  1.00  0.00     0.066 A 
HETATM    3  C   UNL     1      27.597  50.980  38.296  1.00  0.00     0.274 A 
HETATM    4  O   UNL     1      28.113  52.046  38.033  1.00  0.00    -0.266 OA
HETATM    5  N   UNL     1      26.269  50.627  38.114  1.00  0.00    -0.242 N 
HETATM    6  C   UNL     1      27.051  48.797  38.927  1.00  0.00     0.111 A 
HETATM    7  N   UNL     1      25.940  49.346  38.487  1.00  0.00    -0.170 NA
HETATM    8  H   UNL     1      25.582  51.249  37.703  1.00  0.00     0.192 HD
ENDROOT
BRANCH   6   9
HETATM    9  C   UNL     1      27.136  47.404  39.415  1.00  0.00     0.098 C 
HETATM   10  C   UNL     1      27.925  46.363  38.704  1.00  0.00     0.263 C 
HETATM   11  O   UNL     1      28.417  46.627  37.607  1.00  0.00    -0.267 OA
HETATM   12  N   UNL     1      28.074  45.124  39.318  1.00  0.00    -0.317 N 
HETATM   13  C   UNL     1      28.922  44.134  38.672  1.00  0.00     0.159 C 
HETATM   14  C   UNL     1      27.352  44.778  40.499  1.00  0.00     0.050 A 
HETATM   15  C   UNL     1      26.511  45.735  41.092  1.00  0.00     0.025 A 
HETATM   16  C   UNL     1      27.440  43.498  41.072  1.00  0.00     0.031 A 
HETATM   17  C   UNL     1      25.771  45.389  42.236  1.00  0.00     0.016 A 
HETATM   18  C   UNL     1      26.428  47.085  40.514  1.00  0.00     0.096 C 
HETATM   19  C   UNL     1      25.863  44.113  42.791  1.00  0.00     0.001 A 
HETATM   20  C   UNL     1      26.700  43.169  42.210  1.00  0.00     0.002 A 
BRANCH  18  21
HETATM   21  O   UNL     1      25.597  47.965  41.190  1.00  0.00    -0.359 OA
HETATM   22  H   UNL     1      25.743  48.870  40.840  1.00  0.00     0.218 HD
ENDBRANCH  18  21
ENDBRANCH   6   9
BRANCH   1  23
HETATM   23  C   UNL     1      30.524  50.560  39.368  1.00  0.00    -0.035 A 
HETATM   24  C   UNL     1      30.703  51.455  40.428  1.00  0.00     0.012 A 
HETATM   25  C   UNL     1      31.799  52.324  40.447  1.00  0.00     0.007 A 
HETATM   26  C   UNL     1      32.732  52.310  39.405  1.00  0.00    -0.062 A 
HETATM   27  C   UNL     1      33.931  53.211  39.433  1.00  0.00     0.048 C 
HETATM   28  C   UNL     1      32.563  51.401  38.356  1.00  0.00     0.007 A 
HETATM   29  C   UNL     1      31.470  50.531  38.340  1.00  0.00     0.012 A 
ENDBRANCH   1  23
TORSDOF 3
ENDMDL
MODEL 10
REMARK VINA RESULT:      -7.9     11.485     14.276
REMARK  3 active torsions:
REMARK  status: ('A' for Active; 'I' for Inactive)
REMARK    1  A    between atoms: C_5  and  C_6 
REMARK    2  A    between atoms: C_11  and  C_12 
REMARK    3  A    between atoms: C_23  and  O_24 
ROOT
HETATM    1  C   UNL     1      34.706  51.503  40.362  1.00  0.00     0.031 C 
HETATM    2  C   UNL     1      34.591  51.743  41.677  1.00  0.00     0.066 A 
HETATM    3  C   UNL     1      35.668  52.063  42.647  1.00  0.00     0.274 A 
HETATM    4  O   UNL     1      36.848  52.272  42.461  1.00  0.00    -0.266 OA
HETATM    5  N   UNL     1      35.005  52.037  43.865  1.00  0.00    -0.242 N 
HETATM    6  C   UNL     1      33.372  51.640  42.525  1.00  0.00     0.111 A 
HETATM    7  N   UNL     1      33.656  51.785  43.801  1.00  0.00    -0.170 NA
HETATM    8  H   UNL     1      35.466  52.224  44.749  1.00  0.00     0.192 HD
ENDROOT
BRANCH   6   9
HETATM    9  C   UNL     1      32.011  51.369  42.016  1.00  0.00     0.098 C 
HETATM   10  C   UNL     1      31.219  52.395  41.287  1.00  0.00     0.263 C 
HETATM   11  O   UNL     1      31.650  53.546  41.214  1.00  0.00    -0.267 OA
HETATM   12  N   UNL     1      30.015  52.004  40.712  1.00  0.00    -0.317 N 
HETATM   13  C   UNL     1      29.283  52.979  39.918  1.00  0.00     0.159 C 
HETATM   14  C   UNL     1      29.447  50.718  40.958  1.00  0.00     0.050 A 
HETATM   15  C   UNL     1      30.151  49.799  41.756  1.00  0.00     0.025 A 
HETATM   16  C   UNL     1      28.191  50.353  40.445  1.00  0.00     0.031 A 
HETATM   17  C   UNL     1      29.581  48.545  42.030  1.00  0.00     0.016 A 
HETATM   18  C   UNL     1      31.477  50.162  42.280  1.00  0.00     0.096 C 
HETATM   19  C   UNL     1      28.331  48.197  41.518  1.00  0.00     0.001 A 
HETATM   20  C   UNL     1      27.638  49.102  40.724  1.00  0.00     0.002 A 
BRANCH  18  21
HETATM   21  O   UNL     1      32.104  49.177  43.027  1.00  0.00    -0.359 OA
HETATM   22  H   UNL     1      32.575  48.570  42.417  1.00  0.00     0.218 HD
ENDBRANCH  18  21
ENDBRANCH   6   9
BRANCH   1  23
HETATM   23  C   UNL     1      35.915  51.629  39.541  1.00  0.00    -0.035 A 
HETATM   24  C   UNL     1      36.617  50.476  39.171  1.00  0.00     0.012 A 
HETATM   25  C   UNL     1      37.725  50.561  38.322  1.00  0.00     0.007 A 
HETATM   26  C   UNL     1      38.149  51.801  37.832  1.00  0.00    -0.062 A 
HETATM   27  C   UNL     1      39.314  51.901  36.892  1.00  0.00     0.048 C 
HETATM   28  C   UNL     1      37.435  52.951  38.187  1.00  0.00     0.007 A 
HETATM   29  C   UNL     1      36.325  52.864  39.032  1.00  0.00     0.012 A 
ENDBRANCH   1  23
TORSDOF 3
ENDMDL
