MODEL 1
REMARK VINA RESULT:      -9.7      0.000      0.000
REMARK  6 active torsions:
REMARK  status: ('A' for Active; 'I' for Inactive)
REMARK    1  A    between atoms: C_2  and  O_3 
REMARK    2  A    between atoms: C_2  and  C_4 
REMARK    3  A    between atoms: C_7  and  N_8 
REMARK       I    between atoms: N_8  and  C_9 
REMARK    4  A    between atoms: C_9  and  C_10 
REMARK    5  A    between atoms: C_13  and  C_14 
REMARK    6  A    between atoms: C_19  and  C_20 
ROOT
HETATM    1  C   UNL     1      26.837  42.681  50.889  1.00  0.00     0.096 A 
HETATM    2  C   UNL     1      25.692  43.420  50.648  1.00  0.00     0.138 A 
HETATM    3  N   UNL     1      25.356  43.173  49.335  1.00  0.00    -0.240 N 
HETATM    4  C   UNL     1      24.164  43.674  48.677  1.00  0.00     0.221 C 
HETATM    5  C   UNL     1      23.192  44.270  49.717  1.00  0.00     0.066 C 
HETATM    6  C   UNL     1      23.944  45.123  50.752  1.00  0.00     0.118 C 
HETATM    7  N   UNL     1      24.918  44.236  51.428  1.00  0.00    -0.365 N 
HETATM    8  N   UNL     1      26.253  42.423  48.681  1.00  0.00    -0.181 NA
HETATM    9  C   UNL     1      27.133  42.098  49.631  1.00  0.00     0.160 A 
HETATM   10  H   UNL     1      24.510  43.804  52.261  1.00  0.00     0.161 HD
ENDROOT
BRANCH   1  11
HETATM   11  C   UNL     1      27.622  42.508  52.104  1.00  0.00     0.261 C 
HETATM   12  N   UNL     1      28.308  43.641  52.498  1.00  0.00    -0.323 N 
HETATM   13  H   UNL     1      28.267  44.419  51.852  1.00  0.00     0.169 HD
HETATM   14  O   UNL     1      27.617  41.431  52.686  1.00  0.00    -0.267 OA
BRANCH  12  15
HETATM   15  C   UNL     1      29.016  43.841  53.700  1.00  0.00     0.035 A 
HETATM   16  C   UNL     1      28.727  44.853  54.615  1.00  0.00     0.030 A 
HETATM   17  C   UNL     1      29.509  45.028  55.766  1.00  0.00     0.012 A 
HETATM   18  C   UNL     1      30.605  44.198  56.029  1.00  0.00    -0.030 A 
HETATM   19  C   UNL     1      30.878  43.171  55.111  1.00  0.00     0.012 A 
HETATM   20  C   UNL     1      30.091  42.990  53.967  1.00  0.00     0.030 A 
BRANCH  18  21
HETATM   21  C   UNL     1      31.521  44.383  57.224  1.00  0.00     0.147 C 
HETATM   22  C   UNL     1      30.907  45.036  58.459  1.00  0.00     0.044 C 
BRANCH  21  23
HETATM   23  O   UNL     1      32.031  43.102  57.598  1.00  0.00    -0.391 OA
HETATM   24  H   UNL     1      32.893  43.247  58.021  1.00  0.00     0.210 HD
ENDBRANCH  21  23
ENDBRANCH  18  21
ENDBRANCH  12  15
ENDBRANCH   1  11
BRANCH   4  25
HETATM   25  C   UNL     1      23.448  42.588  47.899  1.00  0.00     0.409 C 
HETATM   26  F   UNL     1      23.973  42.348  46.683  1.00  0.00    -0.169 F 
HETATM   27  F   UNL     1      23.390  41.422  48.582  1.00  0.00    -0.169 F 
HETATM   28  F   UNL     1      22.157  42.968  47.684  1.00  0.00    -0.169 F 
ENDBRANCH   4  25
BRANCH   6  29
HETATM   29  C   UNL     1      24.603  46.387  50.197  1.00  0.00    -0.035 A 
HETATM   30  C   UNL     1      23.841  47.400  49.580  1.00  0.00     0.012 A 
HETATM   31  C   UNL     1      24.446  48.555  49.075  1.00  0.00     0.043 A 
HETATM   32  C   UNL     1      25.816  48.726  49.206  1.00  0.00     0.116 A 
HETATM   33  F   UNL     1      26.393  49.834  48.723  1.00  0.00    -0.206 F 
HETATM   34  C   UNL     1      26.591  47.769  49.841  1.00  0.00     0.043 A 
HETATM   35  C   UNL     1      25.987  46.611  50.341  1.00  0.00     0.012 A 
ENDBRANCH   6  29
TORSDOF 6
ENDMDL
MODEL 2
REMARK VINA RESULT:      -9.3      4.011      7.902
REMARK  6 active torsions:
REMARK  status: ('A' for Active; 'I' for Inactive)
REMARK    1  A    between atoms: C_2  and  O_3 
REMARK    2  A    between atoms: C_2  and  C_4 
REMARK    3  A    between atoms: C_7  and  N_8 
REMARK       I    between atoms: N_8  and  C_9 
REMARK    4  A    between atoms: C_9  and  C_10 
REMARK    5  A    between atoms: C_13  and  C_14 
REMARK    6  A    between atoms: C_19  and  C_20 
ROOT
HETATM    1  C   UNL     1      26.706  42.785  50.548  1.00  0.00     0.096 A 
HETATM    2  C   UNL     1      26.501  43.433  51.753  1.00  0.00     0.138 A 
HETATM    3  N   UNL     1      26.644  44.777  51.486  1.00  0.00    -0.240 N 
HETATM    4  C   UNL     1      26.425  45.841  52.448  1.00  0.00     0.221 C 
HETATM    5  C   UNL     1      25.735  45.282  53.711  1.00  0.00     0.066 C 
HETATM    6  C   UNL     1      26.361  43.945  54.138  1.00  0.00     0.118 C 
HETATM    7  N   UNL     1      26.186  42.999  53.012  1.00  0.00    -0.365 N 
HETATM    8  N   UNL     1      27.033  45.038  50.231  1.00  0.00    -0.181 NA
HETATM    9  C   UNL     1      27.039  43.834  49.654  1.00  0.00     0.160 A 
HETATM   10  H   UNL     1      25.309  42.477  53.100  1.00  0.00     0.161 HD
ENDROOT
BRANCH   1  11
HETATM   11  C   UNL     1      26.638  41.372  50.202  1.00  0.00     0.261 C 
HETATM   12  N   UNL     1      27.024  41.089  48.906  1.00  0.00    -0.323 N 
HETATM   13  H   UNL     1      27.211  41.897  48.324  1.00  0.00     0.169 HD
HETATM   14  O   UNL     1      26.277  40.555  51.039  1.00  0.00    -0.267 OA
BRANCH  12  15
HETATM   15  C   UNL     1      27.219  39.821  48.325  1.00  0.00     0.035 A 
HETATM   16  C   UNL     1      28.434  39.134  48.343  1.00  0.00     0.030 A 
HETATM   17  C   UNL     1      28.570  37.898  47.696  1.00  0.00     0.012 A 
HETATM   18  C   UNL     1      27.498  37.317  47.010  1.00  0.00    -0.030 A 
HETATM   19  C   UNL     1      26.275  38.007  47.012  1.00  0.00     0.012 A 
HETATM   20  C   UNL     1      26.134  39.237  47.666  1.00  0.00     0.030 A 
BRANCH  18  21
HETATM   21  C   UNL     1      27.609  36.014  46.241  1.00  0.00     0.147 C 
HETATM   22  C   UNL     1      28.925  35.764  45.510  1.00  0.00     0.044 C 
BRANCH  21  23
HETATM   23  O   UNL     1      27.388  34.937  47.152  1.00  0.00    -0.391 OA
HETATM   24  H   UNL     1      26.749  34.334  46.738  1.00  0.00     0.210 HD
ENDBRANCH  21  23
ENDBRANCH  18  21
ENDBRANCH  12  15
ENDBRANCH   1  11
BRANCH   4  25
HETATM   25  C   UNL     1      25.574  46.956  51.874  1.00  0.00     0.409 C 
HETATM   26  F   UNL     1      26.259  47.834  51.118  1.00  0.00    -0.169 F 
HETATM   27  F   UNL     1      24.532  46.485  51.151  1.00  0.00    -0.169 F 
HETATM   28  F   UNL     1      25.034  47.679  52.895  1.00  0.00    -0.169 F 
ENDBRANCH   4  25
BRANCH   6  29
HETATM   29  C   UNL     1      27.817  44.027  54.601  1.00  0.00    -0.035 A 
HETATM   30  C   UNL     1      28.285  45.123  55.354  1.00  0.00     0.012 A 
HETATM   31  C   UNL     1      29.616  45.194  55.778  1.00  0.00     0.043 A 
HETATM   32  C   UNL     1      30.488  44.158  55.478  1.00  0.00     0.116 A 
HETATM   33  F   UNL     1      31.762  44.228  55.887  1.00  0.00    -0.206 F 
HETATM   34  C   UNL     1      30.053  43.047  54.773  1.00  0.00     0.043 A 
HETATM   35  C   UNL     1      28.724  42.979  54.345  1.00  0.00     0.012 A 
ENDBRANCH   6  29
TORSDOF 6
ENDMDL
MODEL 3
REMARK VINA RESULT:      -8.9      1.526      2.167
REMARK  6 active torsions:
REMARK  status: ('A' for Active; 'I' for Inactive)
REMARK    1  A    between atoms: C_2  and  O_3 
REMARK    2  A    between atoms: C_2  and  C_4 
REMARK    3  A    between atoms: C_7  and  N_8 
REMARK       I    between atoms: N_8  and  C_9 
REMARK    4  A    between atoms: C_9  and  C_10 
REMARK    5  A    between atoms: C_13  and  C_14 
REMARK    6  A    between atoms: C_19  and  C_20 
ROOT
HETATM    1  C   UNL     1      26.659  42.924  51.140  1.00  0.00     0.096 A 
HETATM    2  C   UNL     1      25.400  42.894  50.566  1.00  0.00     0.138 A 
HETATM    3  N   UNL     1      25.592  42.507  49.258  1.00  0.00    -0.240 N 
HETATM    4  C   UNL     1      24.529  42.256  48.303  1.00  0.00     0.221 C 
HETATM    5  C   UNL     1      23.166  42.200  49.027  1.00  0.00     0.066 C 
HETATM    6  C   UNL     1      23.046  43.322  50.069  1.00  0.00     0.118 C 
HETATM    7  N   UNL     1      24.141  43.132  51.048  1.00  0.00    -0.365 N 
HETATM    8  N   UNL     1      26.882  42.393  48.915  1.00  0.00    -0.181 NA
HETATM    9  C   UNL     1      27.527  42.613  50.063  1.00  0.00     0.160 A 
HETATM   10  H   UNL     1      23.842  42.541  51.829  1.00  0.00     0.161 HD
ENDROOT
BRANCH   1  11
HETATM   11  C   UNL     1      27.078  43.216  52.504  1.00  0.00     0.261 C 
HETATM   12  N   UNL     1      28.448  43.284  52.670  1.00  0.00    -0.323 N 
HETATM   13  H   UNL     1      28.996  43.028  51.858  1.00  0.00     0.169 HD
HETATM   14  O   UNL     1      26.238  43.391  53.377  1.00  0.00    -0.267 OA
BRANCH  12  15
HETATM   15  C   UNL     1      29.154  43.700  53.816  1.00  0.00     0.035 A 
HETATM   16  C   UNL     1      30.211  42.987  54.382  1.00  0.00     0.030 A 
HETATM   17  C   UNL     1      30.834  43.435  55.556  1.00  0.00     0.012 A 
HETATM   18  C   UNL     1      30.411  44.603  56.200  1.00  0.00    -0.030 A 
HETATM   19  C   UNL     1      29.357  45.323  55.613  1.00  0.00     0.012 A 
HETATM   20  C   UNL     1      28.742  44.883  54.435  1.00  0.00     0.030 A 
BRANCH  18  21
HETATM   21  C   UNL     1      31.005  45.097  57.504  1.00  0.00     0.147 C 
HETATM   22  C   UNL     1      30.018  45.581  58.563  1.00  0.00     0.044 C 
BRANCH  21  23
HETATM   23  O   UNL     1      31.787  44.042  58.067  1.00  0.00    -0.391 OA
HETATM   24  H   UNL     1      31.279  43.220  57.967  1.00  0.00     0.210 HD
ENDBRANCH  21  23
ENDBRANCH  18  21
ENDBRANCH  12  15
ENDBRANCH   1  11
BRANCH   4  25
HETATM   25  C   UNL     1      24.740  40.959  47.549  1.00  0.00     0.409 C 
HETATM   26  F   UNL     1      23.604  40.400  47.090  1.00  0.00    -0.169 F 
HETATM   27  F   UNL     1      25.599  41.103  46.514  1.00  0.00    -0.169 F 
HETATM   28  F   UNL     1      25.300  40.041  48.385  1.00  0.00    -0.169 F 
ENDBRANCH   4  25
BRANCH   6  29
HETATM   29  C   UNL     1      23.025  44.742  49.498  1.00  0.00    -0.035 A 
HETATM   30  C   UNL     1      22.087  45.121  48.515  1.00  0.00     0.012 A 
HETATM   31  C   UNL     1      22.069  46.419  47.995  1.00  0.00     0.043 A 
HETATM   32  C   UNL     1      22.968  47.362  48.471  1.00  0.00     0.116 A 
HETATM   33  F   UNL     1      22.947  48.605  47.973  1.00  0.00    -0.206 F 
HETATM   34  C   UNL     1      23.878  47.035  49.464  1.00  0.00     0.043 A 
HETATM   35  C   UNL     1      23.900  45.735  49.980  1.00  0.00     0.012 A 
ENDBRANCH   6  29
TORSDOF 6
ENDMDL
MODEL 4
REMARK VINA RESULT:      -8.6     12.755     14.291
REMARK  6 active torsions:
REMARK  status: ('A' for Active; 'I' for Inactive)
REMARK    1  A    between atoms: C_2  and  O_3 
REMARK    2  A    between atoms: C_2  and  C_4 
REMARK    3  A    between atoms: C_7  and  N_8 
REMARK       I    between atoms: N_8  and  C_9 
REMARK    4  A    between atoms: C_9  and  C_10 
REMARK    5  A    between atoms: C_13  and  C_14 
REMARK    6  A    between atoms: C_19  and  C_20 
ROOT
HETATM    1  C   UNL     1      32.854  51.309  41.763  1.00  0.00     0.096 A 
HETATM    2  C   UNL     1      32.080  51.144  40.627  1.00  0.00     0.138 A 
HETATM    3  N   UNL     1      30.875  51.750  40.903  1.00  0.00    -0.240 N 
HETATM    4  C   UNL     1      29.785  51.896  39.955  1.00  0.00     0.221 C 
HETATM    5  C   UNL     1      30.267  51.544  38.532  1.00  0.00     0.066 C 
HETATM    6  C   UNL     1      31.146  50.284  38.540  1.00  0.00     0.118 C 
HETATM    7  N   UNL     1      32.312  50.567  39.408  1.00  0.00    -0.365 N 
HETATM    8  N   UNL     1      30.771  52.194  42.162  1.00  0.00    -0.181 NA
HETATM    9  C   UNL     1      31.981  51.958  42.673  1.00  0.00     0.160 A 
HETATM   10  H   UNL     1      33.090  50.957  38.869  1.00  0.00     0.161 HD
ENDROOT
BRANCH   1  11
HETATM   11  C   UNL     1      34.230  50.922  42.044  1.00  0.00     0.261 C 
HETATM   12  N   UNL     1      34.987  51.918  42.628  1.00  0.00    -0.323 N 
HETATM   13  H   UNL     1      34.534  52.821  42.702  1.00  0.00     0.169 HD
HETATM   14  O   UNL     1      34.613  49.791  41.776  1.00  0.00    -0.267 OA
BRANCH  12  15
HETATM   15  C   UNL     1      36.287  51.808  43.161  1.00  0.00     0.035 A 
HETATM   16  C   UNL     1      37.277  50.977  42.636  1.00  0.00     0.030 A 
HETATM   17  C   UNL     1      38.533  50.876  43.251  1.00  0.00     0.012 A 
HETATM   18  C   UNL     1      38.831  51.600  44.411  1.00  0.00    -0.030 A 
HETATM   19  C   UNL     1      37.834  52.447  44.922  1.00  0.00     0.012 A 
HETATM   20  C   UNL     1      36.584  52.556  44.303  1.00  0.00     0.030 A 
BRANCH  18  21
HETATM   21  C   UNL     1      40.149  51.479  45.151  1.00  0.00     0.147 C 
HETATM   22  C   UNL     1      40.432  52.536  46.215  1.00  0.00     0.044 C 
BRANCH  21  23
HETATM   23  O   UNL     1      40.198  50.193  45.770  1.00  0.00    -0.391 OA
HETATM   24  H   UNL     1      39.495  50.167  46.440  1.00  0.00     0.210 HD
ENDBRANCH  21  23
ENDBRANCH  18  21
ENDBRANCH  12  15
ENDBRANCH   1  11
BRANCH   4  25
HETATM   25  C   UNL     1      29.223  53.303  39.952  1.00  0.00     0.409 C 
HETATM   26  F   UNL     1      28.208  53.490  40.818  1.00  0.00    -0.169 F 
HETATM   27  F   UNL     1      30.173  54.235  40.194  1.00  0.00    -0.169 F 
HETATM   28  F   UNL     1      28.720  53.582  38.717  1.00  0.00    -0.169 F 
ENDBRANCH   4  25
BRANCH   6  29
HETATM   29  C   UNL     1      30.428  48.993  38.942  1.00  0.00    -0.035 A 
HETATM   30  C   UNL     1      29.054  48.810  38.685  1.00  0.00     0.012 A 
HETATM   31  C   UNL     1      28.401  47.629  39.052  1.00  0.00     0.043 A 
HETATM   32  C   UNL     1      29.119  46.606  39.654  1.00  0.00     0.116 A 
HETATM   33  F   UNL     1      28.491  45.475  40.003  1.00  0.00    -0.206 F 
HETATM   34  C   UNL     1      30.479  46.736  39.886  1.00  0.00     0.043 A 
HETATM   35  C   UNL     1      31.131  47.919  39.524  1.00  0.00     0.012 A 
ENDBRANCH   6  29
TORSDOF 6
ENDMDL
MODEL 5
REMARK VINA RESULT:      -8.5      2.840      5.566
REMARK  6 active torsions:
REMARK  status: ('A' for Active; 'I' for Inactive)
REMARK    1  A    between atoms: C_2  and  O_3 
REMARK    2  A    between atoms: C_2  and  C_4 
REMARK    3  A    between atoms: C_7  and  N_8 
REMARK       I    between atoms: N_8  and  C_9 
REMARK    4  A    between atoms: C_9  and  C_10 
REMARK    5  A    between atoms: C_13  and  C_14 
REMARK    6  A    between atoms: C_19  and  C_20 
ROOT
HETATM    1  C   UNL     1      26.372  42.877  50.832  1.00  0.00     0.096 A 
HETATM    2  C   UNL     1      26.529  42.079  49.712  1.00  0.00     0.138 A 
HETATM    3  N   UNL     1      25.261  41.676  49.358  1.00  0.00    -0.240 N 
HETATM    4  C   UNL     1      24.939  40.892  48.180  1.00  0.00     0.221 C 
HETATM    5  C   UNL     1      26.160  40.822  47.238  1.00  0.00     0.066 C 
HETATM    6  C   UNL     1      27.455  40.573  48.027  1.00  0.00     0.118 C 
HETATM    7  N   UNL     1      27.617  41.700  48.973  1.00  0.00    -0.365 N 
HETATM    8  N   UNL     1      24.313  42.059  50.223  1.00  0.00    -0.181 NA
HETATM    9  C   UNL     1      24.981  42.815  51.097  1.00  0.00     0.160 A 
HETATM   10  H   UNL     1      28.162  42.459  48.556  1.00  0.00     0.161 HD
ENDROOT
BRANCH   1  11
HETATM   11  C   UNL     1      27.348  43.619  51.618  1.00  0.00     0.261 C 
HETATM   12  N   UNL     1      27.469  43.184  52.924  1.00  0.00    -0.323 N 
HETATM   13  H   UNL     1      26.803  42.475  53.207  1.00  0.00     0.169 HD
HETATM   14  O   UNL     1      27.985  44.528  51.101  1.00  0.00    -0.267 OA
BRANCH  12  15
HETATM   15  C   UNL     1      28.426  43.584  53.877  1.00  0.00     0.035 A 
HETATM   16  C   UNL     1      29.588  42.866  54.164  1.00  0.00     0.030 A 
HETATM   17  C   UNL     1      30.470  43.295  55.165  1.00  0.00     0.012 A 
HETATM   18  C   UNL     1      30.212  44.451  55.911  1.00  0.00    -0.030 A 
HETATM   19  C   UNL     1      29.049  45.176  55.604  1.00  0.00     0.012 A 
HETATM   20  C   UNL     1      28.172  44.754  54.597  1.00  0.00     0.030 A 
BRANCH  18  21
HETATM   21  C   UNL     1      31.098  44.924  57.047  1.00  0.00     0.147 C 
HETATM   22  C   UNL     1      30.440  45.809  58.102  1.00  0.00     0.044 C 
BRANCH  21  23
HETATM   23  O   UNL     1      31.642  43.775  57.698  1.00  0.00    -0.391 OA
HETATM   24  H   UNL     1      30.895  43.233  57.999  1.00  0.00     0.210 HD
ENDBRANCH  21  23
ENDBRANCH  18  21
ENDBRANCH  12  15
ENDBRANCH   1  11
BRANCH   4  25
HETATM   25  C   UNL     1      23.762  41.469  47.420  1.00  0.00     0.409 C 
HETATM   26  F   UNL     1      23.718  41.110  46.123  1.00  0.00    -0.169 F 
HETATM   27  F   UNL     1      22.578  41.155  47.994  1.00  0.00    -0.169 F 
HETATM   28  F   UNL     1      23.844  42.829  47.432  1.00  0.00    -0.169 F 
ENDBRANCH   4  25
BRANCH   6  29
HETATM   29  C   UNL     1      27.538  39.215  48.727  1.00  0.00    -0.035 A 
HETATM   30  C   UNL     1      26.579  38.209  48.490  1.00  0.00     0.012 A 
HETATM   31  C   UNL     1      26.658  36.968  49.131  1.00  0.00     0.043 A 
HETATM   32  C   UNL     1      27.712  36.707  49.994  1.00  0.00     0.116 A 
HETATM   33  F   UNL     1      27.787  35.517  50.605  1.00  0.00    -0.206 F 
HETATM   34  C   UNL     1      28.694  37.659  50.220  1.00  0.00     0.043 A 
HETATM   35  C   UNL     1      28.612  38.901  49.584  1.00  0.00     0.012 A 
ENDBRANCH   6  29
TORSDOF 6
ENDMDL
MODEL 6
REMARK VINA RESULT:      -8.5      1.875      2.476
REMARK  6 active torsions:
REMARK  status: ('A' for Active; 'I' for Inactive)
REMARK    1  A    between atoms: C_2  and  O_3 
REMARK    2  A    between atoms: C_2  and  C_4 
REMARK    3  A    between atoms: C_7  and  N_8 
REMARK       I    between atoms: N_8  and  C_9 
REMARK    4  A    between atoms: C_9  and  C_10 
REMARK    5  A    between atoms: C_13  and  C_14 
REMARK    6  A    between atoms: C_19  and  C_20 
ROOT
HETATM    1  C   UNL     1      26.495  43.056  50.875  1.00  0.00     0.096 A 
HETATM    2  C   UNL     1      25.275  42.841  50.259  1.00  0.00     0.138 A 
HETATM    3  N   UNL     1      25.568  42.468  48.966  1.00  0.00    -0.240 N 
HETATM    4  C   UNL     1      24.585  42.057  47.980  1.00  0.00     0.221 C 
HETATM    5  C   UNL     1      23.219  41.818  48.657  1.00  0.00     0.066 C 
HETATM    6  C   UNL     1      22.904  42.925  49.675  1.00  0.00     0.118 C 
HETATM    7  N   UNL     1      23.978  42.903  50.694  1.00  0.00    -0.365 N 
HETATM    8  N   UNL     1      26.872  42.533  48.669  1.00  0.00    -0.181 NA
HETATM    9  C   UNL     1      27.437  42.857  49.834  1.00  0.00     0.160 A 
HETATM   10  H   UNL     1      23.738  42.286  51.474  1.00  0.00     0.161 HD
ENDROOT
BRANCH   1  11
HETATM   11  C   UNL     1      26.820  43.421  52.247  1.00  0.00     0.261 C 
HETATM   12  N   UNL     1      28.162  43.318  52.556  1.00  0.00    -0.323 N 
HETATM   13  H   UNL     1      28.743  42.911  51.832  1.00  0.00     0.169 HD
HETATM   14  O   UNL     1      25.934  43.794  53.006  1.00  0.00    -0.267 OA
BRANCH  12  15
HETATM   15  C   UNL     1      28.808  43.746  53.733  1.00  0.00     0.035 A 
HETATM   16  C   UNL     1      28.408  44.852  54.484  1.00  0.00     0.030 A 
HETATM   17  C   UNL     1      29.131  45.253  55.616  1.00  0.00     0.012 A 
HETATM   18  C   UNL     1      30.278  44.562  56.024  1.00  0.00    -0.030 A 
HETATM   19  C   UNL     1      30.664  43.440  55.272  1.00  0.00     0.012 A 
HETATM   20  C   UNL     1      29.936  43.033  54.147  1.00  0.00     0.030 A 
BRANCH  18  21
HETATM   21  C   UNL     1      31.133  44.991  57.201  1.00  0.00     0.147 C 
HETATM   22  C   UNL     1      30.468  45.900  58.231  1.00  0.00     0.044 C 
BRANCH  21  23
HETATM   23  O   UNL     1      31.595  43.816  57.869  1.00  0.00    -0.391 OA
HETATM   24  H   UNL     1      32.472  44.017  58.234  1.00  0.00     0.210 HD
ENDBRANCH  21  23
ENDBRANCH  18  21
ENDBRANCH  12  15
ENDBRANCH   1  11
BRANCH   4  25
HETATM   25  C   UNL     1      25.005  40.794  47.256  1.00  0.00     0.409 C 
HETATM   26  F   UNL     1      25.657  39.908  48.032  1.00  0.00    -0.169 F 
HETATM   27  F   UNL     1      23.959  40.167  46.670  1.00  0.00    -0.169 F 
HETATM   28  F   UNL     1      25.866  41.119  46.251  1.00  0.00    -0.169 F 
ENDBRANCH   4  25
BRANCH   6  29
HETATM   29  C   UNL     1      22.703  44.319  49.078  1.00  0.00    -0.035 A 
HETATM   30  C   UNL     1      23.358  45.447  49.616  1.00  0.00     0.012 A 
HETATM   31  C   UNL     1      23.173  46.720  49.067  1.00  0.00     0.043 A 
HETATM   32  C   UNL     1      22.355  46.878  47.958  1.00  0.00     0.116 A 
HETATM   33  F   UNL     1      22.182  48.098  47.433  1.00  0.00    -0.206 F 
HETATM   34  C   UNL     1      21.727  45.786  47.380  1.00  0.00     0.043 A 
HETATM   35  C   UNL     1      21.907  44.514  47.932  1.00  0.00     0.012 A 
ENDBRANCH   6  29
TORSDOF 6
ENDMDL
MODEL 7
REMARK VINA RESULT:      -8.4      5.050      9.642
REMARK  6 active torsions:
REMARK  status: ('A' for Active; 'I' for Inactive)
REMARK    1  A    between atoms: C_2  and  O_3 
REMARK    2  A    between atoms: C_2  and  C_4 
REMARK    3  A    between atoms: C_7  and  N_8 
REMARK       I    between atoms: N_8  and  C_9 
REMARK    4  A    between atoms: C_9  and  C_10 
REMARK    5  A    between atoms: C_13  and  C_14 
REMARK    6  A    between atoms: C_19  and  C_20 
ROOT
HETATM    1  C   UNL     1      23.636  47.005  49.232  1.00  0.00     0.096 A 
HETATM    2  C   UNL     1      23.663  45.701  49.695  1.00  0.00     0.138 A 
HETATM    3  N   UNL     1      24.952  45.484  50.130  1.00  0.00    -0.240 N 
HETATM    4  C   UNL     1      25.414  44.271  50.781  1.00  0.00     0.221 C 
HETATM    5  C   UNL     1      24.211  43.387  51.173  1.00  0.00     0.066 C 
HETATM    6  C   UNL     1      23.171  43.334  50.043  1.00  0.00     0.118 C 
HETATM    7  N   UNL     1      22.714  44.721  49.801  1.00  0.00    -0.365 N 
HETATM    8  N   UNL     1      25.782  46.506  49.885  1.00  0.00    -0.181 NA
HETATM    9  C   UNL     1      24.978  47.440  49.371  1.00  0.00     0.160 A 
HETATM   10  H   UNL     1      21.898  44.948  50.376  1.00  0.00     0.161 HD
ENDROOT
BRANCH   1  11
HETATM   11  C   UNL     1      22.542  47.804  48.698  1.00  0.00     0.261 C 
HETATM   12  N   UNL     1      21.864  48.541  49.650  1.00  0.00    -0.323 N 
HETATM   13  H   UNL     1      22.139  48.367  50.609  1.00  0.00     0.169 HD
HETATM   14  O   UNL     1      22.306  47.791  47.497  1.00  0.00    -0.267 OA
BRANCH  12  15
HETATM   15  C   UNL     1      20.877  49.522  49.434  1.00  0.00     0.035 A 
HETATM   16  C   UNL     1      21.135  50.784  48.897  1.00  0.00     0.030 A 
HETATM   17  C   UNL     1      20.111  51.732  48.761  1.00  0.00     0.012 A 
HETATM   18  C   UNL     1      18.801  51.445  49.162  1.00  0.00    -0.030 A 
HETATM   19  C   UNL     1      18.547  50.167  49.685  1.00  0.00     0.012 A 
HETATM   20  C   UNL     1      19.567  49.216  49.813  1.00  0.00     0.030 A 
BRANCH  18  21
HETATM   21  C   UNL     1      17.671  52.454  49.096  1.00  0.00     0.147 C 
HETATM   22  C   UNL     1      16.483  52.089  48.210  1.00  0.00     0.044 C 
BRANCH  21  23
HETATM   23  O   UNL     1      17.192  52.676  50.423  1.00  0.00    -0.391 OA
HETATM   24  H   UNL     1      16.236  52.837  50.363  1.00  0.00     0.210 HD
ENDBRANCH  21  23
ENDBRANCH  18  21
ENDBRANCH  12  15
ENDBRANCH   1  11
BRANCH   4  25
HETATM   25  C   UNL     1      26.232  44.570  52.020  1.00  0.00     0.409 C 
HETATM   26  F   UNL     1      27.550  44.712  51.786  1.00  0.00    -0.169 F 
HETATM   27  F   UNL     1      25.789  45.669  52.674  1.00  0.00    -0.169 F 
HETATM   28  F   UNL     1      26.114  43.533  52.896  1.00  0.00    -0.169 F 
ENDBRANCH   4  25
BRANCH   6  29
HETATM   29  C   UNL     1      23.641  42.648  48.758  1.00  0.00    -0.035 A 
HETATM   30  C   UNL     1      24.485  41.520  48.797  1.00  0.00     0.012 A 
HETATM   31  C   UNL     1      24.912  40.895  47.621  1.00  0.00     0.043 A 
HETATM   32  C   UNL     1      24.478  41.372  46.393  1.00  0.00     0.116 A 
HETATM   33  F   UNL     1      24.887  40.771  45.268  1.00  0.00    -0.206 F 
HETATM   34  C   UNL     1      23.617  42.456  46.319  1.00  0.00     0.043 A 
HETATM   35  C   UNL     1      23.195  43.084  47.494  1.00  0.00     0.012 A 
ENDBRANCH   6  29
TORSDOF 6
ENDMDL
MODEL 8
REMARK VINA RESULT:      -8.3      4.454      8.788
REMARK  6 active torsions:
REMARK  status: ('A' for Active; 'I' for Inactive)
REMARK    1  A    between atoms: C_2  and  O_3 
REMARK    2  A    between atoms: C_2  and  C_4 
REMARK    3  A    between atoms: C_7  and  N_8 
REMARK       I    between atoms: N_8  and  C_9 
REMARK    4  A    between atoms: C_9  and  C_10 
REMARK    5  A    between atoms: C_13  and  C_14 
REMARK    6  A    between atoms: C_19  and  C_20 
ROOT
HETATM    1  C   UNL     1      23.575  45.511  49.409  1.00  0.00     0.096 A 
HETATM    2  C   UNL     1      24.800  44.883  49.556  1.00  0.00     0.138 A 
HETATM    3  N   UNL     1      24.516  43.554  49.779  1.00  0.00    -0.240 N 
HETATM    4  C   UNL     1      25.511  42.504  49.901  1.00  0.00     0.221 C 
HETATM    5  C   UNL     1      26.894  43.028  49.462  1.00  0.00     0.066 C 
HETATM    6  C   UNL     1      27.156  44.436  50.020  1.00  0.00     0.118 C 
HETATM    7  N   UNL     1      26.095  45.322  49.492  1.00  0.00    -0.365 N 
HETATM    8  N   UNL     1      23.208  43.295  49.897  1.00  0.00    -0.181 NA
HETATM    9  C   UNL     1      22.636  44.474  49.640  1.00  0.00     0.160 A 
HETATM   10  H   UNL     1      26.378  45.753  48.607  1.00  0.00     0.161 HD
ENDROOT
BRANCH   1  11
HETATM   11  C   UNL     1      23.244  46.898  49.111  1.00  0.00     0.261 C 
HETATM   12  N   UNL     1      21.902  47.118  48.869  1.00  0.00    -0.323 N 
HETATM   13  H   UNL     1      21.327  46.285  48.829  1.00  0.00     0.169 HD
HETATM   14  O   UNL     1      24.124  47.749  49.108  1.00  0.00    -0.267 OA
BRANCH  12  15
HETATM   15  C   UNL     1      21.249  48.356  48.712  1.00  0.00     0.035 A 
HETATM   16  C   UNL     1      21.653  49.342  47.811  1.00  0.00     0.030 A 
HETATM   17  C   UNL     1      20.988  50.574  47.747  1.00  0.00     0.012 A 
HETATM   18  C   UNL     1      19.905  50.857  48.588  1.00  0.00    -0.030 A 
HETATM   19  C   UNL     1      19.496  49.853  49.480  1.00  0.00     0.012 A 
HETATM   20  C   UNL     1      20.153  48.618  49.537  1.00  0.00     0.030 A 
BRANCH  18  21
HETATM   21  C   UNL     1      19.192  52.196  48.605  1.00  0.00     0.147 C 
HETATM   22  C   UNL     1      18.152  52.428  47.512  1.00  0.00     0.044 C 
BRANCH  21  23
HETATM   23  O   UNL     1      18.553  52.345  49.874  1.00  0.00    -0.391 OA
HETATM   24  H   UNL     1      19.253  52.428  50.542  1.00  0.00     0.210 HD
ENDBRANCH  21  23
ENDBRANCH  18  21
ENDBRANCH  12  15
ENDBRANCH   1  11
BRANCH   4  25
HETATM   25  C   UNL     1      25.156  41.289  49.067  1.00  0.00     0.409 C 
HETATM   26  F   UNL     1      23.832  41.088  48.928  1.00  0.00    -0.169 F 
HETATM   27  F   UNL     1      25.718  41.330  47.838  1.00  0.00    -0.169 F 
HETATM   28  F   UNL     1      25.645  40.172  49.674  1.00  0.00    -0.169 F 
ENDBRANCH   4  25
BRANCH   6  29
HETATM   29  C   UNL     1      27.272  44.520  51.544  1.00  0.00    -0.035 A 
HETATM   30  C   UNL     1      26.453  45.390  52.293  1.00  0.00     0.012 A 
HETATM   31  C   UNL     1      26.560  45.464  53.685  1.00  0.00     0.043 A 
HETATM   32  C   UNL     1      27.466  44.650  54.349  1.00  0.00     0.116 A 
HETATM   33  F   UNL     1      27.566  44.722  55.683  1.00  0.00    -0.206 F 
HETATM   34  C   UNL     1      28.260  43.756  53.648  1.00  0.00     0.043 A 
HETATM   35  C   UNL     1      28.157  43.685  52.255  1.00  0.00     0.012 A 
ENDBRANCH   6  29
TORSDOF 6
ENDMDL
MODEL 9
REMARK VINA RESULT:      -8.2      4.878      9.590
REMARK  6 active torsions:
REMARK  status: ('A' for Active; 'I' for Inactive)
REMARK    1  A    between atoms: C_2  and  O_3 
REMARK    2  A    between atoms: C_2  and  C_4 
REMARK    3  A    between atoms: C_7  and  N_8 
REMARK       I    between atoms: N_8  and  C_9 
REMARK    4  A    between atoms: C_9  and  C_10 
REMARK    5  A    between atoms: C_13  and  C_14 
REMARK    6  A    between atoms: C_19  and  C_20 
ROOT
HETATM    1  C   UNL     1      24.579  47.098  50.359  1.00  0.00     0.096 A 
HETATM    2  C   UNL     1      24.735  45.921  51.071  1.00  0.00     0.138 A 
HETATM    3  N   UNL     1      25.891  46.076  51.804  1.00  0.00    -0.240 N 
HETATM    4  C   UNL     1      26.395  45.116  52.768  1.00  0.00     0.221 C 
HETATM    5  C   UNL     1      25.321  44.049  53.069  1.00  0.00     0.066 C 
HETATM    6  C   UNL     1      24.624  43.586  51.780  1.00  0.00     0.118 C 
HETATM    7  N   UNL     1      23.990  44.777  51.171  1.00  0.00    -0.365 N 
HETATM    8  N   UNL     1      26.549  47.211  51.537  1.00  0.00    -0.181 NA
HETATM    9  C   UNL     1      25.738  47.846  50.687  1.00  0.00     0.160 A 
HETATM   10  H   UNL     1      23.029  44.896  51.502  1.00  0.00     0.161 HD
ENDROOT
BRANCH   1  11
HETATM   11  C   UNL     1      23.523  47.533  49.455  1.00  0.00     0.261 C 
HETATM   12  N   UNL     1      22.770  48.587  49.934  1.00  0.00    -0.323 N 
HETATM   13  H   UNL     1      22.973  48.867  50.886  1.00  0.00     0.169 HD
HETATM   14  O   UNL     1      23.379  46.979  48.373  1.00  0.00    -0.267 OA
BRANCH  12  15
HETATM   15  C   UNL     1      21.794  49.330  49.240  1.00  0.00     0.035 A 
HETATM   16  C   UNL     1      22.025  50.586  48.678  1.00  0.00     0.030 A 
HETATM   17  C   UNL     1      20.990  51.293  48.049  1.00  0.00     0.012 A 
HETATM   18  C   UNL     1      19.697  50.766  47.969  1.00  0.00    -0.030 A 
HETATM   19  C   UNL     1      19.478  49.493  48.522  1.00  0.00     0.012 A 
HETATM   20  C   UNL     1      20.513  48.782  49.142  1.00  0.00     0.030 A 
BRANCH  18  21
HETATM   21  C   UNL     1      18.529  51.514  47.357  1.00  0.00     0.147 C 
HETATM   22  C   UNL     1      17.168  50.826  47.423  1.00  0.00     0.044 C 
BRANCH  21  23
HETATM   23  O   UNL     1      18.423  52.784  48.003  1.00  0.00    -0.391 OA
HETATM   24  H   UNL     1      19.237  52.915  48.517  1.00  0.00     0.210 HD
ENDBRANCH  21  23
ENDBRANCH  18  21
ENDBRANCH  12  15
ENDBRANCH   1  11
BRANCH   4  25
HETATM   25  C   UNL     1      26.807  45.781  54.066  1.00  0.00     0.409 C 
HETATM   26  F   UNL     1      28.038  46.325  54.036  1.00  0.00    -0.169 F 
HETATM   27  F   UNL     1      25.926  46.729  54.458  1.00  0.00    -0.169 F 
HETATM   28  F   UNL     1      26.831  44.848  55.059  1.00  0.00    -0.169 F 
ENDBRANCH   4  25
BRANCH   6  29
HETATM   29  C   UNL     1      25.520  42.839  50.789  1.00  0.00    -0.035 A 
HETATM   30  C   UNL     1      26.660  42.133  51.222  1.00  0.00     0.012 A 
HETATM   31  C   UNL     1      27.476  41.450  50.315  1.00  0.00     0.043 A 
HETATM   32  C   UNL     1      27.147  41.441  48.967  1.00  0.00     0.116 A 
HETATM   33  F   UNL     1      27.930  40.785  48.100  1.00  0.00    -0.206 F 
HETATM   34  C   UNL     1      26.012  42.092  48.512  1.00  0.00     0.043 A 
HETATM   35  C   UNL     1      25.199  42.779  49.418  1.00  0.00     0.012 A 
ENDBRANCH   6  29
TORSDOF 6
ENDMDL
MODEL 10
REMARK VINA RESULT:      -8.1      2.788      5.507
REMARK  6 active torsions:
REMARK  status: ('A' for Active; 'I' for Inactive)
REMARK    1  A    between atoms: C_2  and  O_3 
REMARK    2  A    between atoms: C_2  and  C_4 
REMARK    3  A    between atoms: C_7  and  N_8 
REMARK       I    between atoms: N_8  and  C_9 
REMARK    4  A    between atoms: C_9  and  C_10 
REMARK    5  A    between atoms: C_13  and  C_14 
REMARK    6  A    between atoms: C_19  and  C_20 
ROOT
HETATM    1  C   UNL     1      25.746  43.072  50.250  1.00  0.00     0.096 A 
HETATM    2  C   UNL     1      25.957  42.281  49.134  1.00  0.00     0.138 A 
HETATM    3  N   UNL     1      24.714  41.814  48.764  1.00  0.00    -0.240 N 
HETATM    4  C   UNL     1      24.448  41.014  47.583  1.00  0.00     0.221 C 
HETATM    5  C   UNL     1      25.684  41.003  46.658  1.00  0.00     0.066 C 
HETATM    6  C   UNL     1      26.979  40.819  47.464  1.00  0.00     0.118 C 
HETATM    7  N   UNL     1      27.072  41.954  48.411  1.00  0.00    -0.365 N 
HETATM    8  N   UNL     1      23.737  42.152  49.615  1.00  0.00    -0.181 NA
HETATM    9  C   UNL     1      24.355  42.941  50.497  1.00  0.00     0.160 A 
HETATM   10  H   UNL     1      27.584  42.739  47.999  1.00  0.00     0.161 HD
ENDROOT
BRANCH   1  11
HETATM   11  C   UNL     1      26.673  43.862  51.047  1.00  0.00     0.261 C 
HETATM   12  N   UNL     1      26.572  43.647  52.408  1.00  0.00    -0.323 N 
HETATM   13  H   UNL     1      25.808  43.047  52.696  1.00  0.00     0.169 HD
HETATM   14  O   UNL     1      27.459  44.622  50.496  1.00  0.00    -0.267 OA
BRANCH  12  15
HETATM   15  C   UNL     1      27.425  44.131  53.420  1.00  0.00     0.035 A 
HETATM   16  C   UNL     1      27.273  45.371  54.041  1.00  0.00     0.030 A 
HETATM   17  C   UNL     1      28.193  45.811  55.003  1.00  0.00     0.012 A 
HETATM   18  C   UNL     1      29.293  45.026  55.365  1.00  0.00    -0.030 A 
HETATM   19  C   UNL     1      29.428  43.772  54.747  1.00  0.00     0.012 A 
HETATM   20  C   UNL     1      28.505  43.327  53.794  1.00  0.00     0.030 A 
BRANCH  18  21
HETATM   21  C   UNL     1      30.351  45.481  56.351  1.00  0.00     0.147 C 
HETATM   22  C   UNL     1      29.854  45.972  57.708  1.00  0.00     0.044 C 
BRANCH  21  23
HETATM   23  O   UNL     1      31.255  44.397  56.569  1.00  0.00    -0.391 OA
HETATM   24  H   UNL     1      31.194  44.153  57.507  1.00  0.00     0.210 HD
ENDBRANCH  21  23
ENDBRANCH  18  21
ENDBRANCH  12  15
ENDBRANCH   1  11
BRANCH   4  25
HETATM   25  C   UNL     1      23.254  41.530  46.806  1.00  0.00     0.409 C 
HETATM   26  F   UNL     1      23.247  41.169  45.509  1.00  0.00    -0.169 F 
HETATM   27  F   UNL     1      22.080  41.158  47.365  1.00  0.00    -0.169 F 
HETATM   28  F   UNL     1      23.268  42.893  46.818  1.00  0.00    -0.169 F 
ENDBRANCH   4  25
BRANCH   6  29
HETATM   29  C   UNL     1      27.120  39.468  48.169  1.00  0.00    -0.035 A 
HETATM   30  C   UNL     1      28.000  39.299  49.257  1.00  0.00     0.012 A 
HETATM   31  C   UNL     1      28.126  38.063  49.900  1.00  0.00     0.043 A 
HETATM   32  C   UNL     1      27.353  36.990  49.482  1.00  0.00     0.116 A 
HETATM   33  F   UNL     1      27.474  35.808  50.101  1.00  0.00    -0.206 F 
HETATM   34  C   UNL     1      26.449  37.131  48.442  1.00  0.00     0.043 A 
HETATM   35  C   UNL     1      26.327  38.365  47.795  1.00  0.00     0.012 A 
ENDBRANCH   6  29
TORSDOF 6
ENDMDL
