MODEL 1
REMARK VINA RESULT:      -9.5      0.000      0.000
REMARK  6 active torsions:
REMARK  status: ('A' for Active; 'I' for Inactive)
REMARK    1  A    between atoms: O_2  and  C_3 
REMARK    2  A    between atoms: C_3  and  C_4 
REMARK    3  A    between atoms: C_7  and  C_8 
REMARK    4  A    between atoms: C_8  and  O_9 
REMARK    5  A    between atoms: O_9  and  C_10 
REMARK    6  A    between atoms: C_11  and  C_12 
ROOT
HETATM    1  C   UNL     1      25.340  45.899  51.555  1.00  0.00     0.079 A 
HETATM    2  C   UNL     1      25.784  46.044  50.226  1.00  0.00    -0.002 A 
HETATM    3  C   UNL     1      25.453  45.077  49.268  1.00  0.00     0.014 A 
HETATM    4  C   UNL     1      24.698  43.962  49.628  1.00  0.00     0.001 A 
HETATM    5  C   UNL     1      24.277  43.805  50.946  1.00  0.00     0.003 A 
HETATM    6  C   UNL     1      24.600  44.767  51.908  1.00  0.00     0.037 A 
ENDROOT
BRANCH   1   7
HETATM    7  O   UNL     1      25.692  46.901  52.425  1.00  0.00    -0.346 OA
BRANCH   7   8
HETATM    8  C   UNL     1      25.674  46.628  53.829  1.00  0.00     0.214 C 
BRANCH   8   9
HETATM    9  C   UNL     1      26.976  46.057  54.352  1.00  0.00    -0.034 A 
HETATM   10  C   UNL     1      27.273  44.700  54.175  1.00  0.00     0.010 A 
HETATM   11  C   UNL     1      28.455  44.162  54.687  1.00  0.00     0.018 A 
HETATM   12  C   UNL     1      29.361  44.976  55.382  1.00  0.00     0.039 A 
HETATM   13  C   UNL     1      29.087  46.340  55.526  1.00  0.00     0.018 A 
HETATM   14  C   UNL     1      27.908  46.878  55.006  1.00  0.00     0.010 A 
BRANCH  12  15
HETATM   15  C   UNL     1      30.580  44.343  55.953  1.00  0.00     0.292 C 
HETATM   16  O   UNL     1      30.993  43.246  55.611  1.00  0.00    -0.259 OA
BRANCH  15  17
HETATM   17  O   UNL     1      31.121  45.134  56.913  1.00  0.00    -0.323 OA
HETATM   18  C   UNL     1      31.364  44.462  58.150  1.00  0.00     0.213 C 
ENDBRANCH  15  17
ENDBRANCH  12  15
ENDBRANCH   8   9
ENDBRANCH   7   8
ENDBRANCH   1   7
BRANCH   2  19
HETATM   19  C   UNL     1      26.580  47.201  49.804  1.00  0.00     0.032 C 
HETATM   20  C   UNL     1      26.093  48.308  49.225  1.00  0.00     0.045 A 
HETATM   21  C   UNL     1      27.025  49.414  48.806  1.00  0.00     0.257 A 
HETATM   22  C   UNL     1      24.736  48.721  48.862  1.00  0.00     0.006 A 
HETATM   23  O   UNL     1      28.233  49.460  48.939  1.00  0.00    -0.267 OA
HETATM   24  N   UNL     1      26.205  50.374  48.237  1.00  0.00    -0.322 N 
HETATM   25  C   UNL     1      24.869  49.981  48.264  1.00  0.00     0.046 A 
HETATM   26  H   UNL     1      26.559  51.239  47.860  1.00  0.00     0.169 HD
HETATM   27  C   UNL     1      23.792  50.699  47.787  1.00  0.00     0.030 A 
HETATM   28  C   UNL     1      22.527  50.122  47.919  1.00  0.00     0.002 A 
HETATM   29  C   UNL     1      22.374  48.858  48.519  1.00  0.00     0.001 A 
HETATM   30  C   UNL     1      23.484  48.148  48.995  1.00  0.00     0.015 A 
ENDBRANCH   2  19
TORSDOF 6
ENDMDL
MODEL 2
REMARK VINA RESULT:      -9.4     11.601     13.054
REMARK  6 active torsions:
REMARK  status: ('A' for Active; 'I' for Inactive)
REMARK    1  A    between atoms: O_2  and  C_3 
REMARK    2  A    between atoms: C_3  and  C_4 
REMARK    3  A    between atoms: C_7  and  C_8 
REMARK    4  A    between atoms: C_8  and  O_9 
REMARK    5  A    between atoms: O_9  and  C_10 
REMARK    6  A    between atoms: C_11  and  C_12 
ROOT
HETATM    1  C   UNL     1      27.596  48.353  39.474  1.00  0.00     0.079 A 
HETATM    2  C   UNL     1      27.137  49.621  39.067  1.00  0.00    -0.002 A 
HETATM    3  C   UNL     1      26.492  49.768  37.831  1.00  0.00     0.014 A 
HETATM    4  C   UNL     1      26.314  48.667  36.996  1.00  0.00     0.001 A 
HETATM    5  C   UNL     1      26.787  47.416  37.387  1.00  0.00     0.003 A 
HETATM    6  C   UNL     1      27.429  47.259  38.619  1.00  0.00     0.037 A 
ENDROOT
BRANCH   1   7
HETATM    7  O   UNL     1      28.199  48.292  40.705  1.00  0.00    -0.346 OA
BRANCH   7   8
HETATM    8  C   UNL     1      29.407  47.537  40.841  1.00  0.00     0.214 C 
BRANCH   8   9
HETATM    9  C   UNL     1      30.587  48.361  41.313  1.00  0.00    -0.034 A 
HETATM   10  C   UNL     1      30.406  49.367  42.271  1.00  0.00     0.010 A 
HETATM   11  C   UNL     1      31.485  50.154  42.682  1.00  0.00     0.018 A 
HETATM   12  C   UNL     1      32.761  49.941  42.145  1.00  0.00     0.039 A 
HETATM   13  C   UNL     1      32.954  48.911  41.218  1.00  0.00     0.018 A 
HETATM   14  C   UNL     1      31.876  48.121  40.814  1.00  0.00     0.010 A 
BRANCH  12  15
HETATM   15  C   UNL     1      33.865  50.840  42.578  1.00  0.00     0.292 C 
HETATM   16  O   UNL     1      33.684  51.900  43.157  1.00  0.00    -0.259 OA
BRANCH  15  17
HETATM   17  O   UNL     1      35.066  50.332  42.203  1.00  0.00    -0.323 OA
HETATM   18  C   UNL     1      36.167  51.211  42.438  1.00  0.00     0.213 C 
ENDBRANCH  15  17
ENDBRANCH  12  15
ENDBRANCH   8   9
ENDBRANCH   7   8
ENDBRANCH   1   7
BRANCH   2  19
HETATM   19  C   UNL     1      27.303  50.805  39.914  1.00  0.00     0.032 C 
HETATM   20  C   UNL     1      28.436  51.512  40.045  1.00  0.00     0.045 A 
HETATM   21  C   UNL     1      28.486  52.693  40.978  1.00  0.00     0.257 A 
HETATM   22  C   UNL     1      29.762  51.379  39.439  1.00  0.00     0.006 A 
HETATM   23  O   UNL     1      27.586  53.138  41.664  1.00  0.00    -0.267 OA
HETATM   24  N   UNL     1      29.784  53.167  40.883  1.00  0.00    -0.322 N 
HETATM   25  C   UNL     1      30.536  52.410  39.989  1.00  0.00     0.046 A 
HETATM   26  H   UNL     1      30.113  53.963  41.406  1.00  0.00     0.169 HD
HETATM   27  C   UNL     1      31.860  52.608  39.655  1.00  0.00     0.030 A 
HETATM   28  C   UNL     1      32.426  51.732  38.727  1.00  0.00     0.002 A 
HETATM   29  C   UNL     1      31.663  50.693  38.162  1.00  0.00     0.001 A 
HETATM   30  C   UNL     1      30.321  50.511  38.518  1.00  0.00     0.015 A 
ENDBRANCH   2  19
TORSDOF 6
ENDMDL
MODEL 3
REMARK VINA RESULT:      -9.3      2.777      8.528
REMARK  6 active torsions:
REMARK  status: ('A' for Active; 'I' for Inactive)
REMARK    1  A    between atoms: O_2  and  C_3 
REMARK    2  A    between atoms: C_3  and  C_4 
REMARK    3  A    between atoms: C_7  and  C_8 
REMARK    4  A    between atoms: C_8  and  O_9 
REMARK    5  A    between atoms: O_9  and  C_10 
REMARK    6  A    between atoms: C_11  and  C_12 
ROOT
HETATM    1  C   UNL     1      27.403  43.289  51.495  1.00  0.00     0.079 A 
HETATM    2  C   UNL     1      27.505  43.377  52.897  1.00  0.00    -0.002 A 
HETATM    3  C   UNL     1      27.896  42.256  53.642  1.00  0.00     0.014 A 
HETATM    4  C   UNL     1      28.170  41.049  53.002  1.00  0.00     0.001 A 
HETATM    5  C   UNL     1      28.048  40.954  51.618  1.00  0.00     0.003 A 
HETATM    6  C   UNL     1      27.662  42.067  50.866  1.00  0.00     0.037 A 
ENDROOT
BRANCH   1   7
HETATM    7  O   UNL     1      27.032  44.437  50.840  1.00  0.00    -0.346 OA
BRANCH   7   8
HETATM    8  C   UNL     1      25.666  44.592  50.445  1.00  0.00     0.214 C 
BRANCH   8   9
HETATM    9  C   UNL     1      25.324  45.992  49.981  1.00  0.00    -0.034 A 
HETATM   10  C   UNL     1      24.014  46.307  49.596  1.00  0.00     0.010 A 
HETATM   11  C   UNL     1      23.702  47.587  49.132  1.00  0.00     0.018 A 
HETATM   12  C   UNL     1      24.696  48.572  49.049  1.00  0.00     0.039 A 
HETATM   13  C   UNL     1      25.996  48.273  49.470  1.00  0.00     0.018 A 
HETATM   14  C   UNL     1      26.304  46.995  49.942  1.00  0.00     0.010 A 
BRANCH  12  15
HETATM   15  C   UNL     1      24.322  49.903  48.500  1.00  0.00     0.292 C 
HETATM   16  O   UNL     1      24.601  50.268  47.368  1.00  0.00    -0.259 OA
BRANCH  15  17
HETATM   17  O   UNL     1      23.680  50.642  49.440  1.00  0.00    -0.323 OA
HETATM   18  C   UNL     1      22.332  50.968  49.100  1.00  0.00     0.213 C 
ENDBRANCH  15  17
ENDBRANCH  12  15
ENDBRANCH   8   9
ENDBRANCH   7   8
ENDBRANCH   1   7
BRANCH   2  19
HETATM   19  C   UNL     1      27.225  44.627  53.610  1.00  0.00     0.032 C 
HETATM   20  C   UNL     1      27.949  45.118  54.626  1.00  0.00     0.045 A 
HETATM   21  C   UNL     1      27.534  46.400  55.299  1.00  0.00     0.257 A 
HETATM   22  C   UNL     1      29.158  44.644  55.302  1.00  0.00     0.006 A 
HETATM   23  O   UNL     1      26.584  47.109  55.028  1.00  0.00    -0.267 OA
HETATM   24  N   UNL     1      28.474  46.599  56.297  1.00  0.00    -0.322 N 
HETATM   25  C   UNL     1      29.425  45.582  56.307  1.00  0.00     0.046 A 
HETATM   26  H   UNL     1      28.448  47.391  56.920  1.00  0.00     0.169 HD
HETATM   27  C   UNL     1      30.501  45.472  57.164  1.00  0.00     0.030 A 
HETATM   28  C   UNL     1      31.342  44.370  57.000  1.00  0.00     0.002 A 
HETATM   29  C   UNL     1      31.091  43.419  55.994  1.00  0.00     0.001 A 
HETATM   30  C   UNL     1      29.992  43.552  55.136  1.00  0.00     0.015 A 
ENDBRANCH   2  19
TORSDOF 6
ENDMDL
MODEL 4
REMARK VINA RESULT:      -9.2      7.546     11.814
REMARK  6 active torsions:
REMARK  status: ('A' for Active; 'I' for Inactive)
REMARK    1  A    between atoms: O_2  and  C_3 
REMARK    2  A    between atoms: C_3  and  C_4 
REMARK    3  A    between atoms: C_7  and  C_8 
REMARK    4  A    between atoms: C_8  and  O_9 
REMARK    5  A    between atoms: O_9  and  C_10 
REMARK    6  A    between atoms: C_11  and  C_12 
ROOT
HETATM    1  C   UNL     1      20.912  49.138  49.154  1.00  0.00     0.079 A 
HETATM    2  C   UNL     1      20.884  50.543  49.052  1.00  0.00    -0.002 A 
HETATM    3  C   UNL     1      22.018  51.235  48.606  1.00  0.00     0.014 A 
HETATM    4  C   UNL     1      23.180  50.541  48.277  1.00  0.00     0.001 A 
HETATM    5  C   UNL     1      23.218  49.153  48.398  1.00  0.00     0.003 A 
HETATM    6  C   UNL     1      22.091  48.454  48.839  1.00  0.00     0.037 A 
ENDROOT
BRANCH   1   7
HETATM    7  O   UNL     1      19.754  48.537  49.580  1.00  0.00    -0.346 OA
BRANCH   7   8
HETATM    8  C   UNL     1      19.236  47.436  48.829  1.00  0.00     0.214 C 
BRANCH   8   9
HETATM    9  C   UNL     1      17.933  47.744  48.123  1.00  0.00    -0.034 A 
HETATM   10  C   UNL     1      17.721  47.306  46.809  1.00  0.00     0.010 A 
HETATM   11  C   UNL     1      16.535  47.620  46.141  1.00  0.00     0.018 A 
HETATM   12  C   UNL     1      15.541  48.373  46.780  1.00  0.00     0.039 A 
HETATM   13  C   UNL     1      15.730  48.777  48.106  1.00  0.00     0.018 A 
HETATM   14  C   UNL     1      16.914  48.456  48.774  1.00  0.00     0.010 A 
BRANCH  12  15
HETATM   15  C   UNL     1      14.318  48.723  46.007  1.00  0.00     0.292 C 
HETATM   16  O   UNL     1      14.130  49.820  45.504  1.00  0.00    -0.259 OA
BRANCH  15  17
HETATM   17  O   UNL     1      13.454  47.678  45.987  1.00  0.00    -0.323 OA
HETATM   18  C   UNL     1      12.879  47.425  44.704  1.00  0.00     0.213 C 
ENDBRANCH  15  17
ENDBRANCH  12  15
ENDBRANCH   8   9
ENDBRANCH   7   8
ENDBRANCH   1   7
BRANCH   2  19
HETATM   19  C   UNL     1      19.683  51.312  49.388  1.00  0.00     0.032 C 
HETATM   20  C   UNL     1      18.694  51.618  48.536  1.00  0.00     0.045 A 
HETATM   21  C   UNL     1      17.527  52.449  49.000  1.00  0.00     0.257 A 
HETATM   22  C   UNL     1      18.474  51.310  47.121  1.00  0.00     0.006 A 
HETATM   23  O   UNL     1      17.329  52.900  50.112  1.00  0.00    -0.267 OA
HETATM   24  N   UNL     1      16.720  52.587  47.882  1.00  0.00    -0.322 N 
HETATM   25  C   UNL     1      17.263  51.927  46.782  1.00  0.00     0.046 A 
HETATM   26  H   UNL     1      15.856  53.103  47.894  1.00  0.00     0.169 HD
HETATM   27  C   UNL     1      16.719  51.857  45.515  1.00  0.00     0.030 A 
HETATM   28  C   UNL     1      17.427  51.135  44.552  1.00  0.00     0.002 A 
HETATM   29  C   UNL     1      18.644  50.507  44.876  1.00  0.00     0.001 A 
HETATM   30  C   UNL     1      19.176  50.593  46.169  1.00  0.00     0.015 A 
ENDBRANCH   2  19
TORSDOF 6
ENDMDL
MODEL 5
REMARK VINA RESULT:      -9.2      3.197      5.024
REMARK  6 active torsions:
REMARK  status: ('A' for Active; 'I' for Inactive)
REMARK    1  A    between atoms: O_2  and  C_3 
REMARK    2  A    between atoms: C_3  and  C_4 
REMARK    3  A    between atoms: C_7  and  C_8 
REMARK    4  A    between atoms: C_8  and  O_9 
REMARK    5  A    between atoms: O_9  and  C_10 
REMARK    6  A    between atoms: C_11  and  C_12 
ROOT
HETATM    1  C   UNL     1      27.209  40.970  50.228  1.00  0.00     0.079 A 
HETATM    2  C   UNL     1      26.237  41.323  49.271  1.00  0.00    -0.002 A 
HETATM    3  C   UNL     1      26.511  41.170  47.905  1.00  0.00     0.014 A 
HETATM    4  C   UNL     1      27.747  40.683  47.488  1.00  0.00     0.001 A 
HETATM    5  C   UNL     1      28.718  40.353  48.431  1.00  0.00     0.003 A 
HETATM    6  C   UNL     1      28.453  40.500  49.796  1.00  0.00     0.037 A 
ENDROOT
BRANCH   1   7
HETATM    7  O   UNL     1      26.853  41.133  51.543  1.00  0.00    -0.346 OA
BRANCH   7   8
HETATM    8  C   UNL     1      27.875  41.073  52.542  1.00  0.00     0.214 C 
BRANCH   8   9
HETATM    9  C   UNL     1      28.143  42.402  53.216  1.00  0.00    -0.034 A 
HETATM   10  C   UNL     1      29.259  42.559  54.049  1.00  0.00     0.010 A 
HETATM   11  C   UNL     1      29.490  43.772  54.701  1.00  0.00     0.018 A 
HETATM   12  C   UNL     1      28.610  44.848  54.527  1.00  0.00     0.039 A 
HETATM   13  C   UNL     1      27.517  44.709  53.665  1.00  0.00     0.018 A 
HETATM   14  C   UNL     1      27.292  43.498  53.007  1.00  0.00     0.010 A 
BRANCH  12  15
HETATM   15  C   UNL     1      28.873  46.102  55.284  1.00  0.00     0.292 C 
HETATM   16  O   UNL     1      28.383  47.182  54.992  1.00  0.00    -0.259 OA
BRANCH  15  17
HETATM   17  O   UNL     1      29.750  45.872  56.293  1.00  0.00    -0.323 OA
HETATM   18  C   UNL     1      29.201  46.073  57.596  1.00  0.00     0.213 C 
ENDBRANCH  15  17
ENDBRANCH  12  15
ENDBRANCH   8   9
ENDBRANCH   7   8
ENDBRANCH   1   7
BRANCH   2  19
HETATM   19  C   UNL     1      24.924  41.841  49.667  1.00  0.00     0.032 C 
HETATM   20  C   UNL     1      24.647  43.123  49.944  1.00  0.00     0.045 A 
HETATM   21  C   UNL     1      23.260  43.521  50.375  1.00  0.00     0.257 A 
HETATM   22  C   UNL     1      25.465  44.338  49.934  1.00  0.00     0.006 A 
HETATM   23  O   UNL     1      22.285  42.804  50.502  1.00  0.00    -0.267 OA
HETATM   24  N   UNL     1      23.332  44.886  50.594  1.00  0.00    -0.322 N 
HETATM   25  C   UNL     1      24.612  45.373  50.340  1.00  0.00     0.046 A 
HETATM   26  H   UNL     1      22.542  45.433  50.897  1.00  0.00     0.169 HD
HETATM   27  C   UNL     1      25.031  46.683  50.452  1.00  0.00     0.030 A 
HETATM   28  C   UNL     1      26.364  46.960  50.142  1.00  0.00     0.002 A 
HETATM   29  C   UNL     1      27.233  45.933  49.731  1.00  0.00     0.001 A 
HETATM   30  C   UNL     1      26.785  44.610  49.625  1.00  0.00     0.015 A 
ENDBRANCH   2  19
TORSDOF 6
ENDMDL
MODEL 6
REMARK VINA RESULT:      -9.1      2.771      9.047
REMARK  6 active torsions:
REMARK  status: ('A' for Active; 'I' for Inactive)
REMARK    1  A    between atoms: O_2  and  C_3 
REMARK    2  A    between atoms: C_3  and  C_4 
REMARK    3  A    between atoms: C_7  and  C_8 
REMARK    4  A    between atoms: C_8  and  O_9 
REMARK    5  A    between atoms: O_9  and  C_10 
REMARK    6  A    between atoms: C_11  and  C_12 
ROOT
HETATM    1  C   UNL     1      26.372  46.154  53.415  1.00  0.00     0.079 A 
HETATM    2  C   UNL     1      27.583  45.955  54.107  1.00  0.00    -0.002 A 
HETATM    3  C   UNL     1      27.993  46.877  55.079  1.00  0.00     0.014 A 
HETATM    4  C   UNL     1      27.215  47.999  55.355  1.00  0.00     0.001 A 
HETATM    5  C   UNL     1      26.028  48.209  54.657  1.00  0.00     0.003 A 
HETATM    6  C   UNL     1      25.609  47.294  53.687  1.00  0.00     0.037 A 
ENDROOT
BRANCH   1   7
HETATM    7  O   UNL     1      26.035  45.194  52.494  1.00  0.00    -0.346 OA
BRANCH   7   8
HETATM    8  C   UNL     1      26.489  45.349  51.146  1.00  0.00     0.214 C 
BRANCH   8   9
HETATM    9  C   UNL     1      25.845  46.512  50.420  1.00  0.00    -0.034 A 
HETATM   10  C   UNL     1      26.638  47.535  49.885  1.00  0.00     0.010 A 
HETATM   11  C   UNL     1      26.046  48.628  49.246  1.00  0.00     0.018 A 
HETATM   12  C   UNL     1      24.652  48.710  49.130  1.00  0.00     0.039 A 
HETATM   13  C   UNL     1      23.858  47.670  49.627  1.00  0.00     0.018 A 
HETATM   14  C   UNL     1      24.452  46.575  50.258  1.00  0.00     0.010 A 
BRANCH  12  15
HETATM   15  C   UNL     1      24.070  49.919  48.487  1.00  0.00     0.292 C 
HETATM   16  O   UNL     1      24.184  50.171  47.297  1.00  0.00    -0.259 OA
BRANCH  15  17
HETATM   17  O   UNL     1      23.449  50.696  49.410  1.00  0.00    -0.323 OA
HETATM   18  C   UNL     1      22.074  50.953  49.121  1.00  0.00     0.213 C 
ENDBRANCH  15  17
ENDBRANCH  12  15
ENDBRANCH   8   9
ENDBRANCH   7   8
ENDBRANCH   1   7
BRANCH   2  19
HETATM   19  C   UNL     1      28.432  44.789  53.848  1.00  0.00     0.032 C 
HETATM   20  C   UNL     1      29.378  44.319  54.675  1.00  0.00     0.045 A 
HETATM   21  C   UNL     1      30.209  43.129  54.274  1.00  0.00     0.257 A 
HETATM   22  C   UNL     1      29.838  44.745  55.998  1.00  0.00     0.006 A 
HETATM   23  O   UNL     1      30.133  42.479  53.248  1.00  0.00    -0.267 OA
HETATM   24  N   UNL     1      31.081  42.931  55.331  1.00  0.00    -0.322 N 
HETATM   25  C   UNL     1      30.874  43.866  56.342  1.00  0.00     0.046 A 
HETATM   26  H   UNL     1      31.768  42.193  55.341  1.00  0.00     0.169 HD
HETATM   27  C   UNL     1      31.562  43.955  57.535  1.00  0.00     0.030 A 
HETATM   28  C   UNL     1      31.189  44.970  58.417  1.00  0.00     0.002 A 
HETATM   29  C   UNL     1      30.149  45.860  58.089  1.00  0.00     0.001 A 
HETATM   30  C   UNL     1      29.466  45.751  56.872  1.00  0.00     0.015 A 
ENDBRANCH   2  19
TORSDOF 6
ENDMDL
MODEL 7
REMARK VINA RESULT:      -9.0     11.494     13.040
REMARK  6 active torsions:
REMARK  status: ('A' for Active; 'I' for Inactive)
REMARK    1  A    between atoms: O_2  and  C_3 
REMARK    2  A    between atoms: C_3  and  C_4 
REMARK    3  A    between atoms: C_7  and  C_8 
REMARK    4  A    between atoms: C_8  and  O_9 
REMARK    5  A    between atoms: O_9  and  C_10 
REMARK    6  A    between atoms: C_11  and  C_12 
ROOT
HETATM    1  C   UNL     1      27.953  48.424  39.201  1.00  0.00     0.079 A 
HETATM    2  C   UNL     1      28.091  49.623  38.475  1.00  0.00    -0.002 A 
HETATM    3  C   UNL     1      26.960  50.393  38.173  1.00  0.00     0.014 A 
HETATM    4  C   UNL     1      25.695  49.969  38.575  1.00  0.00     0.001 A 
HETATM    5  C   UNL     1      25.553  48.773  39.274  1.00  0.00     0.003 A 
HETATM    6  C   UNL     1      26.676  47.999  39.582  1.00  0.00     0.037 A 
ENDROOT
BRANCH   1   7
HETATM    7  O   UNL     1      29.112  47.740  39.471  1.00  0.00    -0.346 OA
BRANCH   7   8
HETATM    8  C   UNL     1      29.472  47.512  40.836  1.00  0.00     0.214 C 
BRANCH   8   9
HETATM    9  C   UNL     1      30.650  48.343  41.300  1.00  0.00    -0.034 A 
HETATM   10  C   UNL     1      30.605  49.002  42.536  1.00  0.00     0.010 A 
HETATM   11  C   UNL     1      31.674  49.799  42.951  1.00  0.00     0.018 A 
HETATM   12  C   UNL     1      32.806  49.947  42.137  1.00  0.00     0.039 A 
HETATM   13  C   UNL     1      32.871  49.259  40.920  1.00  0.00     0.018 A 
HETATM   14  C   UNL     1      31.805  48.455  40.511  1.00  0.00     0.010 A 
BRANCH  12  15
HETATM   15  C   UNL     1      33.894  50.848  42.602  1.00  0.00     0.292 C 
HETATM   16  O   UNL     1      33.702  51.835  43.296  1.00  0.00    -0.259 OA
BRANCH  15  17
HETATM   17  O   UNL     1      35.091  50.439  42.113  1.00  0.00    -0.323 OA
HETATM   18  C   UNL     1      36.205  51.189  42.602  1.00  0.00     0.213 C 
ENDBRANCH  15  17
ENDBRANCH  12  15
ENDBRANCH   8   9
ENDBRANCH   7   8
ENDBRANCH   1   7
BRANCH   2  19
HETATM   19  C   UNL     1      29.403  50.105  38.032  1.00  0.00     0.032 C 
HETATM   20  C   UNL     1      30.174  50.977  38.698  1.00  0.00     0.045 A 
HETATM   21  C   UNL     1      31.490  51.421  38.116  1.00  0.00     0.257 A 
HETATM   22  C   UNL     1      30.008  51.672  39.977  1.00  0.00     0.006 A 
HETATM   23  O   UNL     1      31.997  51.068  37.068  1.00  0.00    -0.267 OA
HETATM   24  N   UNL     1      32.003  52.319  39.037  1.00  0.00    -0.322 N 
HETATM   25  C   UNL     1      31.148  52.472  40.126  1.00  0.00     0.046 A 
HETATM   26  H   UNL     1      32.887  52.785  38.910  1.00  0.00     0.169 HD
HETATM   27  C   UNL     1      31.352  53.283  41.223  1.00  0.00     0.030 A 
HETATM   28  C   UNL     1      30.366  53.286  42.212  1.00  0.00     0.002 A 
HETATM   29  C   UNL     1      29.215  52.486  42.080  1.00  0.00     0.001 A 
HETATM   30  C   UNL     1      29.030  51.671  40.956  1.00  0.00     0.015 A 
ENDBRANCH   2  19
TORSDOF 6
ENDMDL
MODEL 8
REMARK VINA RESULT:      -8.9     11.735     14.261
REMARK  6 active torsions:
REMARK  status: ('A' for Active; 'I' for Inactive)
REMARK    1  A    between atoms: O_2  and  C_3 
REMARK    2  A    between atoms: C_3  and  C_4 
REMARK    3  A    between atoms: C_7  and  C_8 
REMARK    4  A    between atoms: C_8  and  O_9 
REMARK    5  A    between atoms: O_9  and  C_10 
REMARK    6  A    between atoms: C_11  and  C_12 
ROOT
HETATM    1  C   UNL     1      28.528  49.357  39.024  1.00  0.00     0.079 A 
HETATM    2  C   UNL     1      28.781  48.461  40.080  1.00  0.00    -0.002 A 
HETATM    3  C   UNL     1      27.721  47.985  40.863  1.00  0.00     0.014 A 
HETATM    4  C   UNL     1      26.417  48.407  40.611  1.00  0.00     0.001 A 
HETATM    5  C   UNL     1      26.168  49.310  39.580  1.00  0.00     0.003 A 
HETATM    6  C   UNL     1      27.218  49.788  38.792  1.00  0.00     0.037 A 
ENDROOT
BRANCH   1   7
HETATM    7  O   UNL     1      29.620  49.760  38.295  1.00  0.00    -0.346 OA
BRANCH   7   8
HETATM    8  C   UNL     1      29.877  51.160  38.161  1.00  0.00     0.214 C 
BRANCH   8   9
HETATM    9  C   UNL     1      31.253  51.572  38.640  1.00  0.00    -0.034 A 
HETATM   10  C   UNL     1      31.422  52.756  39.369  1.00  0.00     0.010 A 
HETATM   11  C   UNL     1      32.695  53.159  39.780  1.00  0.00     0.018 A 
HETATM   12  C   UNL     1      33.818  52.379  39.471  1.00  0.00     0.039 A 
HETATM   13  C   UNL     1      33.649  51.175  38.778  1.00  0.00     0.018 A 
HETATM   14  C   UNL     1      32.375  50.771  38.375  1.00  0.00     0.010 A 
BRANCH  12  15
HETATM   15  C   UNL     1      35.156  52.878  39.888  1.00  0.00     0.292 C 
HETATM   16  O   UNL     1      35.558  52.849  41.041  1.00  0.00    -0.259 OA
BRANCH  15  17
HETATM   17  O   UNL     1      35.823  53.394  38.825  1.00  0.00    -0.323 OA
HETATM   18  C   UNL     1      35.923  54.819  38.839  1.00  0.00     0.213 C 
ENDBRANCH  15  17
ENDBRANCH  12  15
ENDBRANCH   8   9
ENDBRANCH   7   8
ENDBRANCH   1   7
BRANCH   2  19
HETATM   19  C   UNL     1      30.137  47.993  40.381  1.00  0.00     0.032 C 
HETATM   20  C   UNL     1      31.049  48.666  41.098  1.00  0.00     0.045 A 
HETATM   21  C   UNL     1      32.424  48.088  41.306  1.00  0.00     0.257 A 
HETATM   22  C   UNL     1      31.014  49.962  41.779  1.00  0.00     0.006 A 
HETATM   23  O   UNL     1      32.852  47.022  40.906  1.00  0.00    -0.267 OA
HETATM   24  N   UNL     1      33.099  49.035  42.058  1.00  0.00    -0.322 N 
HETATM   25  C   UNL     1      32.287  50.131  42.340  1.00  0.00     0.046 A 
HETATM   26  H   UNL     1      34.055  48.918  42.352  1.00  0.00     0.169 HD
HETATM   27  C   UNL     1      32.639  51.249  43.069  1.00  0.00     0.030 A 
HETATM   28  C   UNL     1      31.666  52.236  43.239  1.00  0.00     0.002 A 
HETATM   29  C   UNL     1      30.382  52.082  42.684  1.00  0.00     0.001 A 
HETATM   30  C   UNL     1      30.049  50.939  41.948  1.00  0.00     0.015 A 
ENDBRANCH   2  19
TORSDOF 6
ENDMDL
MODEL 9
REMARK VINA RESULT:      -8.7      3.388      5.904
REMARK  6 active torsions:
REMARK  status: ('A' for Active; 'I' for Inactive)
REMARK    1  A    between atoms: O_2  and  C_3 
REMARK    2  A    between atoms: C_3  and  C_4 
REMARK    3  A    between atoms: C_7  and  C_8 
REMARK    4  A    between atoms: C_8  and  O_9 
REMARK    5  A    between atoms: O_9  and  C_10 
REMARK    6  A    between atoms: C_11  and  C_12 
ROOT
HETATM    1  C   UNL     1      25.233  44.866  50.853  1.00  0.00     0.079 A 
HETATM    2  C   UNL     1      25.088  43.478  51.040  1.00  0.00    -0.002 A 
HETATM    3  C   UNL     1      23.999  42.805  50.471  1.00  0.00     0.014 A 
HETATM    4  C   UNL     1      23.048  43.506  49.733  1.00  0.00     0.001 A 
HETATM    5  C   UNL     1      23.178  44.883  49.565  1.00  0.00     0.003 A 
HETATM    6  C   UNL     1      24.262  45.563  50.126  1.00  0.00     0.037 A 
ENDROOT
BRANCH   1   7
HETATM    7  O   UNL     1      26.338  45.444  51.428  1.00  0.00    -0.346 OA
BRANCH   7   8
HETATM    8  C   UNL     1      26.171  46.189  52.637  1.00  0.00     0.214 C 
BRANCH   8   9
HETATM    9  C   UNL     1      27.218  45.883  53.688  1.00  0.00    -0.034 A 
HETATM   10  C   UNL     1      27.441  46.777  54.743  1.00  0.00     0.010 A 
HETATM   11  C   UNL     1      28.431  46.516  55.693  1.00  0.00     0.018 A 
HETATM   12  C   UNL     1      29.210  45.354  55.604  1.00  0.00     0.039 A 
HETATM   13  C   UNL     1      28.963  44.439  54.575  1.00  0.00     0.018 A 
HETATM   14  C   UNL     1      27.967  44.698  53.630  1.00  0.00     0.010 A 
BRANCH  12  15
HETATM   15  C   UNL     1      30.285  45.149  56.612  1.00  0.00     0.292 C 
HETATM   16  O   UNL     1      30.588  45.980  57.453  1.00  0.00    -0.259 OA
BRANCH  15  17
HETATM   17  O   UNL     1      30.887  43.947  56.426  1.00  0.00    -0.323 OA
HETATM   18  C   UNL     1      31.878  43.637  57.407  1.00  0.00     0.213 C 
ENDBRANCH  15  17
ENDBRANCH  12  15
ENDBRANCH   8   9
ENDBRANCH   7   8
ENDBRANCH   1   7
BRANCH   2  19
HETATM   19  C   UNL     1      26.064  42.701  51.811  1.00  0.00     0.032 C 
HETATM   20  C   UNL     1      26.952  41.840  51.293  1.00  0.00     0.045 A 
HETATM   21  C   UNL     1      27.880  41.075  52.199  1.00  0.00     0.257 A 
HETATM   22  C   UNL     1      27.246  41.425  49.919  1.00  0.00     0.006 A 
HETATM   23  O   UNL     1      27.958  41.140  53.412  1.00  0.00    -0.267 OA
HETATM   24  N   UNL     1      28.633  40.280  51.351  1.00  0.00    -0.322 N 
HETATM   25  C   UNL     1      28.272  40.476  50.020  1.00  0.00     0.046 A 
HETATM   26  H   UNL     1      29.345  39.650  51.683  1.00  0.00     0.169 HD
HETATM   27  C   UNL     1      28.820  39.851  48.919  1.00  0.00     0.030 A 
HETATM   28  C   UNL     1      28.314  40.199  47.665  1.00  0.00     0.002 A 
HETATM   29  C   UNL     1      27.286  41.152  47.545  1.00  0.00     0.001 A 
HETATM   30  C   UNL     1      26.744  41.772  48.678  1.00  0.00     0.015 A 
ENDBRANCH   2  19
TORSDOF 6
ENDMDL
MODEL 10
REMARK VINA RESULT:      -8.6     11.265     15.016
REMARK  6 active torsions:
REMARK  status: ('A' for Active; 'I' for Inactive)
REMARK    1  A    between atoms: O_2  and  C_3 
REMARK    2  A    between atoms: C_3  and  C_4 
REMARK    3  A    between atoms: C_7  and  C_8 
REMARK    4  A    between atoms: C_8  and  O_9 
REMARK    5  A    between atoms: O_9  and  C_10 
REMARK    6  A    between atoms: C_11  and  C_12 
ROOT
HETATM    1  C   UNL     1      36.164  52.270  40.964  1.00  0.00     0.079 A 
HETATM    2  C   UNL     1      36.150  51.761  42.277  1.00  0.00    -0.002 A 
HETATM    3  C   UNL     1      37.228  50.997  42.744  1.00  0.00     0.014 A 
HETATM    4  C   UNL     1      38.310  50.726  41.909  1.00  0.00     0.001 A 
HETATM    5  C   UNL     1      38.316  51.210  40.603  1.00  0.00     0.003 A 
HETATM    6  C   UNL     1      37.246  51.975  40.129  1.00  0.00     0.037 A 
ENDROOT
BRANCH   1   7
HETATM    7  O   UNL     1      35.078  53.023  40.593  1.00  0.00    -0.346 OA
BRANCH   7   8
HETATM    8  C   UNL     1      34.490  52.792  39.310  1.00  0.00     0.214 C 
BRANCH   8   9
HETATM    9  C   UNL     1      33.047  52.336  39.378  1.00  0.00    -0.034 A 
HETATM   10  C   UNL     1      32.580  51.342  38.508  1.00  0.00     0.010 A 
HETATM   11  C   UNL     1      31.241  50.945  38.543  1.00  0.00     0.018 A 
HETATM   12  C   UNL     1      30.351  51.532  39.452  1.00  0.00     0.039 A 
HETATM   13  C   UNL     1      30.823  52.496  40.350  1.00  0.00     0.018 A 
HETATM   14  C   UNL     1      32.163  52.886  40.319  1.00  0.00     0.010 A 
BRANCH  12  15
HETATM   15  C   UNL     1      28.925  51.110  39.413  1.00  0.00     0.292 C 
HETATM   16  O   UNL     1      28.070  51.680  38.753  1.00  0.00    -0.259 OA
BRANCH  15  17
HETATM   17  O   UNL     1      28.721  50.051  40.236  1.00  0.00    -0.323 OA
HETATM   18  C   UNL     1      27.861  50.332  41.341  1.00  0.00     0.213 C 
ENDBRANCH  15  17
ENDBRANCH  12  15
ENDBRANCH   8   9
ENDBRANCH   7   8
ENDBRANCH   1   7
BRANCH   2  19
HETATM   19  C   UNL     1      35.032  52.022  43.189  1.00  0.00     0.032 C 
HETATM   20  C   UNL     1      33.868  51.355  43.199  1.00  0.00     0.045 A 
HETATM   21  C   UNL     1      32.782  51.746  44.167  1.00  0.00     0.257 A 
HETATM   22  C   UNL     1      33.359  50.237  42.402  1.00  0.00     0.006 A 
HETATM   23  O   UNL     1      32.814  52.625  45.007  1.00  0.00    -0.267 OA
HETATM   24  N   UNL     1      31.735  50.881  43.896  1.00  0.00    -0.322 N 
HETATM   25  C   UNL     1      32.060  49.997  42.870  1.00  0.00     0.046 A 
HETATM   26  H   UNL     1      30.861  50.910  44.396  1.00  0.00     0.169 HD
HETATM   27  C   UNL     1      31.253  49.004  42.353  1.00  0.00     0.030 A 
HETATM   28  C   UNL     1      31.779  48.221  41.324  1.00  0.00     0.002 A 
HETATM   29  C   UNL     1      33.082  48.446  40.844  1.00  0.00     0.001 A 
HETATM   30  C   UNL     1      33.882  49.461  41.383  1.00  0.00     0.015 A 
ENDBRANCH   2  19
TORSDOF 6
ENDMDL
