MODEL 1
REMARK VINA RESULT:      -8.5      0.000      0.000
REMARK  9 active torsions:
REMARK  status: ('A' for Active; 'I' for Inactive)
REMARK    1  A    between atoms: C_5  and  N_6 
REMARK       I    between atoms: N_6  and  C_7 
REMARK    2  A    between atoms: C_7  and  C_8 
REMARK    3  A    between atoms: C_8  and  C_9 
REMARK    4  A    between atoms: C_9  and  C_10 
REMARK       I    between atoms: C_10  and  N_11 
REMARK    5  A    between atoms: N_11  and  C_12 
REMARK    6  A    between atoms: N_11  and  C_29 
REMARK    7  A    between atoms: C_12  and  C_13 
REMARK       I    between atoms: C_13  and  N_14 
REMARK    8  A    between atoms: N_14  and  C_15 
REMARK    9  A    between atoms: C_29  and  C_30 
ROOT
HETATM    1  C   UNL     1      23.862  44.229  48.936  1.00  0.00     0.221 C 
HETATM    2  N   UNL     1      25.127  44.239  49.537  1.00  0.00    -0.328 N 
HETATM    3  O   UNL     1      23.674  43.629  47.869  1.00  0.00    -0.273 OA
ENDROOT
BRANCH   2   4
HETATM    4  C   UNL     1      25.587  45.050  50.757  1.00  0.00     0.119 C 
HETATM    5  C   UNL     1      24.722  46.312  51.063  1.00  0.00     0.069 C 
HETATM    6  C   UNL     1      24.724  47.310  49.931  1.00  0.00     0.237 C 
HETATM    7  N   UNL     1      26.123  47.847  49.790  1.00  0.00    -0.075 N 
HETATM    8  H   UNL     1      26.364  48.313  50.679  1.00  0.00     0.279 HD
HETATM    9  C   UNL     1      26.185  48.924  48.736  1.00  0.00     0.269 C 
HETATM   10  C   UNL     1      27.141  46.764  49.556  1.00  0.00     0.237 C 
HETATM   11  C   UNL     1      27.030  45.650  50.605  1.00  0.00     0.069 C 
BRANCH   4  12
HETATM   12  C   UNL     1      25.647  44.220  52.085  1.00  0.00     0.246 C 
HETATM   13  N   UNL     1      26.876  43.795  52.534  1.00  0.00    -0.354 N 
HETATM   14  H   UNL     1      27.711  44.017  51.999  1.00  0.00     0.162 HD
HETATM   15  O   UNL     1      24.640  44.130  52.789  1.00  0.00    -0.271 OA
BRANCH  13  16
HETATM   16  C   UNL     1      27.059  43.308  53.912  1.00  0.00     0.084 C 
HETATM   17  C   UNL     1      28.070  42.153  54.044  1.00  0.00     0.025 C 
HETATM   18  C   UNL     1      29.534  42.586  54.018  1.00  0.00     0.002 C 
HETATM   19  C   UNL     1      29.822  43.727  54.985  1.00  0.00     0.000 C 
HETATM   20  C   UNL     1      28.871  44.894  54.754  1.00  0.00     0.002 C 
HETATM   21  C   UNL     1      27.415  44.450  54.875  1.00  0.00     0.025 C 
ENDBRANCH  13  16
ENDBRANCH   4  12
ENDBRANCH   2   4
BRANCH   2  22
HETATM   22  C   UNL     1      26.082  43.352  48.822  1.00  0.00     0.192 C 
BRANCH  22  23
HETATM   23  C   UNL     1      26.317  42.058  49.518  1.00  0.00     0.070 A 
HETATM   24  O   UNL     1      27.508  41.911  50.164  1.00  0.00    -0.325 OA
HETATM   25  C   UNL     1      27.557  40.625  50.608  1.00  0.00     0.142 A 
HETATM   26  C   UNL     1      26.399  39.958  50.288  1.00  0.00     0.027 A 
HETATM   27  C   UNL     1      25.598  40.880  49.578  1.00  0.00     0.036 A 
ENDBRANCH  22  23
ENDBRANCH   2  22
BRANCH   1  28
HETATM   28  C   UNL     1      22.630  44.832  49.566  1.00  0.00     0.112 C 
BRANCH  28  29
HETATM   29  C   UNL     1      21.610  45.158  48.497  1.00  0.00     0.112 C 
BRANCH  29  30
HETATM   30  C   UNL     1      21.639  46.627  48.126  1.00  0.00     0.223 C 
HETATM   31  N   UNL     1      21.143  47.435  49.128  1.00  0.00    -0.310 N 
HETATM   32  H   UNL     1      20.734  47.025  49.957  1.00  0.00     0.170 HD
HETATM   33  O   UNL     1      22.085  46.969  47.038  1.00  0.00    -0.273 OA
BRANCH  31  34
HETATM   34  C   UNL     1      21.098  48.814  49.063  1.00  0.00     0.160 A 
HETATM   35  N   UNL     1      22.110  49.648  49.308  1.00  0.00    -0.110 NA
HETATM   36  O   UNL     1      21.617  50.923  49.123  1.00  0.00    -0.216 OA
HETATM   37  C   UNL     1      20.307  50.852  48.776  1.00  0.00     0.078 A 
HETATM   38  C   UNL     1      19.618  52.132  48.536  1.00  0.00     0.079 C 
HETATM   39  C   UNL     1      19.929  49.535  48.722  1.00  0.00     0.087 A 
ENDBRANCH  31  34
ENDBRANCH  29  30
ENDBRANCH  28  29
ENDBRANCH   1  28
TORSDOF 9
ENDMDL
MODEL 2
REMARK VINA RESULT:      -8.0      5.814     11.383
REMARK  9 active torsions:
REMARK  status: ('A' for Active; 'I' for Inactive)
REMARK    1  A    between atoms: C_5  and  N_6 
REMARK       I    between atoms: N_6  and  C_7 
REMARK    2  A    between atoms: C_7  and  C_8 
REMARK    3  A    between atoms: C_8  and  C_9 
REMARK    4  A    between atoms: C_9  and  C_10 
REMARK       I    between atoms: C_10  and  N_11 
REMARK    5  A    between atoms: N_11  and  C_12 
REMARK    6  A    between atoms: N_11  and  C_29 
REMARK    7  A    between atoms: C_12  and  C_13 
REMARK       I    between atoms: C_13  and  N_14 
REMARK    8  A    between atoms: N_14  and  C_15 
REMARK    9  A    between atoms: C_29  and  C_30 
ROOT
HETATM    1  C   UNL     1      17.806  48.575  48.902  1.00  0.00     0.221 C 
HETATM    2  N   UNL     1      17.058  49.489  48.149  1.00  0.00    -0.328 N 
HETATM    3  O   UNL     1      17.249  47.651  49.510  1.00  0.00    -0.273 OA
ENDROOT
BRANCH   2   4
HETATM    4  C   UNL     1      17.547  50.776  47.470  1.00  0.00     0.119 C 
HETATM    5  C   UNL     1      18.422  51.698  48.375  1.00  0.00     0.069 C 
HETATM    6  C   UNL     1      17.688  52.180  49.601  1.00  0.00     0.237 C 
HETATM    7  N   UNL     1      16.564  53.072  49.145  1.00  0.00    -0.075 N 
HETATM    8  H   UNL     1      16.987  53.869  48.644  1.00  0.00     0.279 HD
HETATM    9  C   UNL     1      15.838  53.672  50.323  1.00  0.00     0.269 C 
HETATM   10  C   UNL     1      15.626  52.384  48.191  1.00  0.00     0.237 C 
HETATM   11  C   UNL     1      16.385  51.733  47.026  1.00  0.00     0.069 C 
BRANCH   4  12
HETATM   12  C   UNL     1      18.370  50.528  46.159  1.00  0.00     0.246 C 
HETATM   13  N   UNL     1      17.694  50.486  44.962  1.00  0.00    -0.354 N 
HETATM   14  H   UNL     1      16.684  50.607  44.950  1.00  0.00     0.162 HD
HETATM   15  O   UNL     1      19.601  50.568  46.200  1.00  0.00    -0.271 OA
BRANCH  13  16
HETATM   16  C   UNL     1      18.408  50.589  43.678  1.00  0.00     0.084 C 
HETATM   17  C   UNL     1      18.444  49.278  42.869  1.00  0.00     0.025 C 
HETATM   18  C   UNL     1      17.155  48.966  42.111  1.00  0.00     0.002 C 
HETATM   19  C   UNL     1      16.663  50.147  41.286  1.00  0.00     0.000 C 
HETATM   20  C   UNL     1      16.538  51.400  42.143  1.00  0.00     0.002 C 
HETATM   21  C   UNL     1      17.865  51.740  42.817  1.00  0.00     0.025 C 
ENDBRANCH  13  16
ENDBRANCH   4  12
ENDBRANCH   2   4
BRANCH   2  22
HETATM   22  C   UNL     1      15.625  49.101  48.079  1.00  0.00     0.192 C 
BRANCH  22  23
HETATM   23  C   UNL     1      15.255  48.445  46.796  1.00  0.00     0.070 A 
HETATM   24  O   UNL     1      16.233  47.744  46.155  1.00  0.00    -0.325 OA
HETATM   25  C   UNL     1      15.713  47.349  44.961  1.00  0.00     0.142 A 
HETATM   26  C   UNL     1      14.405  47.755  44.845  1.00  0.00     0.027 A 
HETATM   27  C   UNL     1      14.109  48.469  46.027  1.00  0.00     0.036 A 
ENDBRANCH  22  23
ENDBRANCH   2  22
BRANCH   1  28
HETATM   28  C   UNL     1      19.315  48.564  48.951  1.00  0.00     0.112 C 
BRANCH  28  29
HETATM   29  C   UNL     1      19.856  47.533  47.986  1.00  0.00     0.112 C 
BRANCH  29  30
HETATM   30  C   UNL     1      21.303  47.805  47.630  1.00  0.00     0.223 C 
HETATM   31  N   UNL     1      21.771  48.981  48.179  1.00  0.00    -0.310 N 
HETATM   32  H   UNL     1      21.140  49.596  48.677  1.00  0.00     0.170 HD
HETATM   33  O   UNL     1      21.918  47.005  46.936  1.00  0.00    -0.273 OA
BRANCH  31  34
HETATM   34  C   UNL     1      23.067  49.440  48.045  1.00  0.00     0.160 A 
HETATM   35  N   UNL     1      23.482  50.389  47.205  1.00  0.00    -0.110 NA
HETATM   36  O   UNL     1      24.840  50.524  47.412  1.00  0.00    -0.216 OA
HETATM   37  C   UNL     1      25.237  49.649  48.369  1.00  0.00     0.078 A 
HETATM   38  C   UNL     1      26.668  49.658  48.719  1.00  0.00     0.079 C 
HETATM   39  C   UNL     1      24.148  48.937  48.806  1.00  0.00     0.087 A 
ENDBRANCH  31  34
ENDBRANCH  29  30
ENDBRANCH  28  29
ENDBRANCH   1  28
TORSDOF 9
ENDMDL
MODEL 3
REMARK VINA RESULT:      -7.8     10.412     13.606
REMARK  9 active torsions:
REMARK  status: ('A' for Active; 'I' for Inactive)
REMARK    1  A    between atoms: C_5  and  N_6 
REMARK       I    between atoms: N_6  and  C_7 
REMARK    2  A    between atoms: C_7  and  C_8 
REMARK    3  A    between atoms: C_8  and  C_9 
REMARK    4  A    between atoms: C_9  and  C_10 
REMARK       I    between atoms: C_10  and  N_11 
REMARK    5  A    between atoms: N_11  and  C_12 
REMARK    6  A    between atoms: N_11  and  C_29 
REMARK    7  A    between atoms: C_12  and  C_13 
REMARK       I    between atoms: C_13  and  N_14 
REMARK    8  A    between atoms: N_14  and  C_15 
REMARK    9  A    between atoms: C_29  and  C_30 
ROOT
HETATM    1  C   UNL     1      29.053  47.114  38.156  1.00  0.00     0.221 C 
HETATM    2  N   UNL     1      27.709  47.505  38.189  1.00  0.00    -0.328 N 
HETATM    3  O   UNL     1      29.422  46.176  37.436  1.00  0.00    -0.273 OA
ENDROOT
BRANCH   2   4
HETATM    4  C   UNL     1      27.044  48.522  39.126  1.00  0.00     0.119 C 
HETATM    5  C   UNL     1      27.490  48.423  40.618  1.00  0.00     0.069 C 
HETATM    6  C   UNL     1      27.170  47.084  41.235  1.00  0.00     0.237 C 
HETATM    7  N   UNL     1      25.672  46.947  41.290  1.00  0.00    -0.075 N 
HETATM    8  H   UNL     1      25.315  47.711  41.885  1.00  0.00     0.279 HD
HETATM    9  C   UNL     1      25.271  45.670  41.984  1.00  0.00     0.269 C 
HETATM   10  C   UNL     1      25.026  47.086  39.938  1.00  0.00     0.237 C 
HETATM   11  C   UNL     1      25.485  48.363  39.223  1.00  0.00     0.069 C 
BRANCH   4  12
HETATM   12  C   UNL     1      27.258  50.015  38.696  1.00  0.00     0.246 C 
HETATM   13  N   UNL     1      28.090  50.800  39.460  1.00  0.00    -0.354 N 
HETATM   14  H   UNL     1      28.539  50.407  40.282  1.00  0.00     0.162 HD
HETATM   15  O   UNL     1      26.841  50.395  37.601  1.00  0.00    -0.271 OA
BRANCH  13  16
HETATM   16  C   UNL     1      28.600  52.087  38.955  1.00  0.00     0.084 C 
HETATM   17  C   UNL     1      28.944  53.106  40.059  1.00  0.00     0.025 C 
HETATM   18  C   UNL     1      30.284  52.861  40.751  1.00  0.00     0.002 C 
HETATM   19  C   UNL     1      31.424  52.667  39.761  1.00  0.00     0.000 C 
HETATM   20  C   UNL     1      31.091  51.578  38.749  1.00  0.00     0.002 C 
HETATM   21  C   UNL     1      29.793  51.893  38.009  1.00  0.00     0.025 C 
ENDBRANCH  13  16
ENDBRANCH   4  12
ENDBRANCH   2   4
BRANCH   2  22
HETATM   22  C   UNL     1      26.899  46.770  37.182  1.00  0.00     0.192 C 
BRANCH  22  23
HETATM   23  C   UNL     1      26.826  45.306  37.440  1.00  0.00     0.070 A 
HETATM   24  O   UNL     1      26.830  44.487  36.350  1.00  0.00    -0.325 OA
HETATM   25  C   UNL     1      26.627  43.222  36.811  1.00  0.00     0.142 A 
HETATM   26  C   UNL     1      26.532  43.216  38.182  1.00  0.00     0.027 A 
HETATM   27  C   UNL     1      26.654  44.563  38.590  1.00  0.00     0.036 A 
ENDBRANCH  22  23
ENDBRANCH   2  22
BRANCH   1  28
HETATM   28  C   UNL     1      30.157  47.845  38.881  1.00  0.00     0.112 C 
BRANCH  28  29
HETATM   29  C   UNL     1      30.863  46.904  39.832  1.00  0.00     0.112 C 
BRANCH  29  30
HETATM   30  C   UNL     1      31.870  47.635  40.697  1.00  0.00     0.223 C 
HETATM   31  N   UNL     1      31.471  48.920  41.002  1.00  0.00    -0.310 N 
HETATM   32  H   UNL     1      30.633  49.304  40.585  1.00  0.00     0.170 HD
HETATM   33  O   UNL     1      32.893  47.062  41.051  1.00  0.00    -0.273 OA
BRANCH  31  34
HETATM   34  C   UNL     1      32.185  49.784  41.810  1.00  0.00     0.160 A 
HETATM   35  N   UNL     1      33.410  50.253  41.572  1.00  0.00    -0.110 NA
HETATM   36  O   UNL     1      33.724  51.076  42.634  1.00  0.00    -0.216 OA
HETATM   37  C   UNL     1      32.690  51.091  43.512  1.00  0.00     0.078 A 
HETATM   38  C   UNL     1      32.856  51.926  44.713  1.00  0.00     0.079 C 
HETATM   39  C   UNL     1      31.686  50.287  43.034  1.00  0.00     0.087 A 
ENDBRANCH  31  34
ENDBRANCH  29  30
ENDBRANCH  28  29
ENDBRANCH   1  28
TORSDOF 9
ENDMDL
MODEL 4
REMARK VINA RESULT:      -7.7      3.628     10.154
REMARK  9 active torsions:
REMARK  status: ('A' for Active; 'I' for Inactive)
REMARK    1  A    between atoms: C_5  and  N_6 
REMARK       I    between atoms: N_6  and  C_7 
REMARK    2  A    between atoms: C_7  and  C_8 
REMARK    3  A    between atoms: C_8  and  C_9 
REMARK    4  A    between atoms: C_9  and  C_10 
REMARK       I    between atoms: C_10  and  N_11 
REMARK    5  A    between atoms: N_11  and  C_12 
REMARK    6  A    between atoms: N_11  and  C_29 
REMARK    7  A    between atoms: C_12  and  C_13 
REMARK       I    between atoms: C_13  and  N_14 
REMARK    8  A    between atoms: N_14  and  C_15 
REMARK    9  A    between atoms: C_29  and  C_30 
ROOT
HETATM    1  C   UNL     1      20.521  49.726  48.637  1.00  0.00     0.221 C 
HETATM    2  N   UNL     1      19.138  49.702  48.413  1.00  0.00    -0.328 N 
HETATM    3  O   UNL     1      21.012  49.154  49.620  1.00  0.00    -0.273 OA
ENDROOT
BRANCH   2   4
HETATM    4  C   UNL     1      18.340  50.477  47.357  1.00  0.00     0.119 C 
HETATM    5  C   UNL     1      18.593  52.017  47.348  1.00  0.00     0.069 C 
HETATM    6  C   UNL     1      18.222  52.677  48.653  1.00  0.00     0.237 C 
HETATM    7  N   UNL     1      16.733  52.550  48.827  1.00  0.00    -0.075 N 
HETATM    8  H   UNL     1      16.288  53.043  48.037  1.00  0.00     0.279 HD
HETATM    9  C   UNL     1      16.270  53.272  50.068  1.00  0.00     0.269 C 
HETATM   10  C   UNL     1      16.262  51.122  48.793  1.00  0.00     0.237 C 
HETATM   11  C   UNL     1      16.785  50.387  47.552  1.00  0.00     0.069 C 
BRANCH   4  12
HETATM   12  C   UNL     1      18.578  49.979  45.889  1.00  0.00     0.246 C 
HETATM   13  N   UNL     1      18.429  48.638  45.623  1.00  0.00    -0.354 N 
HETATM   14  H   UNL     1      18.177  48.001  46.374  1.00  0.00     0.162 HD
HETATM   15  O   UNL     1      18.703  50.805  44.983  1.00  0.00    -0.271 OA
BRANCH  13  16
HETATM   16  C   UNL     1      18.309  48.143  44.241  1.00  0.00     0.084 C 
HETATM   17  C   UNL     1      19.217  46.939  43.921  1.00  0.00     0.025 C 
HETATM   18  C   UNL     1      18.693  45.598  44.431  1.00  0.00     0.002 C 
HETATM   19  C   UNL     1      17.241  45.354  44.044  1.00  0.00     0.000 C 
HETATM   20  C   UNL     1      16.356  46.518  44.471  1.00  0.00     0.002 C 
HETATM   21  C   UNL     1      16.851  47.833  43.873  1.00  0.00     0.025 C 
ENDBRANCH  13  16
ENDBRANCH   4  12
ENDBRANCH   2   4
BRANCH   2  22
HETATM   22  C   UNL     1      18.440  48.817  49.382  1.00  0.00     0.192 C 
BRANCH  22  23
HETATM   23  C   UNL     1      18.196  47.446  48.857  1.00  0.00     0.070 A 
HETATM   24  O   UNL     1      19.283  46.638  48.711  1.00  0.00    -0.325 OA
HETATM   25  C   UNL     1      18.847  45.500  48.104  1.00  0.00     0.142 A 
HETATM   26  C   UNL     1      17.490  45.554  47.893  1.00  0.00     0.027 A 
HETATM   27  C   UNL     1      17.067  46.814  48.373  1.00  0.00     0.036 A 
ENDBRANCH  22  23
ENDBRANCH   2  22
BRANCH   1  28
HETATM   28  C   UNL     1      21.515  50.332  47.678  1.00  0.00     0.112 C 
BRANCH  28  29
HETATM   29  C   UNL     1      22.689  50.904  48.442  1.00  0.00     0.112 C 
BRANCH  29  30
HETATM   30  C   UNL     1      23.936  50.061  48.265  1.00  0.00     0.223 C 
HETATM   31  N   UNL     1      24.139  49.190  49.316  1.00  0.00    -0.310 N 
HETATM   32  H   UNL     1      23.538  49.225  50.129  1.00  0.00     0.170 HD
HETATM   33  O   UNL     1      24.621  50.196  47.259  1.00  0.00    -0.273 OA
BRANCH  31  34
HETATM   34  C   UNL     1      25.177  48.281  49.382  1.00  0.00     0.160 A 
HETATM   35  N   UNL     1      26.465  48.540  49.155  1.00  0.00    -0.110 NA
HETATM   36  O   UNL     1      27.138  47.348  49.334  1.00  0.00    -0.216 OA
HETATM   37  C   UNL     1      26.251  46.376  49.659  1.00  0.00     0.078 A 
HETATM   38  C   UNL     1      26.802  45.030  49.889  1.00  0.00     0.079 C 
HETATM   39  C   UNL     1      24.991  46.916  49.705  1.00  0.00     0.087 A 
ENDBRANCH  31  34
ENDBRANCH  29  30
ENDBRANCH  28  29
ENDBRANCH   1  28
TORSDOF 9
ENDMDL
MODEL 5
REMARK VINA RESULT:      -7.6     18.816     22.846
REMARK  9 active torsions:
REMARK  status: ('A' for Active; 'I' for Inactive)
REMARK    1  A    between atoms: C_5  and  N_6 
REMARK       I    between atoms: N_6  and  C_7 
REMARK    2  A    between atoms: C_7  and  C_8 
REMARK    3  A    between atoms: C_8  and  C_9 
REMARK    4  A    between atoms: C_9  and  C_10 
REMARK       I    between atoms: C_10  and  N_11 
REMARK    5  A    between atoms: N_11  and  C_12 
REMARK    6  A    between atoms: N_11  and  C_29 
REMARK    7  A    between atoms: C_12  and  C_13 
REMARK       I    between atoms: C_13  and  N_14 
REMARK    8  A    between atoms: N_14  and  C_15 
REMARK    9  A    between atoms: C_29  and  C_30 
ROOT
HETATM    1  C   UNL     1      39.156  44.128  66.839  1.00  0.00     0.221 C 
HETATM    2  N   UNL     1      38.827  44.214  65.481  1.00  0.00    -0.328 N 
HETATM    3  O   UNL     1      38.275  44.186  67.708  1.00  0.00    -0.273 OA
ENDROOT
BRANCH   2   4
HETATM    4  C   UNL     1      39.782  44.323  64.284  1.00  0.00     0.119 C 
HETATM    5  C   UNL     1      39.128  44.018  62.900  1.00  0.00     0.069 C 
HETATM    6  C   UNL     1      38.578  42.616  62.810  1.00  0.00     0.237 C 
HETATM    7  N   UNL     1      39.737  41.659  62.889  1.00  0.00    -0.075 N 
HETATM    8  H   UNL     1      40.353  41.854  62.084  1.00  0.00     0.279 HD
HETATM    9  C   UNL     1      39.275  40.234  62.710  1.00  0.00     0.269 C 
HETATM   10  C   UNL     1      40.555  41.837  64.139  1.00  0.00     0.237 C 
HETATM   11  C   UNL     1      40.973  43.301  64.333  1.00  0.00     0.069 C 
BRANCH   4  12
HETATM   12  C   UNL     1      40.474  45.723  64.149  1.00  0.00     0.246 C 
HETATM   13  N   UNL     1      39.833  46.821  64.674  1.00  0.00    -0.354 N 
HETATM   14  H   UNL     1      38.929  46.707  65.126  1.00  0.00     0.162 HD
HETATM   15  O   UNL     1      41.641  45.786  63.758  1.00  0.00    -0.271 OA
BRANCH  13  16
HETATM   16  C   UNL     1      40.545  48.093  64.884  1.00  0.00     0.084 C 
HETATM   17  C   UNL     1      39.748  49.341  64.455  1.00  0.00     0.025 C 
HETATM   18  C   UNL     1      38.684  49.787  65.456  1.00  0.00     0.002 C 
HETATM   19  C   UNL     1      39.228  49.901  66.874  1.00  0.00     0.000 C 
HETATM   20  C   UNL     1      39.916  48.611  67.302  1.00  0.00     0.002 C 
HETATM   21  C   UNL     1      41.035  48.236  66.332  1.00  0.00     0.025 C 
ENDBRANCH  13  16
ENDBRANCH   4  12
ENDBRANCH   2   4
BRANCH   2  22
HETATM   22  C   UNL     1      37.356  44.227  65.271  1.00  0.00     0.192 C 
BRANCH  22  23
HETATM   23  C   UNL     1      36.783  45.598  65.203  1.00  0.00     0.070 A 
HETATM   24  O   UNL     1      36.799  46.215  63.987  1.00  0.00    -0.325 OA
HETATM   25  C   UNL     1      36.354  47.486  64.187  1.00  0.00     0.142 A 
HETATM   26  C   UNL     1      36.018  47.679  65.505  1.00  0.00     0.027 A 
HETATM   27  C   UNL     1      36.301  46.463  66.165  1.00  0.00     0.036 A 
ENDBRANCH  22  23
ENDBRANCH   2  22
BRANCH   1  28
HETATM   28  C   UNL     1      40.549  43.852  67.349  1.00  0.00     0.112 C 
BRANCH  28  29
HETATM   29  C   UNL     1      40.979  44.947  68.300  1.00  0.00     0.112 C 
BRANCH  29  30
HETATM   30  C   UNL     1      42.413  45.369  68.057  1.00  0.00     0.223 C 
HETATM   31  N   UNL     1      42.804  45.182  66.747  1.00  0.00    -0.310 N 
HETATM   32  H   UNL     1      42.185  44.723  66.092  1.00  0.00     0.170 HD
HETATM   33  O   UNL     1      43.075  45.828  68.979  1.00  0.00    -0.273 OA
BRANCH  31  34
HETATM   34  C   UNL     1      44.047  45.525  66.250  1.00  0.00     0.160 A 
HETATM   35  N   UNL     1      45.086  44.703  66.093  1.00  0.00    -0.110 NA
HETATM   36  O   UNL     1      46.110  45.466  65.570  1.00  0.00    -0.216 OA
HETATM   37  C   UNL     1      45.686  46.746  65.424  1.00  0.00     0.078 A 
HETATM   38  C   UNL     1      46.659  47.705  64.873  1.00  0.00     0.079 C 
HETATM   39  C   UNL     1      44.382  46.837  65.840  1.00  0.00     0.087 A 
ENDBRANCH  31  34
ENDBRANCH  29  30
ENDBRANCH  28  29
ENDBRANCH   1  28
TORSDOF 9
ENDMDL
MODEL 6
REMARK VINA RESULT:      -7.3      7.363     11.264
REMARK  9 active torsions:
REMARK  status: ('A' for Active; 'I' for Inactive)
REMARK    1  A    between atoms: C_5  and  N_6 
REMARK       I    between atoms: N_6  and  C_7 
REMARK    2  A    between atoms: C_7  and  C_8 
REMARK    3  A    between atoms: C_8  and  C_9 
REMARK    4  A    between atoms: C_9  and  C_10 
REMARK       I    between atoms: C_10  and  N_11 
REMARK    5  A    between atoms: N_11  and  C_12 
REMARK    6  A    between atoms: N_11  and  C_29 
REMARK    7  A    between atoms: C_12  and  C_13 
REMARK       I    between atoms: C_13  and  N_14 
REMARK    8  A    between atoms: N_14  and  C_15 
REMARK    9  A    between atoms: C_29  and  C_30 
ROOT
HETATM    1  C   UNL     1      16.683  52.396  49.301  1.00  0.00     0.221 C 
HETATM    2  N   UNL     1      17.337  51.860  48.185  1.00  0.00    -0.328 N 
HETATM    3  O   UNL     1      17.278  53.154  50.080  1.00  0.00    -0.273 OA
ENDROOT
BRANCH   2   4
HETATM    4  C   UNL     1      16.822  50.791  47.212  1.00  0.00     0.119 C 
HETATM    5  C   UNL     1      17.616  50.692  45.873  1.00  0.00     0.069 C 
HETATM    6  C   UNL     1      17.576  51.971  45.074  1.00  0.00     0.237 C 
HETATM    7  N   UNL     1      16.153  52.201  44.642  1.00  0.00    -0.075 N 
HETATM    8  H   UNL     1      15.878  51.401  44.051  1.00  0.00     0.279 HD
HETATM    9  C   UNL     1      16.047  53.416  43.754  1.00  0.00     0.269 C 
HETATM   10  C   UNL     1      15.195  52.259  45.800  1.00  0.00     0.237 C 
HETATM   11  C   UNL     1      15.352  51.042  46.722  1.00  0.00     0.069 C 
BRANCH   4  12
HETATM   12  C   UNL     1      16.790  49.345  47.818  1.00  0.00     0.246 C 
HETATM   13  N   UNL     1      17.959  48.621  47.840  1.00  0.00    -0.354 N 
HETATM   14  H   UNL     1      18.810  49.028  47.462  1.00  0.00     0.162 HD
HETATM   15  O   UNL     1      15.787  48.965  48.424  1.00  0.00    -0.271 OA
BRANCH  13  16
HETATM   16  C   UNL     1      18.093  47.413  48.672  1.00  0.00     0.084 C 
HETATM   17  C   UNL     1      17.628  46.116  47.981  1.00  0.00     0.025 C 
HETATM   18  C   UNL     1      18.635  45.530  46.993  1.00  0.00     0.002 C 
HETATM   19  C   UNL     1      20.031  45.406  47.587  1.00  0.00     0.000 C 
HETATM   20  C   UNL     1      20.500  46.735  48.166  1.00  0.00     0.002 C 
HETATM   21  C   UNL     1      19.520  47.254  49.216  1.00  0.00     0.025 C 
ENDBRANCH  13  16
ENDBRANCH   4  12
ENDBRANCH   2   4
BRANCH   2  22
HETATM   22  C   UNL     1      18.699  52.432  48.020  1.00  0.00     0.192 C 
BRANCH  22  23
HETATM   23  C   UNL     1      19.772  51.570  48.585  1.00  0.00     0.070 A 
HETATM   24  O   UNL     1      19.840  51.478  49.943  1.00  0.00    -0.325 OA
HETATM   25  C   UNL     1      20.956  50.756  50.232  1.00  0.00     0.142 A 
HETATM   26  C   UNL     1      21.583  50.352  49.077  1.00  0.00     0.027 A 
HETATM   27  C   UNL     1      20.823  50.882  48.011  1.00  0.00     0.036 A 
ENDBRANCH  22  23
ENDBRANCH   2  22
BRANCH   1  28
HETATM   28  C   UNL     1      15.214  52.198  49.588  1.00  0.00     0.112 C 
BRANCH  28  29
HETATM   29  C   UNL     1      14.455  53.476  49.308  1.00  0.00     0.112 C 
BRANCH  29  30
HETATM   30  C   UNL     1      14.237  54.285  50.570  1.00  0.00     0.223 C 
HETATM   31  N   UNL     1      15.153  55.307  50.708  1.00  0.00    -0.310 N 
HETATM   32  H   UNL     1      15.919  55.396  50.052  1.00  0.00     0.170 HD
HETATM   33  O   UNL     1      13.313  53.999  51.322  1.00  0.00    -0.273 OA
BRANCH  31  34
HETATM   34  C   UNL     1      15.151  56.219  51.746  1.00  0.00     0.160 A 
HETATM   35  N   UNL     1      15.194  55.930  53.047  1.00  0.00    -0.110 NA
HETATM   36  O   UNL     1      15.174  57.138  53.714  1.00  0.00    -0.216 OA
HETATM   37  C   UNL     1      15.110  58.148  52.812  1.00  0.00     0.078 A 
HETATM   38  C   UNL     1      15.081  59.517  53.354  1.00  0.00     0.079 C 
HETATM   39  C   UNL     1      15.094  57.619  51.546  1.00  0.00     0.087 A 
ENDBRANCH  31  34
ENDBRANCH  29  30
ENDBRANCH  28  29
ENDBRANCH   1  28
TORSDOF 9
ENDMDL
MODEL 7
REMARK VINA RESULT:      -7.2     18.899     20.991
REMARK  9 active torsions:
REMARK  status: ('A' for Active; 'I' for Inactive)
REMARK    1  A    between atoms: C_5  and  N_6 
REMARK       I    between atoms: N_6  and  C_7 
REMARK    2  A    between atoms: C_7  and  C_8 
REMARK    3  A    between atoms: C_8  and  C_9 
REMARK    4  A    between atoms: C_9  and  C_10 
REMARK       I    between atoms: C_10  and  N_11 
REMARK    5  A    between atoms: N_11  and  C_12 
REMARK    6  A    between atoms: N_11  and  C_29 
REMARK    7  A    between atoms: C_12  and  C_13 
REMARK       I    between atoms: C_13  and  N_14 
REMARK    8  A    between atoms: N_14  and  C_15 
REMARK    9  A    between atoms: C_29  and  C_30 
ROOT
HETATM    1  C   UNL     1      36.972  45.098  67.400  1.00  0.00     0.221 C 
HETATM    2  N   UNL     1      38.064  45.749  66.811  1.00  0.00    -0.328 N 
HETATM    3  O   UNL     1      37.125  44.389  68.404  1.00  0.00    -0.273 OA
ENDROOT
BRANCH   2   4
HETATM    4  C   UNL     1      38.098  46.526  65.488  1.00  0.00     0.119 C 
HETATM    5  C   UNL     1      39.416  47.323  65.235  1.00  0.00     0.069 C 
HETATM    6  C   UNL     1      39.675  48.371  66.289  1.00  0.00     0.237 C 
HETATM    7  N   UNL     1      38.591  49.410  66.185  1.00  0.00    -0.075 N 
HETATM    8  H   UNL     1      38.653  49.826  65.243  1.00  0.00     0.279 HD
HETATM    9  C   UNL     1      38.836  50.545  67.148  1.00  0.00     0.269 C 
HETATM   10  C   UNL     1      37.212  48.827  66.333  1.00  0.00     0.237 C 
HETATM   11  C   UNL     1      36.998  47.640  65.384  1.00  0.00     0.069 C 
BRANCH   4  12
HETATM   12  C   UNL     1      37.870  45.632  64.221  1.00  0.00     0.246 C 
HETATM   13  N   UNL     1      38.625  44.491  64.083  1.00  0.00    -0.354 N 
HETATM   14  H   UNL     1      39.314  44.254  64.791  1.00  0.00     0.162 HD
HETATM   15  O   UNL     1      36.907  45.859  63.486  1.00  0.00    -0.271 OA
BRANCH  13  16
HETATM   16  C   UNL     1      38.253  43.442  63.117  1.00  0.00     0.084 C 
HETATM   17  C   UNL     1      39.444  42.614  62.596  1.00  0.00     0.025 C 
HETATM   18  C   UNL     1      39.934  41.534  63.559  1.00  0.00     0.002 C 
HETATM   19  C   UNL     1      38.801  40.662  64.082  1.00  0.00     0.000 C 
HETATM   20  C   UNL     1      37.690  41.511  64.686  1.00  0.00     0.002 C 
HETATM   21  C   UNL     1      37.157  42.522  63.672  1.00  0.00     0.025 C 
ENDBRANCH  13  16
ENDBRANCH   4  12
ENDBRANCH   2   4
BRANCH   2  22
HETATM   22  C   UNL     1      39.301  45.586  67.618  1.00  0.00     0.192 C 
BRANCH  22  23
HETATM   23  C   UNL     1      40.191  44.503  67.120  1.00  0.00     0.070 A 
HETATM   24  O   UNL     1      39.869  43.226  67.474  1.00  0.00    -0.325 OA
HETATM   25  C   UNL     1      40.877  42.429  67.025  1.00  0.00     0.142 A 
HETATM   26  C   UNL     1      41.820  43.172  66.356  1.00  0.00     0.027 A 
HETATM   27  C   UNL     1      41.382  44.514  66.421  1.00  0.00     0.036 A 
ENDBRANCH  22  23
ENDBRANCH   2  22
BRANCH   1  28
HETATM   28  C   UNL     1      35.543  45.284  66.950  1.00  0.00     0.112 C 
BRANCH  28  29
HETATM   29  C   UNL     1      35.109  44.106  66.106  1.00  0.00     0.112 C 
BRANCH  29  30
HETATM   30  C   UNL     1      34.310  43.103  66.914  1.00  0.00     0.223 C 
HETATM   31  N   UNL     1      33.839  43.633  68.097  1.00  0.00    -0.310 N 
HETATM   32  H   UNL     1      34.111  44.565  68.381  1.00  0.00     0.170 HD
HETATM   33  O   UNL     1      34.139  41.972  66.478  1.00  0.00    -0.273 OA
BRANCH  31  34
HETATM   34  C   UNL     1      33.047  42.945  68.996  1.00  0.00     0.160 A 
HETATM   35  N   UNL     1      33.431  41.922  69.761  1.00  0.00    -0.110 NA
HETATM   36  O   UNL     1      32.325  41.550  70.497  1.00  0.00    -0.216 OA
HETATM   37  C   UNL     1      31.277  42.345  70.166  1.00  0.00     0.078 A 
HETATM   38  C   UNL     1      30.006  42.087  70.863  1.00  0.00     0.079 C 
HETATM   39  C   UNL     1      31.684  43.250  69.217  1.00  0.00     0.087 A 
ENDBRANCH  31  34
ENDBRANCH  29  30
ENDBRANCH  28  29
ENDBRANCH   1  28
TORSDOF 9
ENDMDL
MODEL 8
REMARK VINA RESULT:      -7.2      6.266     12.507
REMARK  9 active torsions:
REMARK  status: ('A' for Active; 'I' for Inactive)
REMARK    1  A    between atoms: C_5  and  N_6 
REMARK       I    between atoms: N_6  and  C_7 
REMARK    2  A    between atoms: C_7  and  C_8 
REMARK    3  A    between atoms: C_8  and  C_9 
REMARK    4  A    between atoms: C_9  and  C_10 
REMARK       I    between atoms: C_10  and  N_11 
REMARK    5  A    between atoms: N_11  and  C_12 
REMARK    6  A    between atoms: N_11  and  C_29 
REMARK    7  A    between atoms: C_12  and  C_13 
REMARK       I    between atoms: C_13  and  N_14 
REMARK    8  A    between atoms: N_14  and  C_15 
REMARK    9  A    between atoms: C_29  and  C_30 
ROOT
HETATM    1  C   UNL     1      15.819  49.672  47.571  1.00  0.00     0.221 C 
HETATM    2  N   UNL     1      16.763  50.656  47.891  1.00  0.00    -0.328 N 
HETATM    3  O   UNL     1      15.252  49.025  48.463  1.00  0.00    -0.273 OA
ENDROOT
BRANCH   2   4
HETATM    4  C   UNL     1      17.675  51.436  46.934  1.00  0.00     0.119 C 
HETATM    5  C   UNL     1      18.580  50.546  46.027  1.00  0.00     0.069 C 
HETATM    6  C   UNL     1      19.527  49.679  46.818  1.00  0.00     0.237 C 
HETATM    7  N   UNL     1      20.496  50.583  47.531  1.00  0.00    -0.075 N 
HETATM    8  H   UNL     1      21.012  51.111  46.809  1.00  0.00     0.279 HD
HETATM    9  C   UNL     1      21.538  49.783  48.272  1.00  0.00     0.269 C 
HETATM   10  C   UNL     1      19.811  51.585  48.421  1.00  0.00     0.237 C 
HETATM   11  C   UNL     1      18.718  52.353  47.666  1.00  0.00     0.069 C 
BRANCH   4  12
HETATM   12  C   UNL     1      16.905  52.408  45.975  1.00  0.00     0.246 C 
HETATM   13  N   UNL     1      17.278  52.451  44.652  1.00  0.00    -0.354 N 
HETATM   14  H   UNL     1      18.042  51.865  44.325  1.00  0.00     0.162 HD
HETATM   15  O   UNL     1      15.877  52.961  46.371  1.00  0.00    -0.271 OA
BRANCH  13  16
HETATM   16  C   UNL     1      16.414  53.073  43.635  1.00  0.00     0.084 C 
HETATM   17  C   UNL     1      17.168  53.949  42.615  1.00  0.00     0.025 C 
HETATM   18  C   UNL     1      17.880  53.168  41.513  1.00  0.00     0.002 C 
HETATM   19  C   UNL     1      16.972  52.145  40.844  1.00  0.00     0.000 C 
HETATM   20  C   UNL     1      16.326  51.229  41.874  1.00  0.00     0.002 C 
HETATM   21  C   UNL     1      15.546  52.032  42.914  1.00  0.00     0.025 C 
ENDBRANCH  13  16
ENDBRANCH   4  12
ENDBRANCH   2   4
BRANCH   2  22
HETATM   22  C   UNL     1      16.844  50.883  49.357  1.00  0.00     0.192 C 
BRANCH  22  23
HETATM   23  C   UNL     1      16.112  52.097  49.806  1.00  0.00     0.070 A 
HETATM   24  O   UNL     1      14.767  51.973  49.997  1.00  0.00    -0.325 OA
HETATM   25  C   UNL     1      14.294  53.219  50.274  1.00  0.00     0.142 A 
HETATM   26  C   UNL     1      15.321  54.132  50.299  1.00  0.00     0.027 A 
HETATM   27  C   UNL     1      16.496  53.411  49.991  1.00  0.00     0.036 A 
ENDBRANCH  22  23
ENDBRANCH   2  22
BRANCH   1  28
HETATM   28  C   UNL     1      15.339  49.395  46.167  1.00  0.00     0.112 C 
BRANCH  28  29
HETATM   29  C   UNL     1      15.210  47.903  45.949  1.00  0.00     0.112 C 
BRANCH  29  30
HETATM   30  C   UNL     1      16.557  47.212  45.999  1.00  0.00     0.223 C 
HETATM   31  N   UNL     1      16.725  46.464  47.146  1.00  0.00    -0.310 N 
HETATM   32  H   UNL     1      16.026  46.490  47.877  1.00  0.00     0.170 HD
HETATM   33  O   UNL     1      17.344  47.349  45.071  1.00  0.00    -0.273 OA
BRANCH  31  34
HETATM   34  C   UNL     1      17.844  45.700  47.419  1.00  0.00     0.160 A 
HETATM   35  N   UNL     1      18.011  44.413  47.116  1.00  0.00    -0.110 NA
HETATM   36  O   UNL     1      19.267  44.066  47.571  1.00  0.00    -0.216 OA
HETATM   37  C   UNL     1      19.846  45.145  48.155  1.00  0.00     0.078 A 
HETATM   38  C   UNL     1      21.201  44.953  48.699  1.00  0.00     0.079 C 
HETATM   39  C   UNL     1      18.984  46.210  48.084  1.00  0.00     0.087 A 
ENDBRANCH  31  34
ENDBRANCH  29  30
ENDBRANCH  28  29
ENDBRANCH   1  28
TORSDOF 9
ENDMDL
MODEL 9
REMARK VINA RESULT:      -7.2      3.236     10.576
REMARK  9 active torsions:
REMARK  status: ('A' for Active; 'I' for Inactive)
REMARK    1  A    between atoms: C_5  and  N_6 
REMARK       I    between atoms: N_6  and  C_7 
REMARK    2  A    between atoms: C_7  and  C_8 
REMARK    3  A    between atoms: C_8  and  C_9 
REMARK    4  A    between atoms: C_9  and  C_10 
REMARK       I    between atoms: C_10  and  N_11 
REMARK    5  A    between atoms: N_11  and  C_12 
REMARK    6  A    between atoms: N_11  and  C_29 
REMARK    7  A    between atoms: C_12  and  C_13 
REMARK       I    between atoms: C_13  and  N_14 
REMARK    8  A    between atoms: N_14  and  C_15 
REMARK    9  A    between atoms: C_29  and  C_30 
ROOT
HETATM    1  C   UNL     1      21.658  50.055  48.707  1.00  0.00     0.221 C 
HETATM    2  N   UNL     1      20.400  49.439  48.732  1.00  0.00    -0.328 N 
HETATM    3  O   UNL     1      22.004  50.824  49.615  1.00  0.00    -0.273 OA
ENDROOT
BRANCH   2   4
HETATM    4  C   UNL     1      19.739  48.597  47.632  1.00  0.00     0.119 C 
HETATM    5  C   UNL     1      18.842  47.432  48.155  1.00  0.00     0.069 C 
HETATM    6  C   UNL     1      19.609  46.429  48.981  1.00  0.00     0.237 C 
HETATM    7  N   UNL     1      20.603  45.751  48.078  1.00  0.00    -0.075 N 
HETATM    8  H   UNL     1      20.069  45.271  47.337  1.00  0.00     0.279 HD
HETATM    9  C   UNL     1      21.346  44.663  48.812  1.00  0.00     0.269 C 
HETATM   10  C   UNL     1      21.536  46.722  47.406  1.00  0.00     0.237 C 
HETATM   11  C   UNL     1      20.766  47.851  46.709  1.00  0.00     0.069 C 
BRANCH   4  12
HETATM   12  C   UNL     1      18.855  49.429  46.641  1.00  0.00     0.246 C 
HETATM   13  N   UNL     1      17.530  49.086  46.503  1.00  0.00    -0.354 N 
HETATM   14  H   UNL     1      17.155  48.304  47.034  1.00  0.00     0.162 HD
HETATM   15  O   UNL     1      19.302  50.472  46.160  1.00  0.00    -0.271 OA
BRANCH  13  16
HETATM   16  C   UNL     1      16.568  49.999  45.863  1.00  0.00     0.084 C 
HETATM   17  C   UNL     1      16.411  49.786  44.344  1.00  0.00     0.025 C 
HETATM   18  C   UNL     1      15.525  48.603  43.959  1.00  0.00     0.002 C 
HETATM   19  C   UNL     1      14.188  48.615  44.687  1.00  0.00     0.000 C 
HETATM   20  C   UNL     1      14.386  48.719  46.193  1.00  0.00     0.002 C 
HETATM   21  C   UNL     1      15.199  49.960  46.557  1.00  0.00     0.025 C 
ENDBRANCH  13  16
ENDBRANCH   4  12
ENDBRANCH   2   4
BRANCH   2  22
HETATM   22  C   UNL     1      19.678  49.716  50.002  1.00  0.00     0.192 C 
BRANCH  22  23
HETATM   23  C   UNL     1      18.647  50.780  49.873  1.00  0.00     0.070 A 
HETATM   24  O   UNL     1      17.373  50.377  49.603  1.00  0.00    -0.325 OA
HETATM   25  C   UNL     1      16.639  51.505  49.401  1.00  0.00     0.142 A 
HETATM   26  C   UNL     1      17.416  52.625  49.575  1.00  0.00     0.027 A 
HETATM   27  C   UNL     1      18.716  52.159  49.873  1.00  0.00     0.036 A 
ENDBRANCH  22  23
ENDBRANCH   2  22
BRANCH   1  28
HETATM   28  C   UNL     1      22.714  49.764  47.669  1.00  0.00     0.112 C 
BRANCH  28  29
HETATM   29  C   UNL     1      24.037  50.359  48.096  1.00  0.00     0.112 C 
BRANCH  29  30
HETATM   30  C   UNL     1      24.914  49.334  48.786  1.00  0.00     0.223 C 
HETATM   31  N   UNL     1      24.193  48.475  49.590  1.00  0.00    -0.310 N 
HETATM   32  H   UNL     1      23.202  48.625  49.733  1.00  0.00     0.170 HD
HETATM   33  O   UNL     1      26.122  49.333  48.583  1.00  0.00    -0.273 OA
BRANCH  31  34
HETATM   34  C   UNL     1      24.744  47.423  50.296  1.00  0.00     0.160 A 
HETATM   35  N   UNL     1      25.610  47.521  51.305  1.00  0.00    -0.110 NA
HETATM   36  O   UNL     1      25.887  46.230  51.706  1.00  0.00    -0.216 OA
HETATM   37  C   UNL     1      25.193  45.360  50.930  1.00  0.00     0.078 A 
HETATM   38  C   UNL     1      25.370  43.928  51.223  1.00  0.00     0.079 C 
HETATM   39  C   UNL     1      24.449  46.067  50.019  1.00  0.00     0.087 A 
ENDBRANCH  31  34
ENDBRANCH  29  30
ENDBRANCH  28  29
ENDBRANCH   1  28
TORSDOF 9
ENDMDL
MODEL 10
REMARK VINA RESULT:      -7.1      2.937      9.315
REMARK  9 active torsions:
REMARK  status: ('A' for Active; 'I' for Inactive)
REMARK    1  A    between atoms: C_5  and  N_6 
REMARK       I    between atoms: N_6  and  C_7 
REMARK    2  A    between atoms: C_7  and  C_8 
REMARK    3  A    between atoms: C_8  and  C_9 
REMARK    4  A    between atoms: C_9  and  C_10 
REMARK       I    between atoms: C_10  and  N_11 
REMARK    5  A    between atoms: N_11  and  C_12 
REMARK    6  A    between atoms: N_11  and  C_29 
REMARK    7  A    between atoms: C_12  and  C_13 
REMARK       I    between atoms: C_13  and  N_14 
REMARK    8  A    between atoms: N_14  and  C_15 
REMARK    9  A    between atoms: C_29  and  C_30 
ROOT
HETATM    1  C   UNL     1      21.389  48.932  49.130  1.00  0.00     0.221 C 
HETATM    2  N   UNL     1      20.044  48.550  49.054  1.00  0.00    -0.328 N 
HETATM    3  O   UNL     1      21.753  49.808  49.928  1.00  0.00    -0.273 OA
ENDROOT
BRANCH   2   4
HETATM    4  C   UNL     1      19.385  47.615  48.031  1.00  0.00     0.119 C 
HETATM    5  C   UNL     1      19.460  48.109  46.552  1.00  0.00     0.069 C 
HETATM    6  C   UNL     1      18.769  49.433  46.344  1.00  0.00     0.237 C 
HETATM    7  N   UNL     1      17.298  49.231  46.589  1.00  0.00    -0.075 N 
HETATM    8  H   UNL     1      16.964  48.539  45.900  1.00  0.00     0.279 HD
HETATM    9  C   UNL     1      16.523  50.494  46.307  1.00  0.00     0.269 C 
HETATM   10  C   UNL     1      17.007  48.681  47.959  1.00  0.00     0.237 C 
HETATM   11  C   UNL     1      17.842  47.427  48.251  1.00  0.00     0.069 C 
BRANCH   4  12
HETATM   12  C   UNL     1      19.961  46.157  48.041  1.00  0.00     0.246 C 
HETATM   13  N   UNL     1      20.456  45.642  46.865  1.00  0.00    -0.354 N 
HETATM   14  H   UNL     1      20.433  46.206  46.020  1.00  0.00     0.162 HD
HETATM   15  O   UNL     1      20.134  45.582  49.117  1.00  0.00    -0.271 OA
BRANCH  13  16
HETATM   16  C   UNL     1      21.301  44.436  46.856  1.00  0.00     0.084 C 
HETATM   17  C   UNL     1      20.631  43.201  46.220  1.00  0.00     0.025 C 
HETATM   18  C   UNL     1      20.631  43.197  44.693  1.00  0.00     0.002 C 
HETATM   19  C   UNL     1      22.009  43.478  44.110  1.00  0.00     0.000 C 
HETATM   20  C   UNL     1      22.595  44.762  44.682  1.00  0.00     0.002 C 
HETATM   21  C   UNL     1      22.666  44.703  46.207  1.00  0.00     0.025 C 
ENDBRANCH  13  16
ENDBRANCH   4  12
ENDBRANCH   2   4
BRANCH   2  22
HETATM   22  C   UNL     1      19.226  49.202  50.110  1.00  0.00     0.192 C 
BRANCH  22  23
HETATM   23  C   UNL     1      18.820  50.592  49.766  1.00  0.00     0.070 A 
HETATM   24  O   UNL     1      17.641  51.038  50.285  1.00  0.00    -0.325 OA
HETATM   25  C   UNL     1      17.412  52.264  49.741  1.00  0.00     0.142 A 
HETATM   26  C   UNL     1      18.446  52.625  48.910  1.00  0.00     0.027 A 
HETATM   27  C   UNL     1      19.354  51.544  48.919  1.00  0.00     0.036 A 
ENDBRANCH  22  23
ENDBRANCH   2  22
BRANCH   1  28
HETATM   28  C   UNL     1      22.497  48.260  48.358  1.00  0.00     0.112 C 
BRANCH  28  29
HETATM   29  C   UNL     1      23.818  48.460  49.068  1.00  0.00     0.112 C 
BRANCH  29  30
HETATM   30  C   UNL     1      24.201  47.246  49.889  1.00  0.00     0.223 C 
HETATM   31  N   UNL     1      23.645  46.081  49.403  1.00  0.00    -0.310 N 
HETATM   32  H   UNL     1      22.987  46.114  48.634  1.00  0.00     0.170 HD
HETATM   33  O   UNL     1      24.941  47.377  50.857  1.00  0.00    -0.273 OA
BRANCH  31  34
HETATM   34  C   UNL     1      23.870  44.828  49.940  1.00  0.00     0.160 A 
HETATM   35  N   UNL     1      23.030  44.143  50.717  1.00  0.00    -0.110 NA
HETATM   36  O   UNL     1      23.661  42.953  51.016  1.00  0.00    -0.216 OA
HETATM   37  C   UNL     1      24.882  42.931  50.426  1.00  0.00     0.078 A 
HETATM   38  C   UNL     1      25.697  41.724  50.642  1.00  0.00     0.079 C 
HETATM   39  C   UNL     1      25.063  44.098  49.728  1.00  0.00     0.087 A 
ENDBRANCH  31  34
ENDBRANCH  29  30
ENDBRANCH  28  29
ENDBRANCH   1  28
TORSDOF 9
ENDMDL
