MODEL 1
REMARK VINA RESULT:      -9.1      0.000      0.000
REMARK  7 active torsions:
REMARK  status: ('A' for Active; 'I' for Inactive)
REMARK    1  A    between atoms: C_2  and  C_3 
REMARK    2  A    between atoms: C_4  and  N_5 
REMARK       I    between atoms: N_5  and  C_6 
REMARK    3  A    between atoms: C_6  and  C_7 
REMARK    4  A    between atoms: C_7  and  N_8 
REMARK    5  A    between atoms: N_12  and  C_13 
REMARK    6  A    between atoms: C_14  and  O_15 
REMARK    7  A    between atoms: C_24  and  C_25 
ROOT
HETATM    1  N   UNL     1      27.392  44.552  53.636  1.00  0.00    -0.325 N 
HETATM    2  C   UNL     1      26.139  44.189  54.098  1.00  0.00     0.248 C 
HETATM    3  O   UNL     1      25.889  43.556  55.122  1.00  0.00    -0.271 OA
HETATM    4  H   UNL     1      27.501  44.613  52.632  1.00  0.00     0.169 HD
ENDROOT
BRANCH   2   5
HETATM    5  C   UNL     1      24.997  44.640  53.184  1.00  0.00     0.337 C 
BRANCH   5   6
HETATM    6  N   UNL     1      25.504  45.348  51.936  1.00  0.00    -0.060 N 
HETATM    7  H   UNL     1      26.405  44.901  51.704  1.00  0.00     0.280 HD
HETATM    8  C   UNL     1      24.614  45.115  50.709  1.00  0.00     0.255 C 
HETATM    9  C   UNL     1      25.234  45.791  49.470  1.00  0.00     0.150 C 
HETATM   10  N   UNL     1      25.497  47.217  49.720  1.00  0.00    -0.375 N 
HETATM   11  C   UNL     1      26.326  47.505  50.905  1.00  0.00     0.150 C 
HETATM   12  C   UNL     1      25.738  46.834  52.163  1.00  0.00     0.255 C 
BRANCH  10  13
HETATM   13  C   UNL     1      24.614  48.212  49.280  1.00  0.00     0.064 A 
HETATM   14  C   UNL     1      25.043  49.279  48.441  1.00  0.00     0.094 A 
HETATM   15  C   UNL     1      24.144  50.278  48.038  1.00  0.00     0.039 A 
HETATM   16  C   UNL     1      22.806  50.223  48.417  1.00  0.00     0.003 A 
HETATM   17  C   UNL     1      22.356  49.169  49.199  1.00  0.00     0.002 A 
HETATM   18  C   UNL     1      23.248  48.179  49.620  1.00  0.00     0.032 A 
BRANCH  14  19
HETATM   19  O   UNL     1      26.362  49.259  48.040  1.00  0.00    -0.354 OA
HETATM   20  C   UNL     1      27.221  50.255  48.586  1.00  0.00     0.210 C 
ENDBRANCH  14  19
ENDBRANCH  10  13
ENDBRANCH   5   6
ENDBRANCH   2   5
BRANCH   1  21
HETATM   21  C   UNL     1      28.575  44.232  54.348  1.00  0.00     0.048 A 
HETATM   22  C   UNL     1      29.410  43.195  53.850  1.00  0.00    -0.027 A 
HETATM   23  C   UNL     1      30.604  42.913  54.538  1.00  0.00     0.010 A 
HETATM   24  C   UNL     1      30.982  43.644  55.658  1.00  0.00     0.001 A 
HETATM   25  C   UNL     1      30.169  44.670  56.123  1.00  0.00     0.010 A 
HETATM   26  C   UNL     1      28.955  44.990  55.485  1.00  0.00    -0.027 A 
BRANCH  22  27
HETATM   27  C   UNL     1      29.005  42.281  52.693  1.00  0.00     0.013 C 
HETATM   28  C   UNL     1      28.444  43.119  51.538  1.00  0.00     0.015 C 
HETATM   29  C   UNL     1      28.017  41.177  53.088  1.00  0.00     0.015 C 
ENDBRANCH  22  27
BRANCH  26  30
HETATM   30  C   UNL     1      28.176  46.201  55.996  1.00  0.00     0.013 C 
HETATM   31  C   UNL     1      28.543  46.563  57.439  1.00  0.00     0.015 C 
HETATM   32  C   UNL     1      28.363  47.408  55.069  1.00  0.00     0.015 C 
ENDBRANCH  26  30
ENDBRANCH   1  21
TORSDOF 7
ENDMDL
MODEL 2
REMARK VINA RESULT:      -8.9      0.679      2.893
REMARK  7 active torsions:
REMARK  status: ('A' for Active; 'I' for Inactive)
REMARK    1  A    between atoms: C_2  and  C_3 
REMARK    2  A    between atoms: C_4  and  N_5 
REMARK       I    between atoms: N_5  and  C_6 
REMARK    3  A    between atoms: C_6  and  C_7 
REMARK    4  A    between atoms: C_7  and  N_8 
REMARK    5  A    between atoms: N_12  and  C_13 
REMARK    6  A    between atoms: C_14  and  O_15 
REMARK    7  A    between atoms: C_24  and  C_25 
ROOT
HETATM    1  N   UNL     1      27.418  44.512  53.715  1.00  0.00    -0.325 N 
HETATM    2  C   UNL     1      26.218  44.015  54.192  1.00  0.00     0.248 C 
HETATM    3  O   UNL     1      26.055  43.341  55.208  1.00  0.00    -0.271 OA
HETATM    4  H   UNL     1      27.499  44.602  52.710  1.00  0.00     0.169 HD
ENDROOT
BRANCH   2   5
HETATM    5  C   UNL     1      25.017  44.365  53.310  1.00  0.00     0.337 C 
BRANCH   5   6
HETATM    6  N   UNL     1      25.427  45.121  52.053  1.00  0.00    -0.060 N 
HETATM    7  H   UNL     1      26.417  44.878  51.889  1.00  0.00     0.280 HD
HETATM    8  C   UNL     1      24.684  44.647  50.798  1.00  0.00     0.255 C 
HETATM    9  C   UNL     1      25.210  45.397  49.558  1.00  0.00     0.150 C 
HETATM   10  N   UNL     1      25.136  46.853  49.748  1.00  0.00    -0.375 N 
HETATM   11  C   UNL     1      25.810  47.365  50.957  1.00  0.00     0.150 C 
HETATM   12  C   UNL     1      25.313  46.628  52.216  1.00  0.00     0.255 C 
BRANCH  10  13
HETATM   13  C   UNL     1      24.083  47.608  49.217  1.00  0.00     0.064 A 
HETATM   14  C   UNL     1      24.228  48.992  48.914  1.00  0.00     0.094 A 
HETATM   15  C   UNL     1      23.147  49.731  48.408  1.00  0.00     0.039 A 
HETATM   16  C   UNL     1      21.925  49.115  48.153  1.00  0.00     0.003 A 
HETATM   17  C   UNL     1      21.773  47.759  48.399  1.00  0.00     0.002 A 
HETATM   18  C   UNL     1      22.839  47.019  48.920  1.00  0.00     0.032 A 
BRANCH  14  19
HETATM   19  O   UNL     1      25.473  49.544  49.125  1.00  0.00    -0.354 OA
HETATM   20  C   UNL     1      26.215  49.931  47.973  1.00  0.00     0.210 C 
ENDBRANCH  14  19
ENDBRANCH  10  13
ENDBRANCH   5   6
ENDBRANCH   2   5
BRANCH   1  21
HETATM   21  C   UNL     1      28.641  44.300  54.397  1.00  0.00     0.048 A 
HETATM   22  C   UNL     1      28.938  45.105  55.531  1.00  0.00    -0.027 A 
HETATM   23  C   UNL     1      30.135  44.860  56.228  1.00  0.00     0.010 A 
HETATM   24  C   UNL     1      30.997  43.840  55.845  1.00  0.00     0.001 A 
HETATM   25  C   UNL     1      30.687  43.044  54.749  1.00  0.00     0.010 A 
HETATM   26  C   UNL     1      29.511  43.250  54.003  1.00  0.00    -0.027 A 
BRANCH  22  27
HETATM   27  C   UNL     1      28.092  46.312  55.940  1.00  0.00     0.013 C 
HETATM   28  C   UNL     1      28.334  47.473  54.969  1.00  0.00     0.015 C 
HETATM   29  C   UNL     1      28.313  46.765  57.389  1.00  0.00     0.015 C 
ENDBRANCH  22  27
BRANCH  26  30
HETATM   30  C   UNL     1      29.193  42.264  52.881  1.00  0.00     0.013 C 
HETATM   31  C   UNL     1      28.305  41.109  53.355  1.00  0.00     0.015 C 
HETATM   32  C   UNL     1      28.560  42.979  51.680  1.00  0.00     0.015 C 
ENDBRANCH  26  30
ENDBRANCH   1  21
TORSDOF 7
ENDMDL
MODEL 3
REMARK VINA RESULT:      -8.6      2.542      9.163
REMARK  7 active torsions:
REMARK  status: ('A' for Active; 'I' for Inactive)
REMARK    1  A    between atoms: C_2  and  C_3 
REMARK    2  A    between atoms: C_4  and  N_5 
REMARK       I    between atoms: N_5  and  C_6 
REMARK    3  A    between atoms: C_6  and  C_7 
REMARK    4  A    between atoms: C_7  and  N_8 
REMARK    5  A    between atoms: N_12  and  C_13 
REMARK    6  A    between atoms: C_14  and  O_15 
REMARK    7  A    between atoms: C_24  and  C_25 
ROOT
HETATM    1  N   UNL     1      22.458  47.716  49.513  1.00  0.00    -0.325 N 
HETATM    2  C   UNL     1      23.806  47.980  49.343  1.00  0.00     0.248 C 
HETATM    3  O   UNL     1      24.332  48.515  48.369  1.00  0.00    -0.271 OA
HETATM    4  H   UNL     1      22.226  46.897  50.063  1.00  0.00     0.169 HD
ENDROOT
BRANCH   2   5
HETATM    5  C   UNL     1      24.672  47.518  50.518  1.00  0.00     0.337 C 
BRANCH   5   6
HETATM    6  N   UNL     1      25.049  46.047  50.412  1.00  0.00    -0.060 N 
HETATM    7  H   UNL     1      24.520  45.678  49.605  1.00  0.00     0.280 HD
HETATM    8  C   UNL     1      26.525  45.829  50.057  1.00  0.00     0.255 C 
HETATM    9  C   UNL     1      26.810  44.324  49.885  1.00  0.00     0.150 C 
HETATM   10  N   UNL     1      26.393  43.566  51.074  1.00  0.00    -0.375 N 
HETATM   11  C   UNL     1      24.988  43.758  51.481  1.00  0.00     0.150 C 
HETATM   12  C   UNL     1      24.666  45.256  51.653  1.00  0.00     0.255 C 
BRANCH  10  13
HETATM   13  C   UNL     1      27.313  43.183  52.058  1.00  0.00     0.064 A 
HETATM   14  C   UNL     1      27.718  41.828  52.220  1.00  0.00     0.094 A 
HETATM   15  C   UNL     1      28.621  41.467  53.233  1.00  0.00     0.039 A 
HETATM   16  C   UNL     1      29.169  42.434  54.071  1.00  0.00     0.003 A 
HETATM   17  C   UNL     1      28.822  43.765  53.904  1.00  0.00     0.002 A 
HETATM   18  C   UNL     1      27.910  44.132  52.909  1.00  0.00     0.032 A 
BRANCH  14  19
HETATM   19  O   UNL     1      27.197  40.915  51.329  1.00  0.00    -0.354 OA
HETATM   20  C   UNL     1      28.099  40.333  50.393  1.00  0.00     0.210 C 
ENDBRANCH  14  19
ENDBRANCH  10  13
ENDBRANCH   5   6
ENDBRANCH   2   5
BRANCH   1  21
HETATM   21  C   UNL     1      21.495  48.075  48.539  1.00  0.00     0.048 A 
HETATM   22  C   UNL     1      21.103  47.104  47.577  1.00  0.00    -0.027 A 
HETATM   23  C   UNL     1      20.115  47.455  46.640  1.00  0.00     0.010 A 
HETATM   24  C   UNL     1      19.508  48.705  46.664  1.00  0.00     0.001 A 
HETATM   25  C   UNL     1      19.883  49.639  47.622  1.00  0.00     0.010 A 
HETATM   26  C   UNL     1      20.876  49.352  48.577  1.00  0.00    -0.027 A 
BRANCH  22  27
HETATM   27  C   UNL     1      21.804  45.753  47.424  1.00  0.00     0.013 C 
HETATM   28  C   UNL     1      21.899  45.379  45.940  1.00  0.00     0.015 C 
HETATM   29  C   UNL     1      21.152  44.619  48.226  1.00  0.00     0.015 C 
ENDBRANCH  22  27
BRANCH  26  30
HETATM   30  C   UNL     1      21.151  50.393  49.660  1.00  0.00     0.013 C 
HETATM   31  C   UNL     1      22.368  51.266  49.333  1.00  0.00     0.015 C 
HETATM   32  C   UNL     1      19.913  51.262  49.917  1.00  0.00     0.015 C 
ENDBRANCH  26  30
ENDBRANCH   1  21
TORSDOF 7
ENDMDL
MODEL 4
REMARK VINA RESULT:      -8.6      2.642      9.663
REMARK  7 active torsions:
REMARK  status: ('A' for Active; 'I' for Inactive)
REMARK    1  A    between atoms: C_2  and  C_3 
REMARK    2  A    between atoms: C_4  and  N_5 
REMARK       I    between atoms: N_5  and  C_6 
REMARK    3  A    between atoms: C_6  and  C_7 
REMARK    4  A    between atoms: C_7  and  N_8 
REMARK    5  A    between atoms: N_12  and  C_13 
REMARK    6  A    between atoms: C_14  and  O_15 
REMARK    7  A    between atoms: C_24  and  C_25 
ROOT
HETATM    1  N   UNL     1      22.254  47.677  49.453  1.00  0.00    -0.325 N 
HETATM    2  C   UNL     1      23.599  47.864  49.188  1.00  0.00     0.248 C 
HETATM    3  O   UNL     1      24.088  48.313  48.152  1.00  0.00    -0.271 OA
HETATM    4  H   UNL     1      22.019  46.906  50.065  1.00  0.00     0.169 HD
ENDROOT
BRANCH   2   5
HETATM    5  C   UNL     1      24.514  47.432  50.337  1.00  0.00     0.337 C 
BRANCH   5   6
HETATM    6  N   UNL     1      24.892  45.960  50.249  1.00  0.00    -0.060 N 
HETATM    7  H   UNL     1      24.334  45.572  49.472  1.00  0.00     0.280 HD
HETATM    8  C   UNL     1      26.354  45.740  49.840  1.00  0.00     0.255 C 
HETATM    9  C   UNL     1      26.639  44.232  49.690  1.00  0.00     0.150 C 
HETATM   10  N   UNL     1      26.272  43.499  50.912  1.00  0.00    -0.375 N 
HETATM   11  C   UNL     1      24.884  43.695  51.371  1.00  0.00     0.150 C 
HETATM   12  C   UNL     1      24.563  45.196  51.521  1.00  0.00     0.255 C 
BRANCH  10  13
HETATM   13  C   UNL     1      27.233  43.141  51.867  1.00  0.00     0.064 A 
HETATM   14  C   UNL     1      27.669  41.796  52.025  1.00  0.00     0.094 A 
HETATM   15  C   UNL     1      28.613  41.460  53.009  1.00  0.00     0.039 A 
HETATM   16  C   UNL     1      29.171  42.444  53.820  1.00  0.00     0.003 A 
HETATM   17  C   UNL     1      28.793  43.767  53.655  1.00  0.00     0.002 A 
HETATM   18  C   UNL     1      27.841  44.108  52.690  1.00  0.00     0.032 A 
BRANCH  14  19
HETATM   19  O   UNL     1      27.136  40.866  51.159  1.00  0.00    -0.354 OA
HETATM   20  C   UNL     1      27.987  40.372  50.130  1.00  0.00     0.210 C 
ENDBRANCH  14  19
ENDBRANCH  10  13
ENDBRANCH   5   6
ENDBRANCH   2   5
BRANCH   1  21
HETATM   21  C   UNL     1      21.250  48.024  48.516  1.00  0.00     0.048 A 
HETATM   22  C   UNL     1      20.847  49.384  48.419  1.00  0.00    -0.027 A 
HETATM   23  C   UNL     1      19.881  49.727  47.456  1.00  0.00     0.010 A 
HETATM   24  C   UNL     1      19.349  48.774  46.596  1.00  0.00     0.001 A 
HETATM   25  C   UNL     1      19.766  47.451  46.684  1.00  0.00     0.010 A 
HETATM   26  C   UNL     1      20.719  47.044  47.637  1.00  0.00    -0.027 A 
BRANCH  22  27
HETATM   27  C   UNL     1      21.307  50.461  49.403  1.00  0.00     0.013 C 
HETATM   28  C   UNL     1      20.115  51.327  49.825  1.00  0.00     0.015 C 
HETATM   29  C   UNL     1      22.451  51.337  48.878  1.00  0.00     0.015 C 
ENDBRANCH  22  27
BRANCH  26  30
HETATM   30  C   UNL     1      21.200  45.596  47.594  1.00  0.00     0.013 C 
HETATM   31  C   UNL     1      20.040  44.599  47.488  1.00  0.00     0.015 C 
HETATM   32  C   UNL     1      22.206  45.381  46.456  1.00  0.00     0.015 C 
ENDBRANCH  26  30
ENDBRANCH   1  21
TORSDOF 7
ENDMDL
MODEL 5
REMARK VINA RESULT:      -8.4      2.219      8.949
REMARK  7 active torsions:
REMARK  status: ('A' for Active; 'I' for Inactive)
REMARK    1  A    between atoms: C_2  and  C_3 
REMARK    2  A    between atoms: C_4  and  N_5 
REMARK       I    between atoms: N_5  and  C_6 
REMARK    3  A    between atoms: C_6  and  C_7 
REMARK    4  A    between atoms: C_7  and  N_8 
REMARK    5  A    between atoms: N_12  and  C_13 
REMARK    6  A    between atoms: C_14  and  O_15 
REMARK    7  A    between atoms: C_24  and  C_25 
ROOT
HETATM    1  N   UNL     1      22.690  47.173  49.198  1.00  0.00    -0.325 N 
HETATM    2  C   UNL     1      22.658  46.199  48.215  1.00  0.00     0.248 C 
HETATM    3  O   UNL     1      22.373  46.362  47.030  1.00  0.00    -0.271 OA
HETATM    4  H   UNL     1      22.458  46.872  50.136  1.00  0.00     0.169 HD
ENDROOT
BRANCH   2   5
HETATM    5  C   UNL     1      23.006  44.800  48.729  1.00  0.00     0.337 C 
BRANCH   5   6
HETATM    6  N   UNL     1      24.079  44.834  49.809  1.00  0.00    -0.060 N 
HETATM    7  H   UNL     1      23.966  45.741  50.290  1.00  0.00     0.280 HD
HETATM    8  C   UNL     1      23.870  43.775  50.897  1.00  0.00     0.255 C 
HETATM    9  C   UNL     1      24.942  43.926  51.995  1.00  0.00     0.150 C 
HETATM   10  N   UNL     1      26.296  43.892  51.421  1.00  0.00    -0.375 N 
HETATM   11  C   UNL     1      26.549  44.872  50.347  1.00  0.00     0.150 C 
HETATM   12  C   UNL     1      25.485  44.754  49.236  1.00  0.00     0.255 C 
BRANCH  10  13
HETATM   13  C   UNL     1      27.069  42.725  51.436  1.00  0.00     0.064 A 
HETATM   14  C   UNL     1      27.844  42.352  52.571  1.00  0.00     0.094 A 
HETATM   15  C   UNL     1      28.632  41.190  52.549  1.00  0.00     0.039 A 
HETATM   16  C   UNL     1      28.638  40.359  51.434  1.00  0.00     0.003 A 
HETATM   17  C   UNL     1      27.857  40.679  50.333  1.00  0.00     0.002 A 
HETATM   18  C   UNL     1      27.083  41.843  50.339  1.00  0.00     0.032 A 
BRANCH  14  19
HETATM   19  O   UNL     1      27.759  43.172  53.675  1.00  0.00    -0.354 OA
HETATM   20  C   UNL     1      28.973  43.473  54.356  1.00  0.00     0.210 C 
ENDBRANCH  14  19
ENDBRANCH  10  13
ENDBRANCH   5   6
ENDBRANCH   2   5
BRANCH   1  21
HETATM   21  C   UNL     1      22.405  48.531  48.917  1.00  0.00     0.048 A 
HETATM   22  C   UNL     1      21.078  49.004  49.113  1.00  0.00    -0.027 A 
HETATM   23  C   UNL     1      20.813  50.365  48.873  1.00  0.00     0.010 A 
HETATM   24  C   UNL     1      21.821  51.239  48.483  1.00  0.00     0.001 A 
HETATM   25  C   UNL     1      23.118  50.771  48.316  1.00  0.00     0.010 A 
HETATM   26  C   UNL     1      23.443  49.417  48.527  1.00  0.00    -0.027 A 
BRANCH  22  27
HETATM   27  C   UNL     1      19.903  48.080  49.433  1.00  0.00     0.013 C 
HETATM   28  C   UNL     1      19.174  47.696  48.140  1.00  0.00     0.015 C 
HETATM   29  C   UNL     1      18.917  48.656  50.457  1.00  0.00     0.015 C 
ENDBRANCH  22  27
BRANCH  26  30
HETATM   30  C   UNL     1      24.911  49.009  48.426  1.00  0.00     0.013 C 
HETATM   31  C   UNL     1      25.801  50.155  47.933  1.00  0.00     0.015 C 
HETATM   32  C   UNL     1      25.424  48.458  49.762  1.00  0.00     0.015 C 
ENDBRANCH  26  30
ENDBRANCH   1  21
TORSDOF 7
ENDMDL
MODEL 6
REMARK VINA RESULT:      -8.3      2.483      8.522
REMARK  7 active torsions:
REMARK  status: ('A' for Active; 'I' for Inactive)
REMARK    1  A    between atoms: C_2  and  C_3 
REMARK    2  A    between atoms: C_4  and  N_5 
REMARK       I    between atoms: N_5  and  C_6 
REMARK    3  A    between atoms: C_6  and  C_7 
REMARK    4  A    between atoms: C_7  and  N_8 
REMARK    5  A    between atoms: N_12  and  C_13 
REMARK    6  A    between atoms: C_14  and  O_15 
REMARK    7  A    between atoms: C_24  and  C_25 
ROOT
HETATM    1  N   UNL     1      22.385  46.925  49.108  1.00  0.00    -0.325 N 
HETATM    2  C   UNL     1      22.362  45.996  48.083  1.00  0.00     0.248 C 
HETATM    3  O   UNL     1      22.511  46.223  46.883  1.00  0.00    -0.271 OA
HETATM    4  H   UNL     1      21.801  46.724  49.911  1.00  0.00     0.169 HD
ENDROOT
BRANCH   2   5
HETATM    5  C   UNL     1      22.105  44.565  48.561  1.00  0.00     0.337 C 
BRANCH   5   6
HETATM    6  N   UNL     1      23.392  43.848  48.947  1.00  0.00    -0.060 N 
HETATM    7  H   UNL     1      23.638  43.256  48.138  1.00  0.00     0.280 HD
HETATM    8  C   UNL     1      24.581  44.800  49.123  1.00  0.00     0.255 C 
HETATM    9  C   UNL     1      25.861  43.997  49.428  1.00  0.00     0.150 C 
HETATM   10  N   UNL     1      25.666  43.111  50.585  1.00  0.00    -0.375 N 
HETATM   11  C   UNL     1      24.518  42.189  50.486  1.00  0.00     0.150 C 
HETATM   12  C   UNL     1      23.221  42.961  50.170  1.00  0.00     0.255 C 
BRANCH  10  13
HETATM   13  C   UNL     1      26.109  43.469  51.865  1.00  0.00     0.064 A 
HETATM   14  C   UNL     1      27.373  43.048  52.367  1.00  0.00     0.094 A 
HETATM   15  C   UNL     1      27.780  43.398  53.665  1.00  0.00     0.039 A 
HETATM   16  C   UNL     1      26.974  44.199  54.468  1.00  0.00     0.003 A 
HETATM   17  C   UNL     1      25.758  44.657  53.983  1.00  0.00     0.002 A 
HETATM   18  C   UNL     1      25.337  44.299  52.700  1.00  0.00     0.032 A 
BRANCH  14  19
HETATM   19  O   UNL     1      28.163  42.308  51.515  1.00  0.00    -0.354 OA
HETATM   20  C   UNL     1      28.323  40.925  51.812  1.00  0.00     0.210 C 
ENDBRANCH  14  19
ENDBRANCH  10  13
ENDBRANCH   5   6
ENDBRANCH   2   5
BRANCH   1  21
HETATM   21  C   UNL     1      22.616  48.302  48.867  1.00  0.00     0.048 A 
HETATM   22  C   UNL     1      21.505  49.139  48.570  1.00  0.00    -0.027 A 
HETATM   23  C   UNL     1      21.739  50.512  48.375  1.00  0.00     0.010 A 
HETATM   24  C   UNL     1      23.013  51.053  48.496  1.00  0.00     0.001 A 
HETATM   25  C   UNL     1      24.088  50.230  48.809  1.00  0.00     0.010 A 
HETATM   26  C   UNL     1      23.920  48.845  49.002  1.00  0.00    -0.027 A 
BRANCH  22  27
HETATM   27  C   UNL     1      20.099  48.596  48.314  1.00  0.00     0.013 C 
HETATM   28  C   UNL     1      19.502  49.260  47.068  1.00  0.00     0.015 C 
HETATM   29  C   UNL     1      19.148  48.740  49.509  1.00  0.00     0.015 C 
ENDBRANCH  22  27
BRANCH  26  30
HETATM   30  C   UNL     1      25.134  48.032  49.447  1.00  0.00     0.013 C 
HETATM   31  C   UNL     1      26.456  48.754  49.159  1.00  0.00     0.015 C 
HETATM   32  C   UNL     1      25.033  47.656  50.930  1.00  0.00     0.015 C 
ENDBRANCH  26  30
ENDBRANCH   1  21
TORSDOF 7
ENDMDL
MODEL 7
REMARK VINA RESULT:      -8.1      4.893      8.750
REMARK  7 active torsions:
REMARK  status: ('A' for Active; 'I' for Inactive)
REMARK    1  A    between atoms: C_2  and  C_3 
REMARK    2  A    between atoms: C_4  and  N_5 
REMARK       I    between atoms: N_5  and  C_6 
REMARK    3  A    between atoms: C_6  and  C_7 
REMARK    4  A    between atoms: C_7  and  N_8 
REMARK    5  A    between atoms: N_12  and  C_13 
REMARK    6  A    between atoms: C_14  and  O_15 
REMARK    7  A    between atoms: C_24  and  C_25 
ROOT
HETATM    1  N   UNL     1      22.818  48.036  49.607  1.00  0.00    -0.325 N 
HETATM    2  C   UNL     1      22.959  49.147  48.795  1.00  0.00     0.248 C 
HETATM    3  O   UNL     1      23.604  49.215  47.749  1.00  0.00    -0.271 OA
HETATM    4  H   UNL     1      22.706  48.214  50.598  1.00  0.00     0.169 HD
ENDROOT
BRANCH   2   5
HETATM    5  C   UNL     1      22.225  50.384  49.318  1.00  0.00     0.337 C 
BRANCH   5   6
HETATM    6  N   UNL     1      20.717  50.182  49.363  1.00  0.00    -0.060 N 
HETATM    7  H   UNL     1      20.546  49.507  50.126  1.00  0.00     0.280 HD
HETATM    8  C   UNL     1      19.953  51.448  49.770  1.00  0.00     0.255 C 
HETATM    9  C   UNL     1      18.445  51.145  49.875  1.00  0.00     0.150 C 
HETATM   10  N   UNL     1      17.937  50.548  48.631  1.00  0.00    -0.375 N 
HETATM   11  C   UNL     1      18.651  49.341  48.173  1.00  0.00     0.150 C 
HETATM   12  C   UNL     1      20.166  49.608  48.067  1.00  0.00     0.255 C 
BRANCH  10  13
HETATM   13  C   UNL     1      17.270  51.318  47.669  1.00  0.00     0.064 A 
HETATM   14  C   UNL     1      15.943  51.791  47.874  1.00  0.00     0.094 A 
HETATM   15  C   UNL     1      15.288  52.537  46.881  1.00  0.00     0.039 A 
HETATM   16  C   UNL     1      15.939  52.864  45.695  1.00  0.00     0.003 A 
HETATM   17  C   UNL     1      17.247  52.452  45.492  1.00  0.00     0.002 A 
HETATM   18  C   UNL     1      17.901  51.693  46.468  1.00  0.00     0.032 A 
BRANCH  14  19
HETATM   19  O   UNL     1      15.360  51.495  49.087  1.00  0.00    -0.354 OA
HETATM   20  C   UNL     1      14.957  52.593  49.899  1.00  0.00     0.210 C 
ENDBRANCH  14  19
ENDBRANCH  10  13
ENDBRANCH   5   6
ENDBRANCH   2   5
BRANCH   1  21
HETATM   21  C   UNL     1      23.417  46.792  49.288  1.00  0.00     0.048 A 
HETATM   22  C   UNL     1      24.650  46.450  49.909  1.00  0.00    -0.027 A 
HETATM   23  C   UNL     1      25.216  45.195  49.619  1.00  0.00     0.010 A 
HETATM   24  C   UNL     1      24.580  44.294  48.774  1.00  0.00     0.001 A 
HETATM   25  C   UNL     1      23.365  44.630  48.190  1.00  0.00     0.010 A 
HETATM   26  C   UNL     1      22.756  45.876  48.429  1.00  0.00    -0.027 A 
BRANCH  22  27
HETATM   27  C   UNL     1      25.456  47.432  50.760  1.00  0.00     0.013 C 
HETATM   28  C   UNL     1      26.562  48.072  49.913  1.00  0.00     0.015 C 
HETATM   29  C   UNL     1      26.042  46.816  52.036  1.00  0.00     0.015 C 
ENDBRANCH  22  27
BRANCH  26  30
HETATM   30  C   UNL     1      21.371  46.122  47.834  1.00  0.00     0.013 C 
HETATM   31  C   UNL     1      21.329  45.852  46.326  1.00  0.00     0.015 C 
HETATM   32  C   UNL     1      20.303  45.299  48.564  1.00  0.00     0.015 C 
ENDBRANCH  26  30
ENDBRANCH   1  21
TORSDOF 7
ENDMDL
MODEL 8
REMARK VINA RESULT:      -8.1      2.670      5.328
REMARK  7 active torsions:
REMARK  status: ('A' for Active; 'I' for Inactive)
REMARK    1  A    between atoms: C_2  and  C_3 
REMARK    2  A    between atoms: C_4  and  N_5 
REMARK       I    between atoms: N_5  and  C_6 
REMARK    3  A    between atoms: C_6  and  C_7 
REMARK    4  A    between atoms: C_7  and  N_8 
REMARK    5  A    between atoms: N_12  and  C_13 
REMARK    6  A    between atoms: C_14  and  O_15 
REMARK    7  A    between atoms: C_24  and  C_25 
ROOT
HETATM    1  N   UNL     1      25.872  44.769  51.072  1.00  0.00    -0.325 N 
HETATM    2  C   UNL     1      26.409  45.704  50.205  1.00  0.00     0.248 C 
HETATM    3  O   UNL     1      27.243  45.496  49.325  1.00  0.00    -0.271 OA
HETATM    4  H   UNL     1      25.612  45.105  51.992  1.00  0.00     0.169 HD
ENDROOT
BRANCH   2   5
HETATM    5  C   UNL     1      25.878  47.122  50.431  1.00  0.00     0.337 C 
BRANCH   5   6
HETATM    6  N   UNL     1      24.920  47.560  49.331  1.00  0.00    -0.060 N 
HETATM    7  H   UNL     1      25.284  47.145  48.459  1.00  0.00     0.280 HD
HETATM    8  C   UNL     1      23.511  46.976  49.495  1.00  0.00     0.255 C 
HETATM    9  C   UNL     1      22.625  47.393  48.304  1.00  0.00     0.150 C 
HETATM   10  N   UNL     1      22.620  48.854  48.133  1.00  0.00    -0.375 N 
HETATM   11  C   UNL     1      23.951  49.477  47.999  1.00  0.00     0.150 C 
HETATM   12  C   UNL     1      24.867  49.071  49.172  1.00  0.00     0.255 C 
BRANCH  10  13
HETATM   13  C   UNL     1      21.574  49.644  48.626  1.00  0.00     0.064 A 
HETATM   14  C   UNL     1      20.292  49.664  48.007  1.00  0.00     0.094 A 
HETATM   15  C   UNL     1      19.269  50.488  48.505  1.00  0.00     0.039 A 
HETATM   16  C   UNL     1      19.477  51.268  49.638  1.00  0.00     0.003 A 
HETATM   17  C   UNL     1      20.703  51.231  50.283  1.00  0.00     0.002 A 
HETATM   18  C   UNL     1      21.733  50.428  49.784  1.00  0.00     0.032 A 
BRANCH  14  19
HETATM   19  O   UNL     1      20.114  48.830  46.925  1.00  0.00    -0.354 OA
HETATM   20  C   UNL     1      18.819  48.801  46.332  1.00  0.00     0.210 C 
ENDBRANCH  14  19
ENDBRANCH  10  13
ENDBRANCH   5   6
ENDBRANCH   2   5
BRANCH   1  21
HETATM   21  C   UNL     1      26.233  43.400  51.016  1.00  0.00     0.048 A 
HETATM   22  C   UNL     1      27.242  42.924  51.898  1.00  0.00    -0.027 A 
HETATM   23  C   UNL     1      27.564  41.555  51.865  1.00  0.00     0.010 A 
HETATM   24  C   UNL     1      26.898  40.677  51.018  1.00  0.00     0.001 A 
HETATM   25  C   UNL     1      25.899  41.149  50.177  1.00  0.00     0.010 A 
HETATM   26  C   UNL     1      25.542  42.511  50.153  1.00  0.00    -0.027 A 
BRANCH  22  27
HETATM   27  C   UNL     1      28.088  43.849  52.773  1.00  0.00     0.013 C 
HETATM   28  C   UNL     1      29.539  43.356  52.804  1.00  0.00     0.015 C 
HETATM   29  C   UNL     1      27.547  44.026  54.197  1.00  0.00     0.015 C 
ENDBRANCH  22  27
BRANCH  26  30
HETATM   30  C   UNL     1      24.361  42.926  49.278  1.00  0.00     0.013 C 
HETATM   31  C   UNL     1      24.235  42.059  48.020  1.00  0.00     0.015 C 
HETATM   32  C   UNL     1      23.052  42.918  50.077  1.00  0.00     0.015 C 
ENDBRANCH  26  30
ENDBRANCH   1  21
TORSDOF 7
ENDMDL
MODEL 9
REMARK VINA RESULT:      -8.1      3.100      6.787
REMARK  7 active torsions:
REMARK  status: ('A' for Active; 'I' for Inactive)
REMARK    1  A    between atoms: C_2  and  C_3 
REMARK    2  A    between atoms: C_4  and  N_5 
REMARK       I    between atoms: N_5  and  C_6 
REMARK    3  A    between atoms: C_6  and  C_7 
REMARK    4  A    between atoms: C_7  and  N_8 
REMARK    5  A    between atoms: N_12  and  C_13 
REMARK    6  A    between atoms: C_14  and  O_15 
REMARK    7  A    between atoms: C_24  and  C_25 
ROOT
HETATM    1  N   UNL     1      27.379  42.022  49.599  1.00  0.00    -0.325 N 
HETATM    2  C   UNL     1      26.033  42.194  49.871  1.00  0.00     0.248 C 
HETATM    3  O   UNL     1      25.272  41.363  50.364  1.00  0.00    -0.271 OA
HETATM    4  H   UNL     1      27.747  42.534  48.807  1.00  0.00     0.169 HD
ENDROOT
BRANCH   2   5
HETATM    5  C   UNL     1      25.502  43.576  49.481  1.00  0.00     0.337 C 
BRANCH   5   6
HETATM    6  N   UNL     1      25.267  44.465  50.694  1.00  0.00    -0.060 N 
HETATM    7  H   UNL     1      24.308  44.833  50.591  1.00  0.00     0.280 HD
HETATM    8  C   UNL     1      25.259  43.688  52.016  1.00  0.00     0.255 C 
HETATM    9  C   UNL     1      24.932  44.638  53.185  1.00  0.00     0.150 C 
HETATM   10  N   UNL     1      25.850  45.788  53.206  1.00  0.00    -0.375 N 
HETATM   11  C   UNL     1      25.921  46.559  51.950  1.00  0.00     0.150 C 
HETATM   12  C   UNL     1      26.237  45.635  50.756  1.00  0.00     0.255 C 
BRANCH  10  13
HETATM   13  C   UNL     1      26.959  45.824  54.060  1.00  0.00     0.064 A 
HETATM   14  C   UNL     1      27.139  46.864  55.015  1.00  0.00     0.094 A 
HETATM   15  C   UNL     1      28.275  46.891  55.839  1.00  0.00     0.039 A 
HETATM   16  C   UNL     1      29.226  45.878  55.767  1.00  0.00     0.003 A 
HETATM   17  C   UNL     1      29.051  44.831  54.875  1.00  0.00     0.002 A 
HETATM   18  C   UNL     1      27.932  44.806  54.038  1.00  0.00     0.032 A 
BRANCH  14  19
HETATM   19  O   UNL     1      26.141  47.812  55.093  1.00  0.00    -0.354 OA
HETATM   20  C   UNL     1      26.248  48.784  56.127  1.00  0.00     0.210 C 
ENDBRANCH  14  19
ENDBRANCH  10  13
ENDBRANCH   5   6
ENDBRANCH   2   5
BRANCH   1  21
HETATM   21  C   UNL     1      28.055  40.813  49.897  1.00  0.00     0.048 A 
HETATM   22  C   UNL     1      28.527  40.604  51.222  1.00  0.00    -0.027 A 
HETATM   23  C   UNL     1      29.159  39.383  51.519  1.00  0.00     0.010 A 
HETATM   24  C   UNL     1      29.298  38.389  50.559  1.00  0.00     0.001 A 
HETATM   25  C   UNL     1      28.814  38.595  49.273  1.00  0.00     0.010 A 
HETATM   26  C   UNL     1      28.184  39.801  48.911  1.00  0.00    -0.027 A 
BRANCH  22  27
HETATM   27  C   UNL     1      28.507  41.694  52.295  1.00  0.00     0.013 C 
HETATM   28  C   UNL     1      29.941  42.099  52.655  1.00  0.00     0.015 C 
HETATM   29  C   UNL     1      27.721  41.311  53.556  1.00  0.00     0.015 C 
ENDBRANCH  22  27
BRANCH  26  30
HETATM   30  C   UNL     1      27.586  39.903  47.509  1.00  0.00     0.013 C 
HETATM   31  C   UNL     1      28.363  39.072  46.482  1.00  0.00     0.015 C 
HETATM   32  C   UNL     1      26.102  39.515  47.512  1.00  0.00     0.015 C 
ENDBRANCH  26  30
ENDBRANCH   1  21
TORSDOF 7
ENDMDL
MODEL 10
REMARK VINA RESULT:      -8.1      3.017      9.421
REMARK  7 active torsions:
REMARK  status: ('A' for Active; 'I' for Inactive)
REMARK    1  A    between atoms: C_2  and  C_3 
REMARK    2  A    between atoms: C_4  and  N_5 
REMARK       I    between atoms: N_5  and  C_6 
REMARK    3  A    between atoms: C_6  and  C_7 
REMARK    4  A    between atoms: C_7  and  N_8 
REMARK    5  A    between atoms: N_12  and  C_13 
REMARK    6  A    between atoms: C_14  and  O_15 
REMARK    7  A    between atoms: C_24  and  C_25 
ROOT
HETATM    1  N   UNL     1      20.750  47.623  48.891  1.00  0.00    -0.325 N 
HETATM    2  C   UNL     1      21.580  46.876  48.075  1.00  0.00     0.248 C 
HETATM    3  O   UNL     1      21.900  47.139  46.916  1.00  0.00    -0.271 OA
HETATM    4  H   UNL     1      20.202  47.107  49.569  1.00  0.00     0.169 HD
ENDROOT
BRANCH   2   5
HETATM    5  C   UNL     1      22.105  45.601  48.739  1.00  0.00     0.337 C 
BRANCH   5   6
HETATM    6  N   UNL     1      23.597  45.677  49.034  1.00  0.00    -0.060 N 
HETATM    7  H   UNL     1      24.067  45.640  48.116  1.00  0.00     0.280 HD
HETATM    8  C   UNL     1      24.019  47.017  49.648  1.00  0.00     0.255 C 
HETATM    9  C   UNL     1      25.549  47.051  49.839  1.00  0.00     0.150 C 
HETATM   10  N   UNL     1      26.011  45.895  50.622  1.00  0.00    -0.375 N 
HETATM   11  C   UNL     1      25.610  44.577  50.095  1.00  0.00     0.150 C 
HETATM   12  C   UNL     1      24.084  44.513  49.882  1.00  0.00     0.255 C 
BRANCH  10  13
HETATM   13  C   UNL     1      26.275  45.999  51.994  1.00  0.00     0.064 A 
HETATM   14  C   UNL     1      27.081  45.044  52.677  1.00  0.00     0.094 A 
HETATM   15  C   UNL     1      27.307  45.157  54.058  1.00  0.00     0.039 A 
HETATM   16  C   UNL     1      26.782  46.227  54.777  1.00  0.00     0.003 A 
HETATM   17  C   UNL     1      26.031  47.192  54.124  1.00  0.00     0.002 A 
HETATM   18  C   UNL     1      25.785  47.078  52.753  1.00  0.00     0.032 A 
BRANCH  14  19
HETATM   19  O   UNL     1      27.630  44.037  51.914  1.00  0.00    -0.354 OA
HETATM   20  C   UNL     1      28.897  43.529  52.321  1.00  0.00     0.210 C 
ENDBRANCH  14  19
ENDBRANCH  10  13
ENDBRANCH   5   6
ENDBRANCH   2   5
BRANCH   1  21
HETATM   21  C   UNL     1      20.172  48.842  48.459  1.00  0.00     0.048 A 
HETATM   22  C   UNL     1      18.808  48.844  48.056  1.00  0.00    -0.027 A 
HETATM   23  C   UNL     1      18.230  50.067  47.669  1.00  0.00     0.010 A 
HETATM   24  C   UNL     1      18.954  51.252  47.705  1.00  0.00     0.001 A 
HETATM   25  C   UNL     1      20.279  51.242  48.122  1.00  0.00     0.010 A 
HETATM   26  C   UNL     1      20.918  50.048  48.508  1.00  0.00    -0.027 A 
BRANCH  22  27
HETATM   27  C   UNL     1      17.987  47.565  47.887  1.00  0.00     0.013 C 
HETATM   28  C   UNL     1      17.446  47.477  46.455  1.00  0.00     0.015 C 
HETATM   29  C   UNL     1      16.849  47.417  48.904  1.00  0.00     0.015 C 
ENDBRANCH  22  27
BRANCH  26  30
HETATM   30  C   UNL     1      22.341  50.142  49.054  1.00  0.00     0.013 C 
HETATM   31  C   UNL     1      23.361  50.492  47.965  1.00  0.00     0.015 C 
HETATM   32  C   UNL     1      22.421  51.140  50.216  1.00  0.00     0.015 C 
ENDBRANCH  26  30
ENDBRANCH   1  21
TORSDOF 7
ENDMDL
