MODEL 1
REMARK VINA RESULT:      -9.1      0.000      0.000
REMARK  6 active torsions:
REMARK  status: ('A' for Active; 'I' for Inactive)
REMARK    1  A    between atoms: C_4  and  C_5 
REMARK    2  A    between atoms: C_9  and  N_10 
REMARK       I    between atoms: N_10  and  C_11 
REMARK    3  A    between atoms: C_11  and  C_12 
REMARK    4  A    between atoms: C_12  and  C_13 
REMARK    5  A    between atoms: C_13  and  C_14 
REMARK    6  A    between atoms: C_13  and  C_20 
ROOT
HETATM    1  N   UNL     1      26.851  45.149  50.526  1.00  0.00    -0.312 N 
HETATM    2  C   UNL     1      26.850  44.475  51.729  1.00  0.00     0.224 C 
HETATM    3  O   UNL     1      25.893  44.484  52.508  1.00  0.00    -0.273 OA
HETATM    4  H   UNL     1      27.641  45.078  49.897  1.00  0.00     0.170 HD
ENDROOT
BRANCH   1   5
HETATM    5  C   UNL     1      25.782  45.913  50.100  1.00  0.00     0.132 A 
HETATM    6  N   UNL     1      24.517  45.424  49.911  1.00  0.00    -0.261 N 
HETATM    7  N   UNL     1      23.638  46.347  49.486  1.00  0.00    -0.170 NA
HETATM    8  H   UNL     1      24.214  44.464  50.055  1.00  0.00     0.191 HD
HETATM    9  C   UNL     1      24.363  47.473  49.425  1.00  0.00     0.120 A 
HETATM   10  C   UNL     1      25.725  47.257  49.796  1.00  0.00     0.017 A 
HETATM   11  C   UNL     1      26.812  48.265  49.856  1.00  0.00     0.055 C 
BRANCH   9  12
HETATM   12  C   UNL     1      23.762  48.781  49.021  1.00  0.00     0.106 A 
HETATM   13  O   UNL     1      22.539  49.242  49.433  1.00  0.00    -0.313 OA
HETATM   14  C   UNL     1      22.335  50.450  48.839  1.00  0.00     0.050 A 
HETATM   15  C   UNL     1      21.055  51.119  49.142  1.00  0.00     0.076 C 
HETATM   16  C   UNL     1      23.419  50.785  48.059  1.00  0.00     0.035 A 
HETATM   17  C   UNL     1      24.334  49.712  48.175  1.00  0.00     0.042 A 
ENDBRANCH   9  12
ENDBRANCH   1   5
BRANCH   2  18
HETATM   18  C   UNL     1      28.144  43.766  52.123  1.00  0.00     0.116 C 
BRANCH  18  19
HETATM   19  C   UNL     1      28.236  43.088  53.508  1.00  0.00     0.049 C 
BRANCH  19  20
HETATM   20  C   UNL     1      29.098  43.817  54.559  1.00  0.00    -0.050 A 
HETATM   21  C   UNL     1      30.276  43.280  55.108  1.00  0.00     0.008 A 
HETATM   22  C   UNL     1      31.015  43.980  56.070  1.00  0.00     0.001 A 
HETATM   23  C   UNL     1      30.609  45.244  56.483  1.00  0.00     0.000 A 
HETATM   24  C   UNL     1      29.476  45.819  55.921  1.00  0.00     0.001 A 
HETATM   25  C   UNL     1      28.739  45.119  54.961  1.00  0.00     0.008 A 
ENDBRANCH  19  20
BRANCH  19  26
HETATM   26  C   UNL     1      28.525  41.587  53.446  1.00  0.00    -0.027 C 
HETATM   27  C   UNL     1      28.763  40.841  52.357  1.00  0.00     0.007 C 
ENDBRANCH  19  26
ENDBRANCH  18  19
ENDBRANCH   2  18
TORSDOF 6
ENDMDL
MODEL 2
REMARK VINA RESULT:      -8.9      1.536      2.672
REMARK  6 active torsions:
REMARK  status: ('A' for Active; 'I' for Inactive)
REMARK    1  A    between atoms: C_4  and  C_5 
REMARK    2  A    between atoms: C_9  and  N_10 
REMARK       I    between atoms: N_10  and  C_11 
REMARK    3  A    between atoms: C_11  and  C_12 
REMARK    4  A    between atoms: C_12  and  C_13 
REMARK    5  A    between atoms: C_13  and  C_14 
REMARK    6  A    between atoms: C_13  and  C_20 
ROOT
HETATM    1  N   UNL     1      26.849  44.924  52.250  1.00  0.00    -0.312 N 
HETATM    2  C   UNL     1      26.662  44.393  53.508  1.00  0.00     0.224 C 
HETATM    3  O   UNL     1      25.549  44.232  54.017  1.00  0.00    -0.273 OA
HETATM    4  H   UNL     1      27.777  44.997  51.854  1.00  0.00     0.170 HD
ENDROOT
BRANCH   1   5
HETATM    5  C   UNL     1      25.799  45.345  51.457  1.00  0.00     0.132 A 
HETATM    6  N   UNL     1      24.720  44.565  51.136  1.00  0.00    -0.261 N 
HETATM    7  N   UNL     1      23.824  45.180  50.346  1.00  0.00    -0.170 NA
HETATM    8  H   UNL     1      24.560  43.606  51.431  1.00  0.00     0.191 HD
HETATM    9  C   UNL     1      24.338  46.406  50.176  1.00  0.00     0.120 A 
HETATM   10  C   UNL     1      25.587  46.565  50.849  1.00  0.00     0.017 A 
HETATM   11  C   UNL     1      26.438  47.780  50.894  1.00  0.00     0.055 C 
BRANCH   9  12
HETATM   12  C   UNL     1      23.636  47.455  49.373  1.00  0.00     0.106 A 
HETATM   13  O   UNL     1      23.861  48.803  49.476  1.00  0.00    -0.313 OA
HETATM   14  C   UNL     1      23.021  49.426  48.605  1.00  0.00     0.050 A 
HETATM   15  C   UNL     1      23.093  50.900  48.568  1.00  0.00     0.076 C 
HETATM   16  C   UNL     1      22.265  48.497  47.926  1.00  0.00     0.035 A 
HETATM   17  C   UNL     1      22.659  47.231  48.421  1.00  0.00     0.042 A 
ENDBRANCH   9  12
ENDBRANCH   1   5
BRANCH   2  18
HETATM   18  C   UNL     1      27.919  44.079  54.318  1.00  0.00     0.116 C 
BRANCH  18  19
HETATM   19  C   UNL     1      28.748  45.247  54.898  1.00  0.00     0.049 C 
BRANCH  19  20
HETATM   20  C   UNL     1      29.792  44.864  55.967  1.00  0.00    -0.050 A 
HETATM   21  C   UNL     1      29.944  45.546  57.188  1.00  0.00     0.008 A 
HETATM   22  C   UNL     1      30.918  45.164  58.118  1.00  0.00     0.001 A 
HETATM   23  C   UNL     1      31.744  44.076  57.862  1.00  0.00     0.000 A 
HETATM   24  C   UNL     1      31.582  43.353  56.686  1.00  0.00     0.001 A 
HETATM   25  C   UNL     1      30.610  43.736  55.758  1.00  0.00     0.008 A 
ENDBRANCH  19  20
BRANCH  19  26
HETATM   26  C   UNL     1      27.911  46.462  55.299  1.00  0.00    -0.027 C 
HETATM   27  C   UNL     1      27.895  47.675  54.725  1.00  0.00     0.007 C 
ENDBRANCH  19  26
ENDBRANCH  18  19
ENDBRANCH   2  18
TORSDOF 6
ENDMDL
MODEL 3
REMARK VINA RESULT:      -8.7      4.917      7.704
REMARK  6 active torsions:
REMARK  status: ('A' for Active; 'I' for Inactive)
REMARK    1  A    between atoms: C_4  and  C_5 
REMARK    2  A    between atoms: C_9  and  N_10 
REMARK       I    between atoms: N_10  and  C_11 
REMARK    3  A    between atoms: C_11  and  C_12 
REMARK    4  A    between atoms: C_12  and  C_13 
REMARK    5  A    between atoms: C_13  and  C_14 
REMARK    6  A    between atoms: C_13  and  C_20 
ROOT
HETATM    1  N   UNL     1      27.462  42.172  52.933  1.00  0.00    -0.312 N 
HETATM    2  C   UNL     1      28.305  43.216  53.251  1.00  0.00     0.224 C 
HETATM    3  O   UNL     1      29.415  43.372  52.733  1.00  0.00    -0.273 OA
HETATM    4  H   UNL     1      26.542  42.108  53.349  1.00  0.00     0.170 HD
ENDROOT
BRANCH   1   5
HETATM    5  C   UNL     1      27.802  41.194  52.019  1.00  0.00     0.132 A 
HETATM    6  N   UNL     1      28.949  40.449  52.083  1.00  0.00    -0.261 N 
HETATM    7  N   UNL     1      29.075  39.561  51.083  1.00  0.00    -0.170 NA
HETATM    8  H   UNL     1      29.675  40.520  52.792  1.00  0.00     0.191 HD
HETATM    9  C   UNL     1      27.954  39.729  50.366  1.00  0.00     0.120 A 
HETATM   10  C   UNL     1      27.117  40.750  50.907  1.00  0.00     0.017 A 
HETATM   11  C   UNL     1      25.802  41.204  50.390  1.00  0.00     0.055 C 
BRANCH   9  12
HETATM   12  C   UNL     1      27.659  38.903  49.154  1.00  0.00     0.106 A 
HETATM   13  O   UNL     1      26.778  37.855  49.116  1.00  0.00    -0.313 OA
HETATM   14  C   UNL     1      26.801  37.347  47.853  1.00  0.00     0.050 A 
HETATM   15  C   UNL     1      25.924  36.187  47.599  1.00  0.00     0.076 C 
HETATM   16  C   UNL     1      27.675  38.064  47.068  1.00  0.00     0.035 A 
HETATM   17  C   UNL     1      28.227  39.063  47.905  1.00  0.00     0.042 A 
ENDBRANCH   9  12
ENDBRANCH   1   5
BRANCH   2  18
HETATM   18  C   UNL     1      27.847  44.158  54.363  1.00  0.00     0.116 C 
BRANCH  18  19
HETATM   19  C   UNL     1      28.781  45.307  54.805  1.00  0.00     0.049 C 
BRANCH  19  20
HETATM   20  C   UNL     1      29.767  44.972  55.943  1.00  0.00    -0.050 A 
HETATM   21  C   UNL     1      30.720  43.940  55.869  1.00  0.00     0.008 A 
HETATM   22  C   UNL     1      31.584  43.670  56.937  1.00  0.00     0.001 A 
HETATM   23  C   UNL     1      31.533  44.441  58.092  1.00  0.00     0.000 A 
HETATM   24  C   UNL     1      30.634  45.498  58.173  1.00  0.00     0.001 A 
HETATM   25  C   UNL     1      29.773  45.766  57.106  1.00  0.00     0.008 A 
ENDBRANCH  19  20
BRANCH  19  26
HETATM   26  C   UNL     1      28.064  46.641  55.019  1.00  0.00    -0.027 C 
HETATM   27  C   UNL     1      27.059  47.158  54.297  1.00  0.00     0.007 C 
ENDBRANCH  19  26
ENDBRANCH  18  19
ENDBRANCH   2  18
TORSDOF 6
ENDMDL
MODEL 4
REMARK VINA RESULT:      -8.5      4.835      7.076
REMARK  6 active torsions:
REMARK  status: ('A' for Active; 'I' for Inactive)
REMARK    1  A    between atoms: C_4  and  C_5 
REMARK    2  A    between atoms: C_9  and  N_10 
REMARK       I    between atoms: N_10  and  C_11 
REMARK    3  A    between atoms: C_11  and  C_12 
REMARK    4  A    between atoms: C_12  and  C_13 
REMARK    5  A    between atoms: C_13  and  C_14 
REMARK    6  A    between atoms: C_13  and  C_20 
ROOT
HETATM    1  N   UNL     1      27.561  42.072  52.912  1.00  0.00    -0.312 N 
HETATM    2  C   UNL     1      28.145  43.305  53.111  1.00  0.00     0.224 C 
HETATM    3  O   UNL     1      28.938  43.815  52.314  1.00  0.00    -0.273 OA
HETATM    4  H   UNL     1      26.882  41.712  53.570  1.00  0.00     0.170 HD
ENDROOT
BRANCH   1   5
HETATM    5  C   UNL     1      27.834  41.290  51.807  1.00  0.00     0.132 A 
HETATM    6  N   UNL     1      28.635  40.180  51.831  1.00  0.00    -0.261 N 
HETATM    7  N   UNL     1      28.764  39.579  50.637  1.00  0.00    -0.170 NA
HETATM    8  H   UNL     1      29.116  39.802  52.643  1.00  0.00     0.191 HD
HETATM    9  C   UNL     1      27.997  40.320  49.824  1.00  0.00     0.120 A 
HETATM   10  C   UNL     1      27.390  41.416  50.506  1.00  0.00     0.017 A 
HETATM   11  C   UNL     1      26.476  42.437  49.937  1.00  0.00     0.055 C 
BRANCH   9  12
HETATM   12  C   UNL     1      27.822  39.983  48.377  1.00  0.00     0.106 A 
HETATM   13  O   UNL     1      28.327  40.715  47.335  1.00  0.00    -0.313 OA
HETATM   14  C   UNL     1      27.940  40.106  46.181  1.00  0.00     0.050 A 
HETATM   15  C   UNL     1      28.372  40.751  44.925  1.00  0.00     0.076 C 
HETATM   16  C   UNL     1      27.204  38.978  46.462  1.00  0.00     0.035 A 
HETATM   17  C   UNL     1      27.126  38.900  47.874  1.00  0.00     0.042 A 
ENDBRANCH   9  12
ENDBRANCH   1   5
BRANCH   2  18
HETATM   18  C   UNL     1      27.841  44.007  54.434  1.00  0.00     0.116 C 
BRANCH  18  19
HETATM   19  C   UNL     1      28.688  45.232  54.846  1.00  0.00     0.049 C 
BRANCH  19  20
HETATM   20  C   UNL     1      29.672  45.007  56.012  1.00  0.00    -0.050 A 
HETATM   21  C   UNL     1      29.659  45.761  57.199  1.00  0.00     0.008 A 
HETATM   22  C   UNL     1      30.585  45.524  58.222  1.00  0.00     0.001 A 
HETATM   23  C   UNL     1      31.526  44.510  58.094  1.00  0.00     0.000 A 
HETATM   24  C   UNL     1      31.531  43.717  56.953  1.00  0.00     0.001 A 
HETATM   25  C   UNL     1      30.606  43.955  55.932  1.00  0.00     0.008 A 
ENDBRANCH  19  20
BRANCH  19  26
HETATM   26  C   UNL     1      27.881  46.522  54.994  1.00  0.00    -0.027 C 
HETATM   27  C   UNL     1      26.724  46.841  54.395  1.00  0.00     0.007 C 
ENDBRANCH  19  26
ENDBRANCH  18  19
ENDBRANCH   2  18
TORSDOF 6
ENDMDL
MODEL 5
REMARK VINA RESULT:      -8.4      1.653      2.550
REMARK  6 active torsions:
REMARK  status: ('A' for Active; 'I' for Inactive)
REMARK    1  A    between atoms: C_4  and  C_5 
REMARK    2  A    between atoms: C_9  and  N_10 
REMARK       I    between atoms: N_10  and  C_11 
REMARK    3  A    between atoms: C_11  and  C_12 
REMARK    4  A    between atoms: C_12  and  C_13 
REMARK    5  A    between atoms: C_13  and  C_14 
REMARK    6  A    between atoms: C_13  and  C_20 
ROOT
HETATM    1  N   UNL     1      25.290  44.274  50.874  1.00  0.00    -0.312 N 
HETATM    2  C   UNL     1      26.288  43.457  50.384  1.00  0.00     0.224 C 
HETATM    3  O   UNL     1      27.220  43.869  49.689  1.00  0.00    -0.273 OA
HETATM    4  H   UNL     1      24.570  43.900  51.478  1.00  0.00     0.170 HD
ENDROOT
BRANCH   1   5
HETATM    5  C   UNL     1      25.240  45.627  50.606  1.00  0.00     0.132 A 
HETATM    6  N   UNL     1      26.148  46.537  51.077  1.00  0.00    -0.261 N 
HETATM    7  N   UNL     1      25.897  47.800  50.695  1.00  0.00    -0.170 NA
HETATM    8  H   UNL     1      26.951  46.337  51.667  1.00  0.00     0.191 HD
HETATM    9  C   UNL     1      24.800  47.690  49.932  1.00  0.00     0.120 A 
HETATM   10  C   UNL     1      24.338  46.342  49.845  1.00  0.00     0.017 A 
HETATM   11  C   UNL     1      23.166  45.839  49.087  1.00  0.00     0.055 C 
BRANCH   9  12
HETATM   12  C   UNL     1      24.181  48.874  49.261  1.00  0.00     0.106 A 
HETATM   13  O   UNL     1      22.948  49.391  49.563  1.00  0.00    -0.313 OA
HETATM   14  C   UNL     1      22.729  50.443  48.728  1.00  0.00     0.050 A 
HETATM   15  C   UNL     1      21.436  51.140  48.880  1.00  0.00     0.076 C 
HETATM   16  C   UNL     1      23.812  50.625  47.898  1.00  0.00     0.035 A 
HETATM   17  C   UNL     1      24.743  49.615  48.239  1.00  0.00     0.042 A 
ENDBRANCH   9  12
ENDBRANCH   1   5
BRANCH   2  18
HETATM   18  C   UNL     1      26.153  41.961  50.663  1.00  0.00     0.116 C 
BRANCH  18  19
HETATM   19  C   UNL     1      27.264  41.243  51.461  1.00  0.00     0.049 C 
BRANCH  19  20
HETATM   20  C   UNL     1      28.002  42.102  52.508  1.00  0.00    -0.050 A 
HETATM   21  C   UNL     1      27.353  42.787  53.551  1.00  0.00     0.008 A 
HETATM   22  C   UNL     1      28.071  43.566  54.468  1.00  0.00     0.001 A 
HETATM   23  C   UNL     1      29.455  43.654  54.380  1.00  0.00     0.000 A 
HETATM   24  C   UNL     1      30.127  42.948  53.388  1.00  0.00     0.001 A 
HETATM   25  C   UNL     1      29.409  42.172  52.474  1.00  0.00     0.008 A 
ENDBRANCH  19  20
BRANCH  19  26
HETATM   26  C   UNL     1      28.218  40.421  50.594  1.00  0.00    -0.027 C 
HETATM   27  C   UNL     1      28.312  40.413  49.255  1.00  0.00     0.007 C 
ENDBRANCH  19  26
ENDBRANCH  18  19
ENDBRANCH   2  18
TORSDOF 6
ENDMDL
MODEL 6
REMARK VINA RESULT:      -8.3     17.131     19.473
REMARK  6 active torsions:
REMARK  status: ('A' for Active; 'I' for Inactive)
REMARK    1  A    between atoms: C_4  and  C_5 
REMARK    2  A    between atoms: C_9  and  N_10 
REMARK       I    between atoms: N_10  and  C_11 
REMARK    3  A    between atoms: C_11  and  C_12 
REMARK    4  A    between atoms: C_12  and  C_13 
REMARK    5  A    between atoms: C_13  and  C_14 
REMARK    6  A    between atoms: C_13  and  C_20 
ROOT
HETATM    1  N   UNL     1      37.685  46.179  63.647  1.00  0.00    -0.312 N 
HETATM    2  C   UNL     1      37.324  47.014  64.684  1.00  0.00     0.224 C 
HETATM    3  O   UNL     1      36.956  46.603  65.788  1.00  0.00    -0.273 OA
HETATM    4  H   UNL     1      38.024  46.560  62.773  1.00  0.00     0.170 HD
ENDROOT
BRANCH   1   5
HETATM    5  C   UNL     1      37.643  44.803  63.753  1.00  0.00     0.132 A 
HETATM    6  N   UNL     1      36.508  44.088  64.024  1.00  0.00    -0.261 N 
HETATM    7  N   UNL     1      36.705  42.761  64.087  1.00  0.00    -0.170 NA
HETATM    8  H   UNL     1      35.578  44.469  64.179  1.00  0.00     0.191 HD
HETATM    9  C   UNL     1      38.012  42.621  63.822  1.00  0.00     0.120 A 
HETATM   10  C   UNL     1      38.656  43.876  63.608  1.00  0.00     0.017 A 
HETATM   11  C   UNL     1      40.085  44.113  63.284  1.00  0.00     0.055 C 
BRANCH   9  12
HETATM   12  C   UNL     1      38.667  41.278  63.756  1.00  0.00     0.106 A 
HETATM   13  O   UNL     1      38.888  40.460  64.833  1.00  0.00    -0.313 OA
HETATM   14  C   UNL     1      39.521  39.344  64.377  1.00  0.00     0.050 A 
HETATM   15  C   UNL     1      39.868  38.329  65.390  1.00  0.00     0.076 C 
HETATM   16  C   UNL     1      39.699  39.422  63.014  1.00  0.00     0.035 A 
HETATM   17  C   UNL     1      39.152  40.665  62.616  1.00  0.00     0.042 A 
ENDBRANCH   9  12
ENDBRANCH   1   5
BRANCH   2  18
HETATM   18  C   UNL     1      37.307  48.513  64.388  1.00  0.00     0.116 C 
BRANCH  18  19
HETATM   19  C   UNL     1      38.324  49.430  65.102  1.00  0.00     0.049 C 
BRANCH  19  20
HETATM   20  C   UNL     1      39.610  48.744  65.606  1.00  0.00    -0.050 A 
HETATM   21  C   UNL     1      40.009  48.729  66.955  1.00  0.00     0.008 A 
HETATM   22  C   UNL     1      41.195  48.102  67.356  1.00  0.00     0.001 A 
HETATM   23  C   UNL     1      41.995  47.452  66.424  1.00  0.00     0.000 A 
HETATM   24  C   UNL     1      41.600  47.409  65.091  1.00  0.00     0.001 A 
HETATM   25  C   UNL     1      40.417  48.036  64.692  1.00  0.00     0.008 A 
ENDBRANCH  19  20
BRANCH  19  26
HETATM   26  C   UNL     1      37.699  50.353  66.149  1.00  0.00    -0.027 C 
HETATM   27  C   UNL     1      37.847  51.681  66.268  1.00  0.00     0.007 C 
ENDBRANCH  19  26
ENDBRANCH  18  19
ENDBRANCH   2  18
TORSDOF 6
ENDMDL
MODEL 7
REMARK VINA RESULT:      -8.3      4.464      6.965
REMARK  6 active torsions:
REMARK  status: ('A' for Active; 'I' for Inactive)
REMARK    1  A    between atoms: C_4  and  C_5 
REMARK    2  A    between atoms: C_9  and  N_10 
REMARK       I    between atoms: N_10  and  C_11 
REMARK    3  A    between atoms: C_11  and  C_12 
REMARK    4  A    between atoms: C_12  and  C_13 
REMARK    5  A    between atoms: C_13  and  C_14 
REMARK    6  A    between atoms: C_13  and  C_20 
ROOT
HETATM    1  N   UNL     1      27.298  43.575  52.688  1.00  0.00    -0.312 N 
HETATM    2  C   UNL     1      26.268  44.136  53.413  1.00  0.00     0.224 C 
HETATM    3  O   UNL     1      25.083  44.058  53.077  1.00  0.00    -0.273 OA
HETATM    4  H   UNL     1      28.251  43.625  53.024  1.00  0.00     0.170 HD
ENDROOT
BRANCH   1   5
HETATM    5  C   UNL     1      27.090  42.894  51.504  1.00  0.00     0.132 A 
HETATM    6  N   UNL     1      26.309  43.357  50.479  1.00  0.00    -0.261 N 
HETATM    7  N   UNL     1      26.245  42.523  49.428  1.00  0.00    -0.170 NA
HETATM    8  H   UNL     1      25.799  44.236  50.461  1.00  0.00     0.191 HD
HETATM    9  C   UNL     1      27.033  41.500  49.786  1.00  0.00     0.120 A 
HETATM   10  C   UNL     1      27.588  41.676  51.088  1.00  0.00     0.017 A 
HETATM   11  C   UNL     1      28.508  40.760  51.807  1.00  0.00     0.055 C 
BRANCH   9  12
HETATM   12  C   UNL     1      27.279  40.336  48.879  1.00  0.00     0.106 A 
HETATM   13  O   UNL     1      26.737  39.088  49.040  1.00  0.00    -0.313 OA
HETATM   14  C   UNL     1      27.211  38.302  48.035  1.00  0.00     0.050 A 
HETATM   15  C   UNL     1      26.756  36.898  48.033  1.00  0.00     0.076 C 
HETATM   16  C   UNL     1      28.041  39.031  47.213  1.00  0.00     0.035 A 
HETATM   17  C   UNL     1      28.086  40.337  47.757  1.00  0.00     0.042 A 
ENDBRANCH   9  12
ENDBRANCH   1   5
BRANCH   2  18
HETATM   18  C   UNL     1      26.657  44.960  54.639  1.00  0.00     0.116 C 
BRANCH  18  19
HETATM   19  C   UNL     1      27.985  45.749  54.623  1.00  0.00     0.049 C 
BRANCH  19  20
HETATM   20  C   UNL     1      29.133  45.151  55.462  1.00  0.00    -0.050 A 
HETATM   21  C   UNL     1      29.576  45.700  56.679  1.00  0.00     0.008 A 
HETATM   22  C   UNL     1      30.633  45.124  57.395  1.00  0.00     0.001 A 
HETATM   23  C   UNL     1      31.251  43.971  56.926  1.00  0.00     0.000 A 
HETATM   24  C   UNL     1      30.801  43.380  55.752  1.00  0.00     0.001 A 
HETATM   25  C   UNL     1      29.747  43.956  55.038  1.00  0.00     0.008 A 
ENDBRANCH  19  20
BRANCH  19  26
HETATM   26  C   UNL     1      27.816  47.253  54.840  1.00  0.00    -0.027 C 
HETATM   27  C   UNL     1      26.680  47.927  55.074  1.00  0.00     0.007 C 
ENDBRANCH  19  26
ENDBRANCH  18  19
ENDBRANCH   2  18
TORSDOF 6
ENDMDL
MODEL 8
REMARK VINA RESULT:      -8.2      4.955      5.954
REMARK  6 active torsions:
REMARK  status: ('A' for Active; 'I' for Inactive)
REMARK    1  A    between atoms: C_4  and  C_5 
REMARK    2  A    between atoms: C_9  and  N_10 
REMARK       I    between atoms: N_10  and  C_11 
REMARK    3  A    between atoms: C_11  and  C_12 
REMARK    4  A    between atoms: C_12  and  C_13 
REMARK    5  A    between atoms: C_13  and  C_14 
REMARK    6  A    between atoms: C_13  and  C_20 
ROOT
HETATM    1  N   UNL     1      28.803  41.846  51.676  1.00  0.00    -0.312 N 
HETATM    2  C   UNL     1      28.775  41.670  53.044  1.00  0.00     0.224 C 
HETATM    3  O   UNL     1      27.917  40.998  53.622  1.00  0.00    -0.273 OA
HETATM    4  H   UNL     1      29.552  42.369  51.240  1.00  0.00     0.170 HD
ENDROOT
BRANCH   1   5
HETATM    5  C   UNL     1      27.853  41.298  50.837  1.00  0.00     0.132 A 
HETATM    6  N   UNL     1      27.598  39.956  50.740  1.00  0.00    -0.261 N 
HETATM    7  N   UNL     1      26.636  39.651  49.852  1.00  0.00    -0.170 NA
HETATM    8  H   UNL     1      28.062  39.215  51.258  1.00  0.00     0.191 HD
HETATM    9  C   UNL     1      26.247  40.845  49.383  1.00  0.00     0.120 A 
HETATM   10  C   UNL     1      26.984  41.920  49.964  1.00  0.00     0.017 A 
HETATM   11  C   UNL     1      26.825  43.371  49.696  1.00  0.00     0.055 C 
BRANCH   9  12
HETATM   12  C   UNL     1      25.150  40.979  48.375  1.00  0.00     0.106 A 
HETATM   13  O   UNL     1      25.300  40.803  47.024  1.00  0.00    -0.313 OA
HETATM   14  C   UNL     1      24.090  41.030  46.444  1.00  0.00     0.050 A 
HETATM   15  C   UNL     1      24.036  40.906  44.974  1.00  0.00     0.076 C 
HETATM   16  C   UNL     1      23.153  41.337  47.404  1.00  0.00     0.035 A 
HETATM   17  C   UNL     1      23.834  41.306  48.644  1.00  0.00     0.042 A 
ENDBRANCH   9  12
ENDBRANCH   1   5
BRANCH   2  18
HETATM   18  C   UNL     1      29.821  42.430  53.858  1.00  0.00     0.116 C 
BRANCH  18  19
HETATM   19  C   UNL     1      29.475  43.836  54.398  1.00  0.00     0.049 C 
BRANCH  19  20
HETATM   20  C   UNL     1      30.139  44.225  55.735  1.00  0.00    -0.050 A 
HETATM   21  C   UNL     1      29.822  45.393  56.451  1.00  0.00     0.008 A 
HETATM   22  C   UNL     1      30.466  45.705  57.655  1.00  0.00     0.001 A 
HETATM   23  C   UNL     1      31.420  44.844  58.184  1.00  0.00     0.000 A 
HETATM   24  C   UNL     1      31.717  43.658  57.521  1.00  0.00     0.001 A 
HETATM   25  C   UNL     1      31.074  43.349  56.320  1.00  0.00     0.008 A 
ENDBRANCH  19  20
BRANCH  19  26
HETATM   26  C   UNL     1      27.981  44.164  54.363  1.00  0.00    -0.027 C 
HETATM   27  C   UNL     1      27.353  45.050  53.576  1.00  0.00     0.007 C 
ENDBRANCH  19  26
ENDBRANCH  18  19
ENDBRANCH   2  18
TORSDOF 6
ENDMDL
MODEL 9
REMARK VINA RESULT:      -8.2      4.841      6.082
REMARK  6 active torsions:
REMARK  status: ('A' for Active; 'I' for Inactive)
REMARK    1  A    between atoms: C_4  and  C_5 
REMARK    2  A    between atoms: C_9  and  N_10 
REMARK       I    between atoms: N_10  and  C_11 
REMARK    3  A    between atoms: C_11  and  C_12 
REMARK    4  A    between atoms: C_12  and  C_13 
REMARK    5  A    between atoms: C_13  and  C_14 
REMARK    6  A    between atoms: C_13  and  C_20 
ROOT
HETATM    1  N   UNL     1      28.817  42.078  51.675  1.00  0.00    -0.312 N 
HETATM    2  C   UNL     1      28.975  41.923  53.036  1.00  0.00     0.224 C 
HETATM    3  O   UNL     1      28.233  41.220  53.727  1.00  0.00    -0.273 OA
HETATM    4  H   UNL     1      29.476  42.629  51.139  1.00  0.00     0.170 HD
ENDROOT
BRANCH   1   5
HETATM    5  C   UNL     1      27.794  41.474  50.971  1.00  0.00     0.132 A 
HETATM    6  N   UNL     1      27.484  40.143  51.058  1.00  0.00    -0.261 N 
HETATM    7  N   UNL     1      26.455  39.774  50.278  1.00  0.00    -0.170 NA
HETATM    8  H   UNL     1      27.955  39.452  51.636  1.00  0.00     0.191 HD
HETATM    9  C   UNL     1      26.078  40.917  49.688  1.00  0.00     0.120 A 
HETATM   10  C   UNL     1      26.891  42.022  50.083  1.00  0.00     0.017 A 
HETATM   11  C   UNL     1      26.766  43.434  49.646  1.00  0.00     0.055 C 
BRANCH   9  12
HETATM   12  C   UNL     1      24.921  40.975  48.742  1.00  0.00     0.106 A 
HETATM   13  O   UNL     1      24.907  40.425  47.487  1.00  0.00    -0.313 OA
HETATM   14  C   UNL     1      23.696  40.705  46.931  1.00  0.00     0.050 A 
HETATM   15  C   UNL     1      23.477  40.209  45.558  1.00  0.00     0.076 C 
HETATM   16  C   UNL     1      22.919  41.416  47.817  1.00  0.00     0.035 A 
HETATM   17  C   UNL     1      23.707  41.591  48.979  1.00  0.00     0.042 A 
ENDBRANCH   9  12
ENDBRANCH   1   5
BRANCH   2  18
HETATM   18  C   UNL     1      30.080  42.743  53.700  1.00  0.00     0.116 C 
BRANCH  18  19
HETATM   19  C   UNL     1      29.752  43.547  54.977  1.00  0.00     0.049 C 
BRANCH  19  20
HETATM   20  C   UNL     1      28.834  44.772  54.784  1.00  0.00    -0.050 A 
HETATM   21  C   UNL     1      29.060  46.019  55.393  1.00  0.00     0.008 A 
HETATM   22  C   UNL     1      28.187  47.095  55.194  1.00  0.00     0.001 A 
HETATM   23  C   UNL     1      27.083  46.957  54.361  1.00  0.00     0.000 A 
HETATM   24  C   UNL     1      26.862  45.750  53.708  1.00  0.00     0.001 A 
HETATM   25  C   UNL     1      27.735  44.677  53.908  1.00  0.00     0.008 A 
ENDBRANCH  19  20
BRANCH  19  26
HETATM   26  C   UNL     1      30.972  43.855  55.846  1.00  0.00    -0.027 C 
HETATM   27  C   UNL     1      31.412  43.176  56.916  1.00  0.00     0.007 C 
ENDBRANCH  19  26
ENDBRANCH  18  19
ENDBRANCH   2  18
TORSDOF 6
ENDMDL
MODEL 10
REMARK VINA RESULT:      -8.0      1.517      2.504
REMARK  6 active torsions:
REMARK  status: ('A' for Active; 'I' for Inactive)
REMARK    1  A    between atoms: C_4  and  C_5 
REMARK    2  A    between atoms: C_9  and  N_10 
REMARK       I    between atoms: N_10  and  C_11 
REMARK    3  A    between atoms: C_11  and  C_12 
REMARK    4  A    between atoms: C_12  and  C_13 
REMARK    5  A    between atoms: C_13  and  C_14 
REMARK    6  A    between atoms: C_13  and  C_20 
ROOT
HETATM    1  N   UNL     1      27.669  44.540  51.063  1.00  0.00    -0.312 N 
HETATM    2  C   UNL     1      27.642  43.382  51.811  1.00  0.00     0.224 C 
HETATM    3  O   UNL     1      26.644  42.663  51.910  1.00  0.00    -0.273 OA
HETATM    4  H   UNL     1      28.523  45.075  50.973  1.00  0.00     0.170 HD
ENDROOT
BRANCH   1   5
HETATM    5  C   UNL     1      26.566  45.006  50.375  1.00  0.00     0.132 A 
HETATM    6  N   UNL     1      25.939  44.317  49.371  1.00  0.00    -0.261 N 
HETATM    7  N   UNL     1      24.891  44.968  48.840  1.00  0.00    -0.170 NA
HETATM    8  H   UNL     1      26.200  43.401  49.016  1.00  0.00     0.191 HD
HETATM    9  C   UNL     1      24.832  46.105  49.547  1.00  0.00     0.120 A 
HETATM   10  C   UNL     1      25.867  46.187  50.526  1.00  0.00     0.017 A 
HETATM   11  C   UNL     1      26.110  47.287  51.491  1.00  0.00     0.055 C 
BRANCH   9  12
HETATM   12  C   UNL     1      23.772  47.132  49.306  1.00  0.00     0.106 A 
HETATM   13  O   UNL     1      23.886  48.463  49.610  1.00  0.00    -0.313 OA
HETATM   14  C   UNL     1      22.715  49.065  49.265  1.00  0.00     0.050 A 
HETATM   15  C   UNL     1      22.623  50.515  49.527  1.00  0.00     0.076 C 
HETATM   16  C   UNL     1      21.847  48.142  48.726  1.00  0.00     0.035 A 
HETATM   17  C   UNL     1      22.526  46.900  48.754  1.00  0.00     0.042 A 
ENDBRANCH   9  12
ENDBRANCH   1   5
BRANCH   2  18
HETATM   18  C   UNL     1      28.900  43.050  52.612  1.00  0.00     0.116 C 
BRANCH  18  19
HETATM   19  C   UNL     1      28.983  43.484  54.092  1.00  0.00     0.049 C 
BRANCH  19  20
HETATM   20  C   UNL     1      28.229  44.780  54.456  1.00  0.00    -0.050 A 
HETATM   21  C   UNL     1      28.867  46.006  54.715  1.00  0.00     0.008 A 
HETATM   22  C   UNL     1      28.135  47.150  55.055  1.00  0.00     0.001 A 
HETATM   23  C   UNL     1      26.747  47.102  55.115  1.00  0.00     0.000 A 
HETATM   24  C   UNL     1      26.088  45.915  54.816  1.00  0.00     0.001 A 
HETATM   25  C   UNL     1      26.820  44.774  54.478  1.00  0.00     0.008 A 
ENDBRANCH  19  20
BRANCH  19  26
HETATM   26  C   UNL     1      30.397  43.441  54.673  1.00  0.00    -0.027 C 
HETATM   27  C   UNL     1      30.760  43.165  55.935  1.00  0.00     0.007 C 
ENDBRANCH  19  26
ENDBRANCH  18  19
ENDBRANCH   2  18
TORSDOF 6
ENDMDL
