MODEL 1
REMARK VINA RESULT:      -9.3      0.000      0.000
REMARK  8 active torsions:
REMARK  status: ('A' for Active; 'I' for Inactive)
REMARK    1  A    between atoms: C_2  and  O_3 
REMARK    2  A    between atoms: O_3  and  C_4 
REMARK    3  A    between atoms: C_5  and  O_6 
REMARK    4  A    between atoms: O_6  and  C_7 
REMARK    5  A    between atoms: C_7  and  C_8 
REMARK       I    between atoms: C_8  and  N_9 
REMARK    6  A    between atoms: C_13  and  C_14 
REMARK    7  A    between atoms: C_21  and  C_22 
REMARK       I    between atoms: C_22  and  N_23 
REMARK    8  A    between atoms: N_23  and  C_24 
ROOT
HETATM    1  C   UNL     1      24.228  43.081  50.502  1.00  0.00     0.160 C 
HETATM    2  N   UNL     1      23.060  42.443  49.923  1.00  0.00    -0.330 N 
HETATM    3  C   UNL     1      23.075  41.648  48.823  1.00  0.00     0.321 C 
HETATM    4  O   UNL     1      22.037  41.263  48.297  1.00  0.00    -0.247 OA
HETATM    5  N   UNL     1      24.302  41.285  48.350  1.00  0.00    -0.312 N 
HETATM    6  C   UNL     1      25.507  41.660  48.895  1.00  0.00     0.024 C 
HETATM    7  C   UNL     1      26.732  41.082  48.248  1.00  0.00     0.069 C 
HETATM    8  C   UNL     1      25.492  42.498  49.945  1.00  0.00     0.059 C 
HETATM    9  H   UNL     1      22.141  42.742  50.218  1.00  0.00     0.165 HD
HETATM   10  H   UNL     1      24.277  40.676  47.540  1.00  0.00     0.170 HD
ENDROOT
BRANCH   1  11
HETATM   11  C   UNL     1      24.149  44.593  50.358  1.00  0.00    -0.028 A 
HETATM   12  C   UNL     1      23.540  45.190  49.244  1.00  0.00     0.012 A 
HETATM   13  C   UNL     1      23.530  46.577  49.101  1.00  0.00     0.040 A 
HETATM   14  C   UNL     1      24.155  47.379  50.058  1.00  0.00     0.102 A 
HETATM   15  C   UNL     1      24.760  46.810  51.190  1.00  0.00     0.102 A 
HETATM   16  C   UNL     1      24.753  45.419  51.328  1.00  0.00     0.049 A 
BRANCH  14  17
HETATM   17  O   UNL     1      24.152  48.748  49.955  1.00  0.00    -0.339 OA
BRANCH  17  18
HETATM   18  C   UNL     1      24.182  49.204  48.600  1.00  0.00     0.278 C 
BRANCH  18  19
HETATM   19  C   UNL     1      25.594  49.667  48.256  1.00  0.00     0.239 C 
HETATM   20  N   UNL     1      26.587  49.130  49.028  1.00  0.00    -0.368 N 
HETATM   21  H   UNL     1      26.339  48.661  49.894  1.00  0.00     0.159 HD
HETATM   22  H   UNL     1      27.531  49.462  48.894  1.00  0.00     0.159 HD
HETATM   23  O   UNL     1      25.853  50.418  47.321  1.00  0.00    -0.271 OA
ENDBRANCH  18  19
ENDBRANCH  17  18
ENDBRANCH  14  17
BRANCH  15  24
HETATM   24  O   UNL     1      25.347  47.691  52.061  1.00  0.00    -0.349 OA
BRANCH  24  25
HETATM   25  C   UNL     1      26.367  47.227  52.945  1.00  0.00     0.171 C 
HETATM   26  C   UNL     1      26.082  47.644  54.378  1.00  0.00     0.034 C 
ENDBRANCH  24  25
ENDBRANCH  15  24
ENDBRANCH   1  11
BRANCH   8  27
HETATM   27  C   UNL     1      26.758  42.949  50.570  1.00  0.00     0.256 C 
HETATM   28  N   UNL     1      26.906  42.447  51.845  1.00  0.00    -0.323 N 
HETATM   29  H   UNL     1      26.210  41.780  52.152  1.00  0.00     0.169 HD
HETATM   30  O   UNL     1      27.526  43.661  49.940  1.00  0.00    -0.267 OA
BRANCH  28  31
HETATM   31  C   UNL     1      27.953  42.718  52.760  1.00  0.00     0.041 A 
HETATM   32  C   UNL     1      27.651  43.399  53.960  1.00  0.00    -0.035 A 
HETATM   33  C   UNL     1      26.255  43.839  54.313  1.00  0.00     0.050 C 
HETATM   34  C   UNL     1      28.685  43.679  54.873  1.00  0.00     0.009 A 
HETATM   35  C   UNL     1      29.997  43.298  54.608  1.00  0.00     0.001 A 
HETATM   36  C   UNL     1      30.294  42.634  53.426  1.00  0.00     0.002 A 
HETATM   37  C   UNL     1      29.280  42.347  52.509  1.00  0.00     0.030 A 
ENDBRANCH  28  31
ENDBRANCH   8  27
TORSDOF 8
ENDMDL
MODEL 2
REMARK VINA RESULT:      -8.7      3.142      7.164
REMARK  8 active torsions:
REMARK  status: ('A' for Active; 'I' for Inactive)
REMARK    1  A    between atoms: C_2  and  O_3 
REMARK    2  A    between atoms: O_3  and  C_4 
REMARK    3  A    between atoms: C_5  and  O_6 
REMARK    4  A    between atoms: O_6  and  C_7 
REMARK    5  A    between atoms: C_7  and  C_8 
REMARK       I    between atoms: C_8  and  N_9 
REMARK    6  A    between atoms: C_13  and  C_14 
REMARK    7  A    between atoms: C_21  and  C_22 
REMARK       I    between atoms: C_22  and  N_23 
REMARK    8  A    between atoms: N_23  and  C_24 
ROOT
HETATM    1  C   UNL     1      27.764  44.243  51.264  1.00  0.00     0.160 C 
HETATM    2  N   UNL     1      27.214  45.008  50.161  1.00  0.00    -0.330 N 
HETATM    3  C   UNL     1      26.102  45.783  50.233  1.00  0.00     0.321 C 
HETATM    4  O   UNL     1      25.604  46.283  49.230  1.00  0.00    -0.247 OA
HETATM    5  N   UNL     1      25.583  45.992  51.476  1.00  0.00    -0.312 N 
HETATM    6  C   UNL     1      26.095  45.483  52.647  1.00  0.00     0.024 C 
HETATM    7  C   UNL     1      25.398  45.903  53.909  1.00  0.00     0.069 C 
HETATM    8  C   UNL     1      27.157  44.665  52.569  1.00  0.00     0.059 C 
HETATM    9  H   UNL     1      27.543  44.824  49.224  1.00  0.00     0.165 HD
HETATM   10  H   UNL     1      24.765  46.590  51.497  1.00  0.00     0.170 HD
ENDROOT
BRANCH   1  11
HETATM   11  C   UNL     1      27.646  42.750  51.002  1.00  0.00    -0.028 A 
HETATM   12  C   UNL     1      28.513  41.830  51.611  1.00  0.00     0.012 A 
HETATM   13  C   UNL     1      28.426  40.471  51.312  1.00  0.00     0.040 A 
HETATM   14  C   UNL     1      27.490  40.022  50.378  1.00  0.00     0.102 A 
HETATM   15  C   UNL     1      26.600  40.918  49.764  1.00  0.00     0.102 A 
HETATM   16  C   UNL     1      26.689  42.277  50.081  1.00  0.00     0.049 A 
BRANCH  14  17
HETATM   17  O   UNL     1      27.370  38.689  50.072  1.00  0.00    -0.339 OA
BRANCH  17  18
HETATM   18  C   UNL     1      28.488  38.183  49.339  1.00  0.00     0.278 C 
BRANCH  18  19
HETATM   19  C   UNL     1      29.424  37.449  50.293  1.00  0.00     0.239 C 
HETATM   20  N   UNL     1      28.865  36.395  50.962  1.00  0.00    -0.368 N 
HETATM   21  H   UNL     1      27.854  36.300  50.974  1.00  0.00     0.159 HD
HETATM   22  H   UNL     1      29.418  35.924  51.663  1.00  0.00     0.159 HD
HETATM   23  O   UNL     1      30.613  37.724  50.423  1.00  0.00    -0.271 OA
ENDBRANCH  18  19
ENDBRANCH  17  18
ENDBRANCH  14  17
BRANCH  15  24
HETATM   24  O   UNL     1      25.727  40.368  48.861  1.00  0.00    -0.349 OA
BRANCH  24  25
HETATM   25  C   UNL     1      25.733  40.833  47.512  1.00  0.00     0.171 C 
HETATM   26  C   UNL     1      27.128  40.765  46.913  1.00  0.00     0.034 C 
ENDBRANCH  24  25
ENDBRANCH  15  24
ENDBRANCH   1  11
BRANCH   8  27
HETATM   27  C   UNL     1      27.747  44.074  53.794  1.00  0.00     0.256 C 
HETATM   28  N   UNL     1      28.845  44.787  54.228  1.00  0.00    -0.323 N 
HETATM   29  H   UNL     1      29.048  45.647  53.736  1.00  0.00     0.169 HD
HETATM   30  O   UNL     1      27.235  43.085  54.298  1.00  0.00    -0.267 OA
BRANCH  28  31
HETATM   31  C   UNL     1      29.692  44.479  55.319  1.00  0.00     0.041 A 
HETATM   32  C   UNL     1      29.617  45.272  56.487  1.00  0.00    -0.035 A 
HETATM   33  C   UNL     1      28.661  46.427  56.621  1.00  0.00     0.050 C 
HETATM   34  C   UNL     1      30.459  44.979  57.575  1.00  0.00     0.009 A 
HETATM   35  C   UNL     1      31.365  43.925  57.516  1.00  0.00     0.001 A 
HETATM   36  C   UNL     1      31.443  43.149  56.367  1.00  0.00     0.002 A 
HETATM   37  C   UNL     1      30.614  43.426  55.277  1.00  0.00     0.030 A 
ENDBRANCH  28  31
ENDBRANCH   8  27
TORSDOF 8
ENDMDL
MODEL 3
REMARK VINA RESULT:      -8.3      2.479      4.358
REMARK  8 active torsions:
REMARK  status: ('A' for Active; 'I' for Inactive)
REMARK    1  A    between atoms: C_2  and  O_3 
REMARK    2  A    between atoms: O_3  and  C_4 
REMARK    3  A    between atoms: C_5  and  O_6 
REMARK    4  A    between atoms: O_6  and  C_7 
REMARK    5  A    between atoms: C_7  and  C_8 
REMARK       I    between atoms: C_8  and  N_9 
REMARK    6  A    between atoms: C_13  and  C_14 
REMARK    7  A    between atoms: C_21  and  C_22 
REMARK       I    between atoms: C_22  and  N_23 
REMARK    8  A    between atoms: N_23  and  C_24 
ROOT
HETATM    1  C   UNL     1      26.500  41.971  51.975  1.00  0.00     0.160 C 
HETATM    2  N   UNL     1      27.012  40.916  51.121  1.00  0.00    -0.330 N 
HETATM    3  C   UNL     1      28.327  40.629  50.946  1.00  0.00     0.321 C 
HETATM    4  O   UNL     1      28.700  39.826  50.098  1.00  0.00    -0.247 OA
HETATM    5  N   UNL     1      29.205  41.261  51.777  1.00  0.00    -0.312 N 
HETATM    6  C   UNL     1      28.863  42.157  52.762  1.00  0.00     0.024 C 
HETATM    7  C   UNL     1      29.992  42.677  53.603  1.00  0.00     0.069 C 
HETATM    8  C   UNL     1      27.567  42.489  52.891  1.00  0.00     0.059 C 
HETATM    9  H   UNL     1      26.390  40.477  50.457  1.00  0.00     0.165 HD
HETATM   10  H   UNL     1      30.176  41.010  51.633  1.00  0.00     0.170 HD
ENDROOT
BRANCH   1  11
HETATM   11  C   UNL     1      25.835  43.063  51.150  1.00  0.00    -0.028 A 
HETATM   12  C   UNL     1      24.441  43.121  51.003  1.00  0.00     0.012 A 
HETATM   13  C   UNL     1      23.855  44.094  50.195  1.00  0.00     0.040 A 
HETATM   14  C   UNL     1      24.660  45.002  49.503  1.00  0.00     0.102 A 
HETATM   15  C   UNL     1      26.056  44.976  49.643  1.00  0.00     0.102 A 
HETATM   16  C   UNL     1      26.632  44.003  50.466  1.00  0.00     0.049 A 
BRANCH  14  17
HETATM   17  O   UNL     1      24.113  45.981  48.711  1.00  0.00    -0.339 OA
BRANCH  17  18
HETATM   18  C   UNL     1      23.590  47.078  49.463  1.00  0.00     0.278 C 
BRANCH  18  19
HETATM   19  C   UNL     1      22.468  47.742  48.671  1.00  0.00     0.239 C 
HETATM   20  N   UNL     1      21.574  48.460  49.417  1.00  0.00    -0.368 N 
HETATM   21  H   UNL     1      21.560  48.333  50.424  1.00  0.00     0.159 HD
HETATM   22  H   UNL     1      20.769  48.854  48.952  1.00  0.00     0.159 HD
HETATM   23  O   UNL     1      22.385  47.700  47.447  1.00  0.00    -0.271 OA
ENDBRANCH  18  19
ENDBRANCH  17  18
ENDBRANCH  14  17
BRANCH  15  24
HETATM   24  O   UNL     1      26.747  45.910  48.914  1.00  0.00    -0.349 OA
BRANCH  24  25
HETATM   25  C   UNL     1      27.542  46.880  49.594  1.00  0.00     0.171 C 
HETATM   26  C   UNL     1      27.127  48.292  49.217  1.00  0.00     0.034 C 
ENDBRANCH  24  25
ENDBRANCH  15  24
ENDBRANCH   1  11
BRANCH   8  27
HETATM   27  C   UNL     1      27.135  43.459  53.927  1.00  0.00     0.256 C 
HETATM   28  N   UNL     1      27.455  44.754  53.579  1.00  0.00    -0.323 N 
HETATM   29  H   UNL     1      27.841  44.891  52.655  1.00  0.00     0.169 HD
HETATM   30  O   UNL     1      26.551  43.062  54.924  1.00  0.00    -0.267 OA
BRANCH  28  31
HETATM   31  C   UNL     1      27.257  45.925  54.350  1.00  0.00     0.041 A 
HETATM   32  C   UNL     1      26.297  46.869  53.922  1.00  0.00    -0.035 A 
HETATM   33  C   UNL     1      25.467  46.675  52.682  1.00  0.00     0.050 C 
HETATM   34  C   UNL     1      26.097  48.039  54.678  1.00  0.00     0.009 A 
HETATM   35  C   UNL     1      26.831  48.279  55.836  1.00  0.00     0.001 A 
HETATM   36  C   UNL     1      27.779  47.353  56.253  1.00  0.00     0.002 A 
HETATM   37  C   UNL     1      27.990  46.186  55.514  1.00  0.00     0.030 A 
ENDBRANCH  28  31
ENDBRANCH   8  27
TORSDOF 8
ENDMDL
MODEL 4
REMARK VINA RESULT:      -8.2      1.474      2.821
REMARK  8 active torsions:
REMARK  status: ('A' for Active; 'I' for Inactive)
REMARK    1  A    between atoms: C_2  and  O_3 
REMARK    2  A    between atoms: O_3  and  C_4 
REMARK    3  A    between atoms: C_5  and  O_6 
REMARK    4  A    between atoms: O_6  and  C_7 
REMARK    5  A    between atoms: C_7  and  C_8 
REMARK       I    between atoms: C_8  and  N_9 
REMARK    6  A    between atoms: C_13  and  C_14 
REMARK    7  A    between atoms: C_21  and  C_22 
REMARK       I    between atoms: C_22  and  N_23 
REMARK    8  A    between atoms: N_23  and  C_24 
ROOT
HETATM    1  C   UNL     1      23.989  42.808  50.095  1.00  0.00     0.160 C 
HETATM    2  N   UNL     1      22.856  42.094  49.537  1.00  0.00    -0.330 N 
HETATM    3  C   UNL     1      22.930  41.188  48.530  1.00  0.00     0.321 C 
HETATM    4  O   UNL     1      21.920  40.732  48.003  1.00  0.00    -0.247 OA
HETATM    5  N   UNL     1      24.180  40.795  48.153  1.00  0.00    -0.312 N 
HETATM    6  C   UNL     1      25.356  41.244  48.708  1.00  0.00     0.024 C 
HETATM    7  C   UNL     1      26.615  40.620  48.180  1.00  0.00     0.069 C 
HETATM    8  C   UNL     1      25.284  42.189  49.660  1.00  0.00     0.059 C 
HETATM    9  H   UNL     1      21.922  42.409  49.757  1.00  0.00     0.165 HD
HETATM   10  H   UNL     1      24.199  40.103  47.413  1.00  0.00     0.170 HD
ENDROOT
BRANCH   1  11
HETATM   11  C   UNL     1      23.901  44.295  49.786  1.00  0.00    -0.028 A 
HETATM   12  C   UNL     1      24.475  45.253  50.635  1.00  0.00     0.012 A 
HETATM   13  C   UNL     1      24.332  46.614  50.365  1.00  0.00     0.040 A 
HETATM   14  C   UNL     1      23.588  47.030  49.258  1.00  0.00     0.102 A 
HETATM   15  C   UNL     1      23.016  46.092  48.384  1.00  0.00     0.102 A 
HETATM   16  C   UNL     1      23.176  44.731  48.658  1.00  0.00     0.049 A 
BRANCH  14  17
HETATM   17  O   UNL     1      23.440  48.361  48.957  1.00  0.00    -0.339 OA
BRANCH  17  18
HETATM   18  C   UNL     1      24.652  49.104  49.109  1.00  0.00     0.278 C 
BRANCH  18  19
HETATM   19  C   UNL     1      24.775  50.106  47.966  1.00  0.00     0.239 C 
HETATM   20  N   UNL     1      23.664  50.871  47.740  1.00  0.00    -0.368 N 
HETATM   21  H   UNL     1      22.781  50.594  48.160  1.00  0.00     0.159 HD
HETATM   22  H   UNL     1      23.664  51.495  46.947  1.00  0.00     0.159 HD
HETATM   23  O   UNL     1      25.804  50.276  47.320  1.00  0.00    -0.271 OA
ENDBRANCH  18  19
ENDBRANCH  17  18
ENDBRANCH  14  17
BRANCH  15  24
HETATM   24  O   UNL     1      22.304  46.613  47.334  1.00  0.00    -0.349 OA
BRANCH  24  25
HETATM   25  C   UNL     1      21.318  45.808  46.690  1.00  0.00     0.171 C 
HETATM   26  C   UNL     1      21.740  45.449  45.275  1.00  0.00     0.034 C 
ENDBRANCH  24  25
ENDBRANCH  15  24
ENDBRANCH   1  11
BRANCH   8  27
HETATM   27  C   UNL     1      26.516  42.724  50.288  1.00  0.00     0.256 C 
HETATM   28  N   UNL     1      26.673  42.264  51.578  1.00  0.00    -0.323 N 
HETATM   29  H   UNL     1      26.008  41.570  51.894  1.00  0.00     0.169 HD
HETATM   30  O   UNL     1      27.254  43.459  49.648  1.00  0.00    -0.267 OA
BRANCH  28  31
HETATM   31  C   UNL     1      27.690  42.615  52.498  1.00  0.00     0.041 A 
HETATM   32  C   UNL     1      27.373  43.477  53.571  1.00  0.00    -0.035 A 
HETATM   33  C   UNL     1      25.989  44.030  53.783  1.00  0.00     0.050 C 
HETATM   34  C   UNL     1      28.379  43.837  54.487  1.00  0.00     0.009 A 
HETATM   35  C   UNL     1      29.678  43.359  54.349  1.00  0.00     0.001 A 
HETATM   36  C   UNL     1      29.991  42.516  53.290  1.00  0.00     0.002 A 
HETATM   37  C   UNL     1      29.005  42.148  52.372  1.00  0.00     0.030 A 
ENDBRANCH  28  31
ENDBRANCH   8  27
TORSDOF 8
ENDMDL
MODEL 5
REMARK VINA RESULT:      -8.0      4.522      8.691
REMARK  8 active torsions:
REMARK  status: ('A' for Active; 'I' for Inactive)
REMARK    1  A    between atoms: C_2  and  O_3 
REMARK    2  A    between atoms: O_3  and  C_4 
REMARK    3  A    between atoms: C_5  and  O_6 
REMARK    4  A    between atoms: O_6  and  C_7 
REMARK    5  A    between atoms: C_7  and  C_8 
REMARK       I    between atoms: C_8  and  N_9 
REMARK    6  A    between atoms: C_13  and  C_14 
REMARK    7  A    between atoms: C_21  and  C_22 
REMARK       I    between atoms: C_22  and  N_23 
REMARK    8  A    between atoms: N_23  and  C_24 
ROOT
HETATM    1  C   UNL     1      20.948  47.054  46.841  1.00  0.00     0.160 C 
HETATM    2  N   UNL     1      21.132  46.042  45.818  1.00  0.00    -0.330 N 
HETATM    3  C   UNL     1      20.354  44.939  45.669  1.00  0.00     0.321 C 
HETATM    4  O   UNL     1      20.652  44.047  44.882  1.00  0.00    -0.247 OA
HETATM    5  N   UNL     1      19.218  44.889  46.421  1.00  0.00    -0.312 N 
HETATM    6  C   UNL     1      18.807  45.856  47.308  1.00  0.00     0.024 C 
HETATM    7  C   UNL     1      17.484  45.620  47.977  1.00  0.00     0.069 C 
HETATM    8  C   UNL     1      19.611  46.916  47.502  1.00  0.00     0.059 C 
HETATM    9  H   UNL     1      21.994  46.027  45.292  1.00  0.00     0.165 HD
HETATM   10  H   UNL     1      18.650  44.062  46.271  1.00  0.00     0.170 HD
ENDROOT
BRANCH   1  11
HETATM   11  C   UNL     1      22.108  47.050  47.825  1.00  0.00    -0.028 A 
HETATM   12  C   UNL     1      22.452  45.896  48.545  1.00  0.00     0.012 A 
HETATM   13  C   UNL     1      23.480  45.929  49.485  1.00  0.00     0.040 A 
HETATM   14  C   UNL     1      24.157  47.125  49.736  1.00  0.00     0.102 A 
HETATM   15  C   UNL     1      23.844  48.291  49.020  1.00  0.00     0.102 A 
HETATM   16  C   UNL     1      22.819  48.243  48.071  1.00  0.00     0.049 A 
BRANCH  14  17
HETATM   17  O   UNL     1      25.183  47.187  50.645  1.00  0.00    -0.339 OA
BRANCH  17  18
HETATM   18  C   UNL     1      25.077  46.199  51.673  1.00  0.00     0.278 C 
BRANCH  18  19
HETATM   19  C   UNL     1      25.746  46.719  52.942  1.00  0.00     0.239 C 
HETATM   20  N   UNL     1      26.758  45.937  53.429  1.00  0.00    -0.368 N 
HETATM   21  H   UNL     1      26.856  44.987  53.084  1.00  0.00     0.159 HD
HETATM   22  H   UNL     1      27.181  46.194  54.308  1.00  0.00     0.159 HD
HETATM   23  O   UNL     1      25.458  47.787  53.472  1.00  0.00    -0.271 OA
ENDBRANCH  18  19
ENDBRANCH  17  18
ENDBRANCH  14  17
BRANCH  15  24
HETATM   24  O   UNL     1      24.568  49.407  49.351  1.00  0.00    -0.349 OA
BRANCH  24  25
HETATM   25  C   UNL     1      25.403  50.017  48.368  1.00  0.00     0.171 C 
HETATM   26  C   UNL     1      26.862  49.649  48.582  1.00  0.00     0.034 C 
ENDBRANCH  24  25
ENDBRANCH  15  24
ENDBRANCH   1  11
BRANCH   8  27
HETATM   27  C   UNL     1      19.230  47.986  48.455  1.00  0.00     0.256 C 
HETATM   28  N   UNL     1      18.619  49.045  47.817  1.00  0.00    -0.323 N 
HETATM   29  H   UNL     1      18.424  48.927  46.832  1.00  0.00     0.169 HD
HETATM   30  O   UNL     1      19.452  47.844  49.648  1.00  0.00    -0.267 OA
BRANCH  28  31
HETATM   31  C   UNL     1      18.186  50.263  48.395  1.00  0.00     0.041 A 
HETATM   32  C   UNL     1      19.127  51.300  48.587  1.00  0.00    -0.035 A 
HETATM   33  C   UNL     1      20.572  51.166  48.189  1.00  0.00     0.050 C 
HETATM   34  C   UNL     1      18.708  52.512  49.166  1.00  0.00     0.009 A 
HETATM   35  C   UNL     1      17.385  52.701  49.555  1.00  0.00     0.001 A 
HETATM   36  C   UNL     1      16.462  51.679  49.372  1.00  0.00     0.002 A 
HETATM   37  C   UNL     1      16.861  50.470  48.797  1.00  0.00     0.030 A 
ENDBRANCH  28  31
ENDBRANCH   8  27
TORSDOF 8
ENDMDL
MODEL 6
REMARK VINA RESULT:      -7.9      8.082     12.742
REMARK  8 active torsions:
REMARK  status: ('A' for Active; 'I' for Inactive)
REMARK    1  A    between atoms: C_2  and  O_3 
REMARK    2  A    between atoms: O_3  and  C_4 
REMARK    3  A    between atoms: C_5  and  O_6 
REMARK    4  A    between atoms: O_6  and  C_7 
REMARK    5  A    between atoms: C_7  and  C_8 
REMARK       I    between atoms: C_8  and  N_9 
REMARK    6  A    between atoms: C_13  and  C_14 
REMARK    7  A    between atoms: C_21  and  C_22 
REMARK       I    between atoms: C_22  and  N_23 
REMARK    8  A    between atoms: N_23  and  C_24 
ROOT
HETATM    1  C   UNL     1      15.741  51.691  48.993  1.00  0.00     0.160 C 
HETATM    2  N   UNL     1      15.240  52.294  50.214  1.00  0.00    -0.330 N 
HETATM    3  C   UNL     1      14.695  53.534  50.300  1.00  0.00     0.321 C 
HETATM    4  O   UNL     1      14.429  54.043  51.384  1.00  0.00    -0.247 OA
HETATM    5  N   UNL     1      14.438  54.170  49.122  1.00  0.00    -0.312 N 
HETATM    6  C   UNL     1      14.689  53.659  47.870  1.00  0.00     0.024 C 
HETATM    7  C   UNL     1      14.260  54.510  46.711  1.00  0.00     0.069 C 
HETATM    8  C   UNL     1      15.288  52.459  47.788  1.00  0.00     0.059 C 
HETATM    9  H   UNL     1      15.471  51.870  51.101  1.00  0.00     0.165 HD
HETATM   10  H   UNL     1      14.013  55.085  49.221  1.00  0.00     0.170 HD
ENDROOT
BRANCH   1  11
HETATM   11  C   UNL     1      17.250  51.509  49.057  1.00  0.00    -0.028 A 
HETATM   12  C   UNL     1      18.127  52.533  48.670  1.00  0.00     0.012 A 
HETATM   13  C   UNL     1      19.506  52.325  48.679  1.00  0.00     0.040 A 
HETATM   14  C   UNL     1      20.020  51.080  49.049  1.00  0.00     0.102 A 
HETATM   15  C   UNL     1      19.166  50.042  49.454  1.00  0.00     0.102 A 
HETATM   16  C   UNL     1      17.786  50.266  49.452  1.00  0.00     0.049 A 
BRANCH  14  17
HETATM   17  O   UNL     1      21.372  50.848  49.082  1.00  0.00    -0.339 OA
BRANCH  17  18
HETATM   18  C   UNL     1      21.930  50.620  47.785  1.00  0.00     0.278 C 
BRANCH  18  19
HETATM   19  C   UNL     1      23.249  49.868  47.929  1.00  0.00     0.239 C 
HETATM   20  N   UNL     1      23.219  48.796  48.778  1.00  0.00    -0.368 N 
HETATM   21  H   UNL     1      22.435  48.695  49.416  1.00  0.00     0.159 HD
HETATM   22  H   UNL     1      24.083  48.311  48.969  1.00  0.00     0.159 HD
HETATM   23  O   UNL     1      24.262  50.147  47.295  1.00  0.00    -0.271 OA
ENDBRANCH  18  19
ENDBRANCH  17  18
ENDBRANCH  14  17
BRANCH  15  24
HETATM   24  O   UNL     1      19.779  48.862  49.790  1.00  0.00    -0.349 OA
BRANCH  24  25
HETATM   25  C   UNL     1      19.334  47.647  49.189  1.00  0.00     0.171 C 
HETATM   26  C   UNL     1      19.874  47.504  47.776  1.00  0.00     0.034 C 
ENDBRANCH  24  25
ENDBRANCH  15  24
ENDBRANCH   1  11
BRANCH   8  27
HETATM   27  C   UNL     1      15.597  51.858  46.468  1.00  0.00     0.256 C 
HETATM   28  N   UNL     1      16.689  52.458  45.876  1.00  0.00    -0.323 N 
HETATM   29  H   UNL     1      17.186  53.140  46.433  1.00  0.00     0.169 HD
HETATM   30  O   UNL     1      14.922  50.930  46.050  1.00  0.00    -0.267 OA
BRANCH  28  31
HETATM   31  C   UNL     1      17.226  52.191  44.594  1.00  0.00     0.041 A 
HETATM   32  C   UNL     1      18.151  51.133  44.448  1.00  0.00    -0.035 A 
HETATM   33  C   UNL     1      18.581  50.268  45.603  1.00  0.00     0.050 C 
HETATM   34  C   UNL     1      18.696  50.863  43.179  1.00  0.00     0.009 A 
HETATM   35  C   UNL     1      18.340  51.624  42.070  1.00  0.00     0.001 A 
HETATM   36  C   UNL     1      17.435  52.667  42.214  1.00  0.00     0.002 A 
HETATM   37  C   UNL     1      16.884  52.949  43.467  1.00  0.00     0.030 A 
ENDBRANCH  28  31
ENDBRANCH   8  27
TORSDOF 8
ENDMDL
MODEL 7
REMARK VINA RESULT:      -7.7      5.313      8.949
REMARK  8 active torsions:
REMARK  status: ('A' for Active; 'I' for Inactive)
REMARK    1  A    between atoms: C_2  and  O_3 
REMARK    2  A    between atoms: O_3  and  C_4 
REMARK    3  A    between atoms: C_5  and  O_6 
REMARK    4  A    between atoms: O_6  and  C_7 
REMARK    5  A    between atoms: C_7  and  C_8 
REMARK       I    between atoms: C_8  and  N_9 
REMARK    6  A    between atoms: C_13  and  C_14 
REMARK    7  A    between atoms: C_21  and  C_22 
REMARK       I    between atoms: C_22  and  N_23 
REMARK    8  A    between atoms: N_23  and  C_24 
ROOT
HETATM    1  C   UNL     1      23.080  48.277  48.338  1.00  0.00     0.160 C 
HETATM    2  N   UNL     1      24.133  48.362  49.333  1.00  0.00    -0.330 N 
HETATM    3  C   UNL     1      24.427  47.393  50.236  1.00  0.00     0.321 C 
HETATM    4  O   UNL     1      25.227  47.586  51.145  1.00  0.00    -0.247 OA
HETATM    5  N   UNL     1      23.806  46.191  50.065  1.00  0.00    -0.312 N 
HETATM    6  C   UNL     1      22.915  45.892  49.061  1.00  0.00     0.024 C 
HETATM    7  C   UNL     1      22.407  44.480  49.028  1.00  0.00     0.069 C 
HETATM    8  C   UNL     1      22.575  46.872  48.207  1.00  0.00     0.059 C 
HETATM    9  H   UNL     1      24.563  49.257  49.516  1.00  0.00     0.165 HD
HETATM   10  H   UNL     1      24.063  45.484  50.744  1.00  0.00     0.170 HD
ENDROOT
BRANCH   1  11
HETATM   11  C   UNL     1      21.979  49.286  48.625  1.00  0.00    -0.028 A 
HETATM   12  C   UNL     1      21.911  50.509  47.940  1.00  0.00     0.012 A 
HETATM   13  C   UNL     1      20.929  51.445  48.258  1.00  0.00     0.040 A 
HETATM   14  C   UNL     1      20.022  51.180  49.287  1.00  0.00     0.102 A 
HETATM   15  C   UNL     1      20.057  49.959  49.979  1.00  0.00     0.102 A 
HETATM   16  C   UNL     1      21.039  49.023  49.642  1.00  0.00     0.049 A 
BRANCH  14  17
HETATM   17  O   UNL     1      19.034  52.075  49.616  1.00  0.00    -0.339 OA
BRANCH  17  18
HETATM   18  C   UNL     1      18.224  52.446  48.498  1.00  0.00     0.278 C 
BRANCH  18  19
HETATM   19  C   UNL     1      16.752  52.356  48.891  1.00  0.00     0.239 C 
HETATM   20  N   UNL     1      15.871  52.828  47.958  1.00  0.00    -0.368 N 
HETATM   21  H   UNL     1      16.221  53.399  47.194  1.00  0.00     0.159 HD
HETATM   22  H   UNL     1      14.891  52.864  48.198  1.00  0.00     0.159 HD
HETATM   23  O   UNL     1      16.359  51.846  49.935  1.00  0.00    -0.271 OA
ENDBRANCH  18  19
ENDBRANCH  17  18
ENDBRANCH  14  17
BRANCH  15  24
HETATM   24  O   UNL     1      19.123  49.808  50.971  1.00  0.00    -0.349 OA
BRANCH  24  25
HETATM   25  C   UNL     1      18.434  48.566  51.100  1.00  0.00     0.171 C 
HETATM   26  C   UNL     1      17.762  48.172  49.795  1.00  0.00     0.034 C 
ENDBRANCH  24  25
ENDBRANCH  15  24
ENDBRANCH   1  11
BRANCH   8  27
HETATM   27  C   UNL     1      21.610  46.617  47.111  1.00  0.00     0.256 C 
HETATM   28  N   UNL     1      20.307  46.633  47.563  1.00  0.00    -0.323 N 
HETATM   29  H   UNL     1      20.168  46.902  48.528  1.00  0.00     0.169 HD
HETATM   30  O   UNL     1      22.016  46.448  45.971  1.00  0.00    -0.267 OA
BRANCH  28  31
HETATM   31  C   UNL     1      19.135  46.364  46.816  1.00  0.00     0.041 A 
HETATM   32  C   UNL     1      18.455  47.441  46.203  1.00  0.00    -0.035 A 
HETATM   33  C   UNL     1      18.935  48.864  46.302  1.00  0.00     0.050 C 
HETATM   34  C   UNL     1      17.285  47.186  45.463  1.00  0.00     0.009 A 
HETATM   35  C   UNL     1      16.789  45.892  45.331  1.00  0.00     0.001 A 
HETATM   36  C   UNL     1      17.454  44.836  45.939  1.00  0.00     0.002 A 
HETATM   37  C   UNL     1      18.617  45.071  46.676  1.00  0.00     0.030 A 
ENDBRANCH  28  31
ENDBRANCH   8  27
TORSDOF 8
ENDMDL
MODEL 8
REMARK VINA RESULT:      -7.7     18.040     20.590
REMARK  8 active torsions:
REMARK  status: ('A' for Active; 'I' for Inactive)
REMARK    1  A    between atoms: C_2  and  O_3 
REMARK    2  A    between atoms: O_3  and  C_4 
REMARK    3  A    between atoms: C_5  and  O_6 
REMARK    4  A    between atoms: O_6  and  C_7 
REMARK    5  A    between atoms: C_7  and  C_8 
REMARK       I    between atoms: C_8  and  N_9 
REMARK    6  A    between atoms: C_13  and  C_14 
REMARK    7  A    between atoms: C_21  and  C_22 
REMARK       I    between atoms: C_22  and  N_23 
REMARK    8  A    between atoms: N_23  and  C_24 
ROOT
HETATM    1  C   UNL     1      39.260  43.351  63.160  1.00  0.00     0.160 C 
HETATM    2  N   UNL     1      39.698  42.042  62.713  1.00  0.00    -0.330 N 
HETATM    3  C   UNL     1      39.196  40.862  63.157  1.00  0.00     0.321 C 
HETATM    4  O   UNL     1      39.711  39.791  62.853  1.00  0.00    -0.247 OA
HETATM    5  N   UNL     1      38.079  40.929  63.936  1.00  0.00    -0.312 N 
HETATM    6  C   UNL     1      37.434  42.087  64.303  1.00  0.00     0.024 C 
HETATM    7  C   UNL     1      36.179  41.917  65.110  1.00  0.00     0.069 C 
HETATM    8  C   UNL     1      37.970  43.258  63.917  1.00  0.00     0.059 C 
HETATM    9  H   UNL     1      40.557  41.966  62.186  1.00  0.00     0.165 HD
HETATM   10  H   UNL     1      37.718  40.030  64.234  1.00  0.00     0.170 HD
ENDROOT
BRANCH   1  11
HETATM   11  C   UNL     1      40.361  44.058  63.936  1.00  0.00    -0.028 A 
HETATM   12  C   UNL     1      41.239  43.349  64.769  1.00  0.00     0.012 A 
HETATM   13  C   UNL     1      42.204  44.022  65.517  1.00  0.00     0.040 A 
HETATM   14  C   UNL     1      42.281  45.416  65.461  1.00  0.00     0.102 A 
HETATM   15  C   UNL     1      41.424  46.150  64.625  1.00  0.00     0.102 A 
HETATM   16  C   UNL     1      40.469  45.462  63.871  1.00  0.00     0.049 A 
BRANCH  14  17
HETATM   17  O   UNL     1      43.228  46.108  66.174  1.00  0.00    -0.339 OA
BRANCH  17  18
HETATM   18  C   UNL     1      44.564  45.712  65.855  1.00  0.00     0.278 C 
BRANCH  18  19
HETATM   19  C   UNL     1      45.100  46.603  64.738  1.00  0.00     0.239 C 
HETATM   20  N   UNL     1      45.012  46.074  63.480  1.00  0.00    -0.368 N 
HETATM   21  H   UNL     1      44.826  45.081  63.374  1.00  0.00     0.159 HD
HETATM   22  H   UNL     1      45.423  46.588  62.714  1.00  0.00     0.159 HD
HETATM   23  O   UNL     1      45.526  47.738  64.922  1.00  0.00    -0.271 OA
ENDBRANCH  18  19
ENDBRANCH  17  18
ENDBRANCH  14  17
BRANCH  15  24
HETATM   24  O   UNL     1      41.585  47.511  64.653  1.00  0.00    -0.349 OA
BRANCH  24  25
HETATM   25  C   UNL     1      40.735  48.299  65.485  1.00  0.00     0.171 C 
HETATM   26  C   UNL     1      39.640  48.970  64.674  1.00  0.00     0.034 C 
ENDBRANCH  24  25
ENDBRANCH  15  24
ENDBRANCH   1  11
BRANCH   8  27
HETATM   27  C   UNL     1      37.329  44.541  64.292  1.00  0.00     0.256 C 
HETATM   28  N   UNL     1      37.627  44.902  65.589  1.00  0.00    -0.323 N 
HETATM   29  H   UNL     1      38.297  44.323  66.076  1.00  0.00     0.169 HD
HETATM   30  O   UNL     1      36.654  45.145  63.471  1.00  0.00    -0.267 OA
BRANCH  28  31
HETATM   31  C   UNL     1      37.139  46.024  66.302  1.00  0.00     0.041 A 
HETATM   32  C   UNL     1      37.921  46.558  67.351  1.00  0.00    -0.035 A 
HETATM   33  C   UNL     1      39.260  45.988  67.734  1.00  0.00     0.050 C 
HETATM   34  C   UNL     1      37.443  47.669  68.070  1.00  0.00     0.009 A 
HETATM   35  C   UNL     1      36.213  48.245  67.765  1.00  0.00     0.001 A 
HETATM   36  C   UNL     1      35.443  47.716  66.738  1.00  0.00     0.002 A 
HETATM   37  C   UNL     1      35.902  46.614  66.013  1.00  0.00     0.030 A 
ENDBRANCH  28  31
ENDBRANCH   8  27
TORSDOF 8
ENDMDL
MODEL 9
REMARK VINA RESULT:      -7.6     17.847     19.948
REMARK  8 active torsions:
REMARK  status: ('A' for Active; 'I' for Inactive)
REMARK    1  A    between atoms: C_2  and  O_3 
REMARK    2  A    between atoms: O_3  and  C_4 
REMARK    3  A    between atoms: C_5  and  O_6 
REMARK    4  A    between atoms: O_6  and  C_7 
REMARK    5  A    between atoms: C_7  and  C_8 
REMARK       I    between atoms: C_8  and  N_9 
REMARK    6  A    between atoms: C_13  and  C_14 
REMARK    7  A    between atoms: C_21  and  C_22 
REMARK       I    between atoms: C_22  and  N_23 
REMARK    8  A    between atoms: N_23  and  C_24 
ROOT
HETATM    1  C   UNL     1      35.511  44.176  65.303  1.00  0.00     0.160 C 
HETATM    2  N   UNL     1      34.275  43.425  65.414  1.00  0.00    -0.330 N 
HETATM    3  C   UNL     1      33.676  43.084  66.584  1.00  0.00     0.321 C 
HETATM    4  O   UNL     1      32.716  42.322  66.614  1.00  0.00    -0.247 OA
HETATM    5  N   UNL     1      34.183  43.651  67.716  1.00  0.00    -0.312 N 
HETATM    6  C   UNL     1      35.242  44.528  67.761  1.00  0.00     0.024 C 
HETATM    7  C   UNL     1      35.584  45.080  69.114  1.00  0.00     0.069 C 
HETATM    8  C   UNL     1      35.874  44.813  66.610  1.00  0.00     0.059 C 
HETATM    9  H   UNL     1      33.915  42.948  64.599  1.00  0.00     0.165 HD
HETATM   10  H   UNL     1      33.701  43.392  68.569  1.00  0.00     0.170 HD
ENDROOT
BRANCH   1  11
HETATM   11  C   UNL     1      36.622  43.311  64.727  1.00  0.00    -0.028 A 
HETATM   12  C   UNL     1      36.765  41.965  65.094  1.00  0.00     0.012 A 
HETATM   13  C   UNL     1      37.826  41.205  64.601  1.00  0.00     0.040 A 
HETATM   14  C   UNL     1      38.771  41.795  63.758  1.00  0.00     0.102 A 
HETATM   15  C   UNL     1      38.644  43.136  63.363  1.00  0.00     0.102 A 
HETATM   16  C   UNL     1      37.570  43.883  63.854  1.00  0.00     0.049 A 
BRANCH  14  17
HETATM   17  O   UNL     1      39.818  41.071  63.244  1.00  0.00    -0.339 OA
BRANCH  17  18
HETATM   18  C   UNL     1      39.663  39.661  63.425  1.00  0.00     0.278 C 
BRANCH  18  19
HETATM   19  C   UNL     1      40.858  39.119  64.202  1.00  0.00     0.239 C 
HETATM   20  N   UNL     1      41.242  37.849  63.869  1.00  0.00    -0.368 N 
HETATM   21  H   UNL     1      40.610  37.271  63.323  1.00  0.00     0.159 HD
HETATM   22  H   UNL     1      41.976  37.413  64.406  1.00  0.00     0.159 HD
HETATM   23  O   UNL     1      41.484  39.775  65.028  1.00  0.00    -0.271 OA
ENDBRANCH  18  19
ENDBRANCH  17  18
ENDBRANCH  14  17
BRANCH  15  24
HETATM   24  O   UNL     1      39.631  43.611  62.538  1.00  0.00    -0.349 OA
BRANCH  24  25
HETATM   25  C   UNL     1      40.848  44.090  63.107  1.00  0.00     0.171 C 
HETATM   26  C   UNL     1      40.610  45.340  63.939  1.00  0.00     0.034 C 
ENDBRANCH  24  25
ENDBRANCH  15  24
ENDBRANCH   1  11
BRANCH   8  27
HETATM   27  C   UNL     1      37.030  45.741  66.594  1.00  0.00     0.256 C 
HETATM   28  N   UNL     1      36.661  47.011  66.203  1.00  0.00    -0.323 N 
HETATM   29  H   UNL     1      35.672  47.174  66.074  1.00  0.00     0.169 HD
HETATM   30  O   UNL     1      38.135  45.340  66.928  1.00  0.00    -0.267 OA
BRANCH  28  31
HETATM   31  C   UNL     1      37.506  48.130  66.010  1.00  0.00     0.041 A 
HETATM   32  C   UNL     1      37.437  49.204  66.927  1.00  0.00    -0.035 A 
HETATM   33  C   UNL     1      36.506  49.200  68.110  1.00  0.00     0.050 C 
HETATM   34  C   UNL     1      38.268  50.324  66.741  1.00  0.00     0.009 A 
HETATM   35  C   UNL     1      39.152  50.390  65.669  1.00  0.00     0.001 A 
HETATM   36  C   UNL     1      39.216  49.338  64.765  1.00  0.00     0.002 A 
HETATM   37  C   UNL     1      38.399  48.217  64.935  1.00  0.00     0.030 A 
ENDBRANCH  28  31
ENDBRANCH   8  27
TORSDOF 8
ENDMDL
MODEL 10
REMARK VINA RESULT:      -7.4      2.568      5.262
REMARK  8 active torsions:
REMARK  status: ('A' for Active; 'I' for Inactive)
REMARK    1  A    between atoms: C_2  and  O_3 
REMARK    2  A    between atoms: O_3  and  C_4 
REMARK    3  A    between atoms: C_5  and  O_6 
REMARK    4  A    between atoms: O_6  and  C_7 
REMARK    5  A    between atoms: C_7  and  C_8 
REMARK       I    between atoms: C_8  and  N_9 
REMARK    6  A    between atoms: C_13  and  C_14 
REMARK    7  A    between atoms: C_21  and  C_22 
REMARK       I    between atoms: C_22  and  N_23 
REMARK    8  A    between atoms: N_23  and  C_24 
ROOT
HETATM    1  C   UNL     1      25.954  46.105  51.617  1.00  0.00     0.160 C 
HETATM    2  N   UNL     1      26.130  47.283  52.445  1.00  0.00    -0.330 N 
HETATM    3  C   UNL     1      25.890  47.337  53.780  1.00  0.00     0.321 C 
HETATM    4  O   UNL     1      25.914  48.398  54.393  1.00  0.00    -0.247 OA
HETATM    5  N   UNL     1      25.644  46.149  54.403  1.00  0.00    -0.312 N 
HETATM    6  C   UNL     1      25.620  44.918  53.789  1.00  0.00     0.024 C 
HETATM    7  C   UNL     1      25.397  43.737  54.687  1.00  0.00     0.069 C 
HETATM    8  C   UNL     1      25.794  44.874  52.457  1.00  0.00     0.059 C 
HETATM    9  H   UNL     1      26.253  48.182  52.000  1.00  0.00     0.165 HD
HETATM   10  H   UNL     1      25.488  46.222  55.402  1.00  0.00     0.170 HD
ENDROOT
BRANCH   1  11
HETATM   11  C   UNL     1      24.820  46.304  50.622  1.00  0.00    -0.028 A 
HETATM   12  C   UNL     1      24.106  45.216  50.099  1.00  0.00     0.012 A 
HETATM   13  C   UNL     1      23.110  45.415  49.145  1.00  0.00     0.040 A 
HETATM   14  C   UNL     1      22.838  46.705  48.682  1.00  0.00     0.102 A 
HETATM   15  C   UNL     1      23.526  47.814  49.198  1.00  0.00     0.102 A 
HETATM   16  C   UNL     1      24.515  47.602  50.164  1.00  0.00     0.049 A 
BRANCH  14  17
HETATM   17  O   UNL     1      21.854  46.936  47.753  1.00  0.00    -0.339 OA
BRANCH  17  18
HETATM   18  C   UNL     1      20.582  46.414  48.146  1.00  0.00     0.278 C 
BRANCH  18  19
HETATM   19  C   UNL     1      19.712  47.551  48.673  1.00  0.00     0.239 C 
HETATM   20  N   UNL     1      19.286  47.408  49.964  1.00  0.00    -0.368 N 
HETATM   21  H   UNL     1      19.363  46.498  50.411  1.00  0.00     0.159 HD
HETATM   22  H   UNL     1      18.644  48.092  50.336  1.00  0.00     0.159 HD
HETATM   23  O   UNL     1      19.451  48.561  48.026  1.00  0.00    -0.271 OA
ENDBRANCH  18  19
ENDBRANCH  17  18
ENDBRANCH  14  17
BRANCH  15  24
HETATM   24  O   UNL     1      23.181  49.030  48.668  1.00  0.00    -0.349 OA
BRANCH  24  25
HETATM   25  C   UNL     1      22.438  49.954  49.462  1.00  0.00     0.171 C 
HETATM   26  C   UNL     1      21.874  51.080  48.611  1.00  0.00     0.034 C 
ENDBRANCH  24  25
ENDBRANCH  15  24
ENDBRANCH   1  11
BRANCH   8  27
HETATM   27  C   UNL     1      25.766  43.580  51.735  1.00  0.00     0.256 C 
HETATM   28  N   UNL     1      26.998  43.266  51.201  1.00  0.00    -0.323 N 
HETATM   29  H   UNL     1      27.764  43.882  51.439  1.00  0.00     0.169 HD
HETATM   30  O   UNL     1      24.733  42.929  51.694  1.00  0.00    -0.267 OA
BRANCH  28  31
HETATM   31  C   UNL     1      27.326  42.148  50.396  1.00  0.00     0.041 A 
HETATM   32  C   UNL     1      28.046  41.079  50.975  1.00  0.00    -0.035 A 
HETATM   33  C   UNL     1      28.469  41.075  52.420  1.00  0.00     0.050 C 
HETATM   34  C   UNL     1      28.383  39.965  50.183  1.00  0.00     0.009 A 
HETATM   35  C   UNL     1      28.021  39.905  48.841  1.00  0.00     0.001 A 
HETATM   36  C   UNL     1      27.319  40.959  48.271  1.00  0.00     0.002 A 
HETATM   37  C   UNL     1      26.976  42.072  49.043  1.00  0.00     0.030 A 
ENDBRANCH  28  31
ENDBRANCH   8  27
TORSDOF 8
ENDMDL
