MODEL 1
REMARK VINA RESULT:      -7.9      0.000      0.000
REMARK  2 active torsions:
REMARK  status: ('A' for Active; 'I' for Inactive)
REMARK    1  A    between atoms: C_6  and  C_7 
REMARK    2  A    between atoms: C_7  and  N_8 
ROOT
HETATM    1  N   UNL     1      25.785  45.963  51.165  1.00  0.00    -0.203 NA
HETATM    2  S   UNL     1      26.171  44.544  50.312  1.00  0.00     0.219 S 
HETATM    3  O   UNL     1      27.376  44.769  49.556  1.00  0.00    -0.211 OA
HETATM    4  O   UNL     1      24.954  44.016  49.734  1.00  0.00    -0.211 OA
HETATM    5  C   UNL     1      26.505  43.523  51.739  1.00  0.00     0.164 C 
HETATM    6  C   UNL     1      26.519  44.477  52.923  1.00  0.00     0.116 C 
HETATM    7  O   UNL     1      27.918  44.813  53.069  1.00  0.00    -0.369 OA
HETATM    8  C   UNL     1      28.597  43.546  52.926  1.00  0.00     0.149 C 
HETATM    9  C   UNL     1      28.413  42.788  54.259  1.00  0.00     0.264 C 
HETATM   10  N   UNL     1      26.932  42.584  54.541  1.00  0.00    -0.070 N 
HETATM   11  H   UNL     1      26.587  41.770  54.013  1.00  0.00     0.277 HD
HETATM   12  H   UNL     1      26.821  42.327  55.534  1.00  0.00     0.277 HD
HETATM   13  C   UNL     1      26.087  43.812  54.249  1.00  0.00     0.273 C 
HETATM   14  C   UNL     1      25.649  45.700  52.611  1.00  0.00     0.148 C 
HETATM   15  C   UNL     1      27.879  42.868  51.757  1.00  0.00     0.058 C 
ENDROOT
BRANCH   1  16
HETATM   16  C   UNL     1      24.681  46.785  50.606  1.00  0.00     0.145 C 
BRANCH  16  17
HETATM   17  C   UNL     1      25.121  47.949  49.758  1.00  0.00    -0.043 A 
HETATM   18  C   UNL     1      24.175  48.778  49.141  1.00  0.00     0.032 A 
HETATM   19  C   UNL     1      24.592  49.824  48.315  1.00  0.00     0.034 A 
HETATM   20  C   UNL     1      25.947  50.058  48.098  1.00  0.00     0.024 A 
HETATM   21 CL   UNL     1      23.418  50.822  47.549  1.00  0.00    -0.084 Cl
HETATM   22  C   UNL     1      26.896  49.245  48.716  1.00  0.00     0.002 A 
HETATM   23  C   UNL     1      26.486  48.197  49.542  1.00  0.00     0.008 A 
ENDBRANCH  16  17
ENDBRANCH   1  16
TORSDOF 2
ENDMDL
MODEL 2
REMARK VINA RESULT:      -7.8     11.757     13.419
REMARK  2 active torsions:
REMARK  status: ('A' for Active; 'I' for Inactive)
REMARK    1  A    between atoms: C_6  and  C_7 
REMARK    2  A    between atoms: C_7  and  N_8 
ROOT
HETATM    1  N   UNL     1      31.248  50.925  42.069  1.00  0.00    -0.203 NA
HETATM    2  S   UNL     1      30.717  52.528  41.877  1.00  0.00     0.219 S 
HETATM    3  O   UNL     1      31.539  53.174  40.887  1.00  0.00    -0.211 OA
HETATM    4  O   UNL     1      30.463  53.084  43.188  1.00  0.00    -0.211 OA
HETATM    5  C   UNL     1      29.109  52.140  41.203  1.00  0.00     0.164 C 
HETATM    6  C   UNL     1      29.139  50.646  40.922  1.00  0.00     0.116 C 
HETATM    7  O   UNL     1      29.533  50.572  39.533  1.00  0.00    -0.369 OA
HETATM    8  C   UNL     1      28.737  51.592  38.890  1.00  0.00     0.149 C 
HETATM    9  C   UNL     1      27.310  51.020  38.745  1.00  0.00     0.264 C 
HETATM   10  N   UNL     1      26.748  50.672  40.115  1.00  0.00    -0.070 N 
HETATM   11  H   UNL     1      26.378  51.522  40.564  1.00  0.00     0.277 HD
HETATM   12  H   UNL     1      25.929  50.058  39.986  1.00  0.00     0.277 HD
HETATM   13  C   UNL     1      27.750  49.978  41.021  1.00  0.00     0.273 C 
HETATM   14  C   UNL     1      30.146  49.965  41.857  1.00  0.00     0.148 C 
HETATM   15  C   UNL     1      28.803  52.778  39.854  1.00  0.00     0.058 C 
ENDROOT
BRANCH   1  16
HETATM   16  C   UNL     1      32.054  50.642  43.284  1.00  0.00     0.145 C 
BRANCH  16  17
HETATM   17  C   UNL     1      33.476  51.133  43.232  1.00  0.00    -0.043 A 
HETATM   18  C   UNL     1      34.344  50.699  42.220  1.00  0.00     0.032 A 
HETATM   19  C   UNL     1      35.674  51.119  42.209  1.00  0.00     0.034 A 
HETATM   20  C   UNL     1      36.155  51.974  43.197  1.00  0.00     0.024 A 
HETATM   21 CL   UNL     1      36.732  50.562  40.971  1.00  0.00    -0.084 Cl
HETATM   22  C   UNL     1      35.298  52.421  44.202  1.00  0.00     0.002 A 
HETATM   23  C   UNL     1      33.966  52.004  44.219  1.00  0.00     0.008 A 
ENDBRANCH  16  17
ENDBRANCH   1  16
TORSDOF 2
ENDMDL
MODEL 3
REMARK VINA RESULT:      -7.6      1.577      2.196
REMARK  2 active torsions:
REMARK  status: ('A' for Active; 'I' for Inactive)
REMARK    1  A    between atoms: C_6  and  C_7 
REMARK    2  A    between atoms: C_7  and  N_8 
ROOT
HETATM    1  N   UNL     1      25.576  45.285  50.555  1.00  0.00    -0.203 NA
HETATM    2  S   UNL     1      24.431  44.114  50.100  1.00  0.00     0.219 S 
HETATM    3  O   UNL     1      24.422  44.006  48.664  1.00  0.00    -0.211 OA
HETATM    4  O   UNL     1      23.236  44.316  50.891  1.00  0.00    -0.211 OA
HETATM    5  C   UNL     1      25.259  42.712  50.833  1.00  0.00     0.164 C 
HETATM    6  C   UNL     1      26.628  43.223  51.248  1.00  0.00     0.116 C 
HETATM    7  O   UNL     1      27.468  42.893  50.118  1.00  0.00    -0.369 OA
HETATM    8  C   UNL     1      27.077  41.545  49.777  1.00  0.00     0.149 C 
HETATM    9  C   UNL     1      27.732  40.612  50.818  1.00  0.00     0.264 C 
HETATM   10  N   UNL     1      27.258  40.979  52.216  1.00  0.00    -0.070 N 
HETATM   11  H   UNL     1      26.337  40.554  52.392  1.00  0.00     0.277 HD
HETATM   12  H   UNL     1      27.892  40.540  52.901  1.00  0.00     0.277 HD
HETATM   13  C   UNL     1      27.216  42.476  52.465  1.00  0.00     0.273 C 
HETATM   14  C   UNL     1      26.559  44.733  51.508  1.00  0.00     0.148 C 
HETATM   15  C   UNL     1      25.551  41.563  49.876  1.00  0.00     0.058 C 
ENDROOT
BRANCH   1  16
HETATM   16  C   UNL     1      25.037  46.608  50.961  1.00  0.00     0.145 C 
BRANCH  16  17
HETATM   17  C   UNL     1      25.385  47.747  50.039  1.00  0.00    -0.043 A 
HETATM   18  C   UNL     1      24.377  48.468  49.385  1.00  0.00     0.032 A 
HETATM   19  C   UNL     1      24.710  49.488  48.493  1.00  0.00     0.034 A 
HETATM   20  C   UNL     1      26.043  49.805  48.246  1.00  0.00     0.024 A 
HETATM   21 CL   UNL     1      23.461  50.351  47.682  1.00  0.00    -0.084 Cl
HETATM   22  C   UNL     1      27.053  49.101  48.900  1.00  0.00     0.002 A 
HETATM   23  C   UNL     1      26.727  48.079  49.793  1.00  0.00     0.008 A 
ENDBRANCH  16  17
ENDBRANCH   1  16
TORSDOF 2
ENDMDL
MODEL 4
REMARK VINA RESULT:      -7.5      4.225      6.874
REMARK  2 active torsions:
REMARK  status: ('A' for Active; 'I' for Inactive)
REMARK    1  A    between atoms: C_6  and  C_7 
REMARK    2  A    between atoms: C_7  and  N_8 
ROOT
HETATM    1  N   UNL     1      27.023  43.632  52.864  1.00  0.00    -0.203 NA
HETATM    2  S   UNL     1      25.624  44.558  53.139  1.00  0.00     0.219 S 
HETATM    3  O   UNL     1      25.973  45.954  53.081  1.00  0.00    -0.211 OA
HETATM    4  O   UNL     1      24.895  43.964  54.239  1.00  0.00    -0.211 OA
HETATM    5  C   UNL     1      24.749  44.066  51.663  1.00  0.00     0.164 C 
HETATM    6  C   UNL     1      25.764  43.302  50.828  1.00  0.00     0.116 C 
HETATM    7  O   UNL     1      26.304  44.313  49.946  1.00  0.00    -0.369 OA
HETATM    8  C   UNL     1      25.140  45.044  49.500  1.00  0.00     0.149 C 
HETATM    9  C   UNL     1      24.445  44.170  48.434  1.00  0.00     0.264 C 
HETATM   10  N   UNL     1      24.050  42.830  49.036  1.00  0.00    -0.070 N 
HETATM   11  H   UNL     1      23.165  42.930  49.553  1.00  0.00     0.277 HD
HETATM   12  H   UNL     1      23.840  42.176  48.267  1.00  0.00     0.277 HD
HETATM   13  C   UNL     1      25.126  42.226  49.922  1.00  0.00     0.273 C 
HETATM   14  C   UNL     1      26.831  42.690  51.744  1.00  0.00     0.148 C 
HETATM   15  C   UNL     1      24.298  45.212  50.767  1.00  0.00     0.058 C 
ENDROOT
BRANCH   1  16
HETATM   16  C   UNL     1      27.644  43.010  54.061  1.00  0.00     0.145 C 
BRANCH  16  17
HETATM   17  C   UNL     1      28.651  43.873  54.776  1.00  0.00    -0.043 A 
HETATM   18  C   UNL     1      29.798  43.305  55.348  1.00  0.00     0.032 A 
HETATM   19  C   UNL     1      30.698  44.104  56.053  1.00  0.00     0.034 A 
HETATM   20  C   UNL     1      30.473  45.470  56.194  1.00  0.00     0.024 A 
HETATM   21 CL   UNL     1      32.093  43.389  56.765  1.00  0.00    -0.084 Cl
HETATM   22  C   UNL     1      29.341  46.047  55.620  1.00  0.00     0.002 A 
HETATM   23  C   UNL     1      28.435  45.253  54.914  1.00  0.00     0.008 A 
ENDBRANCH  16  17
ENDBRANCH   1  16
TORSDOF 2
ENDMDL
MODEL 5
REMARK VINA RESULT:      -7.4      3.963      7.231
REMARK  2 active torsions:
REMARK  status: ('A' for Active; 'I' for Inactive)
REMARK    1  A    between atoms: C_6  and  C_7 
REMARK    2  A    between atoms: C_7  and  N_8 
ROOT
HETATM    1  N   UNL     1      28.611  43.930  53.342  1.00  0.00    -0.203 NA
HETATM    2  S   UNL     1      27.189  43.127  53.812  1.00  0.00     0.219 S 
HETATM    3  O   UNL     1      26.571  43.866  54.882  1.00  0.00    -0.211 OA
HETATM    4  O   UNL     1      27.468  41.709  53.879  1.00  0.00    -0.211 OA
HETATM    5  C   UNL     1      26.295  43.367  52.284  1.00  0.00     0.164 C 
HETATM    6  C   UNL     1      27.134  44.343  51.475  1.00  0.00     0.116 C 
HETATM    7  O   UNL     1      26.557  45.629  51.797  1.00  0.00    -0.369 OA
HETATM    8  C   UNL     1      25.132  45.398  51.732  1.00  0.00     0.149 C 
HETATM    9  C   UNL     1      24.755  45.356  50.236  1.00  0.00     0.264 C 
HETATM   10  N   UNL     1      25.519  44.242  49.537  1.00  0.00    -0.070 N 
HETATM   11  H   UNL     1      25.046  43.342  49.698  1.00  0.00     0.277 HD
HETATM   12  H   UNL     1      25.465  44.397  48.519  1.00  0.00     0.277 HD
HETATM   13  C   UNL     1      26.979  44.163  49.949  1.00  0.00     0.273 C 
HETATM   14  C   UNL     1      28.604  44.235  51.898  1.00  0.00     0.148 C 
HETATM   15  C   UNL     1      24.942  44.049  52.429  1.00  0.00     0.058 C 
ENDROOT
BRANCH   1  16
HETATM   16  C   UNL     1      29.888  43.335  53.815  1.00  0.00     0.145 C 
BRANCH  16  17
HETATM   17  C   UNL     1      30.286  43.715  55.217  1.00  0.00    -0.043 A 
HETATM   18  C   UNL     1      29.671  44.796  55.864  1.00  0.00     0.032 A 
HETATM   19  C   UNL     1      30.082  45.173  57.143  1.00  0.00     0.034 A 
HETATM   20  C   UNL     1      31.101  44.481  57.792  1.00  0.00     0.024 A 
HETATM   21 CL   UNL     1      29.332  46.515  57.917  1.00  0.00    -0.084 Cl
HETATM   22  C   UNL     1      31.710  43.397  57.162  1.00  0.00     0.002 A 
HETATM   23  C   UNL     1      31.305  43.015  55.882  1.00  0.00     0.008 A 
ENDBRANCH  16  17
ENDBRANCH   1  16
TORSDOF 2
ENDMDL
MODEL 6
REMARK VINA RESULT:      -7.3      5.040      6.579
REMARK  2 active torsions:
REMARK  status: ('A' for Active; 'I' for Inactive)
REMARK    1  A    between atoms: C_6  and  C_7 
REMARK    2  A    between atoms: C_7  and  N_8 
ROOT
HETATM    1  N   UNL     1      27.352  42.878  51.851  1.00  0.00    -0.203 NA
HETATM    2  S   UNL     1      26.473  43.497  50.534  1.00  0.00     0.219 S 
HETATM    3  O   UNL     1      27.348  44.315  49.735  1.00  0.00    -0.211 OA
HETATM    4  O   UNL     1      25.185  43.944  51.017  1.00  0.00    -0.211 OA
HETATM    5  C   UNL     1      26.166  41.932  49.730  1.00  0.00     0.164 C 
HETATM    6  C   UNL     1      27.028  40.922  50.470  1.00  0.00     0.116 C 
HETATM    7  O   UNL     1      28.241  40.875  49.685  1.00  0.00    -0.369 OA
HETATM    8  C   UNL     1      27.771  40.827  48.320  1.00  0.00     0.149 C 
HETATM    9  C   UNL     1      27.287  39.383  48.064  1.00  0.00     0.264 C 
HETATM   10  N   UNL     1      26.174  39.028  49.037  1.00  0.00    -0.070 N 
HETATM   11  H   UNL     1      25.279  39.404  48.693  1.00  0.00     0.277 HD
HETATM   12  H   UNL     1      26.053  38.004  49.035  1.00  0.00     0.277 HD
HETATM   13  C   UNL     1      26.442  39.493  50.458  1.00  0.00     0.273 C 
HETATM   14  C   UNL     1      27.273  41.405  51.905  1.00  0.00     0.148 C 
HETATM   15  C   UNL     1      26.631  41.848  48.282  1.00  0.00     0.058 C 
ENDROOT
BRANCH   1  16
HETATM   16  C   UNL     1      27.115  43.532  53.163  1.00  0.00     0.145 C 
BRANCH  16  17
HETATM   17  C   UNL     1      28.342  43.701  54.020  1.00  0.00    -0.043 A 
HETATM   18  C   UNL     1      28.386  44.691  55.012  1.00  0.00     0.032 A 
HETATM   19  C   UNL     1      29.545  44.875  55.767  1.00  0.00     0.034 A 
HETATM   20  C   UNL     1      30.667  44.078  55.549  1.00  0.00     0.024 A 
HETATM   21 CL   UNL     1      29.592  46.106  56.968  1.00  0.00    -0.084 Cl
HETATM   22  C   UNL     1      30.628  43.084  54.572  1.00  0.00     0.002 A 
HETATM   23  C   UNL     1      29.472  42.896  53.813  1.00  0.00     0.008 A 
ENDBRANCH  16  17
ENDBRANCH   1  16
TORSDOF 2
ENDMDL
MODEL 7
REMARK VINA RESULT:      -7.1      4.475      6.926
REMARK  2 active torsions:
REMARK  status: ('A' for Active; 'I' for Inactive)
REMARK    1  A    between atoms: C_6  and  C_7 
REMARK    2  A    between atoms: C_7  and  N_8 
ROOT
HETATM    1  N   UNL     1      27.735  42.631  51.858  1.00  0.00    -0.203 NA
HETATM    2  S   UNL     1      27.282  41.343  50.846  1.00  0.00     0.219 S 
HETATM    3  O   UNL     1      26.509  40.400  51.612  1.00  0.00    -0.211 OA
HETATM    4  O   UNL     1      28.428  40.970  50.045  1.00  0.00    -0.211 OA
HETATM    5  C   UNL     1      26.226  42.287  49.760  1.00  0.00     0.164 C 
HETATM    6  C   UNL     1      26.079  43.648  50.421  1.00  0.00     0.116 C 
HETATM    7  O   UNL     1      24.861  43.520  51.189  1.00  0.00    -0.369 OA
HETATM    8  C   UNL     1      23.949  42.855  50.287  1.00  0.00     0.149 C 
HETATM    9  C   UNL     1      23.463  43.920  49.279  1.00  0.00     0.264 C 
HETATM   10  N   UNL     1      24.649  44.501  48.525  1.00  0.00    -0.070 N 
HETATM   11  H   UNL     1      24.913  43.871  47.755  1.00  0.00     0.277 HD
HETATM   12  H   UNL     1      24.347  45.374  48.066  1.00  0.00     0.277 HD
HETATM   13  C   UNL     1      25.845  44.795  49.414  1.00  0.00     0.273 C 
HETATM   14  C   UNL     1      27.304  43.928  51.301  1.00  0.00     0.148 C 
HETATM   15  C   UNL     1      24.800  41.766  49.632  1.00  0.00     0.058 C 
ENDROOT
BRANCH   1  16
HETATM   16  C   UNL     1      29.142  42.630  52.334  1.00  0.00     0.145 C 
BRANCH  16  17
HETATM   17  C   UNL     1      29.389  43.417  53.593  1.00  0.00    -0.043 A 
HETATM   18  C   UNL     1      30.415  43.049  54.474  1.00  0.00     0.032 A 
HETATM   19  C   UNL     1      30.604  43.753  55.664  1.00  0.00     0.034 A 
HETATM   20  C   UNL     1      29.781  44.828  55.989  1.00  0.00     0.024 A 
HETATM   21 CL   UNL     1      31.856  43.277  56.745  1.00  0.00    -0.084 Cl
HETATM   22  C   UNL     1      28.764  45.209  55.115  1.00  0.00     0.002 A 
HETATM   23  C   UNL     1      28.569  44.508  53.923  1.00  0.00     0.008 A 
ENDBRANCH  16  17
ENDBRANCH   1  16
TORSDOF 2
ENDMDL
MODEL 8
REMARK VINA RESULT:      -7.1      5.069      6.953
REMARK  2 active torsions:
REMARK  status: ('A' for Active; 'I' for Inactive)
REMARK    1  A    between atoms: C_6  and  C_7 
REMARK    2  A    between atoms: C_7  and  N_8 
ROOT
HETATM    1  N   UNL     1      27.965  45.519  54.074  1.00  0.00    -0.203 NA
HETATM    2  S   UNL     1      26.399  45.472  53.413  1.00  0.00     0.219 S 
HETATM    3  O   UNL     1      26.383  46.250  52.202  1.00  0.00    -0.211 OA
HETATM    4  O   UNL     1      25.446  45.650  54.487  1.00  0.00    -0.211 OA
HETATM    5  C   UNL     1      26.379  43.726  53.040  1.00  0.00     0.164 C 
HETATM    6  C   UNL     1      27.805  43.249  53.262  1.00  0.00     0.116 C 
HETATM    7  O   UNL     1      28.398  43.334  51.946  1.00  0.00    -0.369 OA
HETATM    8  C   UNL     1      27.389  42.778  51.074  1.00  0.00     0.149 C 
HETATM    9  C   UNL     1      27.448  41.244  51.243  1.00  0.00     0.264 C 
HETATM   10  N   UNL     1      27.180  40.871  52.693  1.00  0.00    -0.070 N 
HETATM   11  H   UNL     1      26.166  40.866  52.869  1.00  0.00     0.277 HD
HETATM   12  H   UNL     1      27.483  39.896  52.840  1.00  0.00     0.277 HD
HETATM   13  C   UNL     1      27.895  41.768  53.689  1.00  0.00     0.273 C 
HETATM   14  C   UNL     1      28.501  44.160  54.281  1.00  0.00     0.148 C 
HETATM   15  C   UNL     1      26.080  43.380  51.587  1.00  0.00     0.058 C 
ENDROOT
BRANCH   1  16
HETATM   16  C   UNL     1      28.157  46.415  55.243  1.00  0.00     0.145 C 
BRANCH  16  17
HETATM   17  C   UNL     1      29.095  45.892  56.298  1.00  0.00    -0.043 A 
HETATM   18  C   UNL     1      30.127  45.007  55.958  1.00  0.00     0.032 A 
HETATM   19  C   UNL     1      30.960  44.487  56.950  1.00  0.00     0.034 A 
HETATM   20  C   UNL     1      30.779  44.842  58.284  1.00  0.00     0.024 A 
HETATM   21 CL   UNL     1      32.211  43.387  56.519  1.00  0.00    -0.084 Cl
HETATM   22  C   UNL     1      29.762  45.730  58.631  1.00  0.00     0.002 A 
HETATM   23  C   UNL     1      28.925  46.253  57.644  1.00  0.00     0.008 A 
ENDBRANCH  16  17
ENDBRANCH   1  16
TORSDOF 2
ENDMDL
MODEL 9
REMARK VINA RESULT:      -7.1      3.956      6.534
REMARK  2 active torsions:
REMARK  status: ('A' for Active; 'I' for Inactive)
REMARK    1  A    between atoms: C_6  and  C_7 
REMARK    2  A    between atoms: C_7  and  N_8 
ROOT
HETATM    1  N   UNL     1      26.619  45.663  53.029  1.00  0.00    -0.203 NA
HETATM    2  S   UNL     1      25.901  46.914  52.130  1.00  0.00     0.219 S 
HETATM    3  O   UNL     1      26.905  47.521  51.295  1.00  0.00    -0.211 OA
HETATM    4  O   UNL     1      25.036  47.668  53.011  1.00  0.00    -0.211 OA
HETATM    5  C   UNL     1      24.814  45.882  51.160  1.00  0.00     0.164 C 
HETATM    6  C   UNL     1      25.253  44.454  51.444  1.00  0.00     0.116 C 
HETATM    7  O   UNL     1      26.179  44.166  50.372  1.00  0.00    -0.369 OA
HETATM    8  C   UNL     1      25.522  44.688  49.195  1.00  0.00     0.149 C 
HETATM    9  C   UNL     1      24.421  43.676  48.813  1.00  0.00     0.264 C 
HETATM   10  N   UNL     1      23.436  43.519  49.962  1.00  0.00    -0.070 N 
HETATM   11  H   UNL     1      22.755  44.291  49.943  1.00  0.00     0.277 HD
HETATM   12  H   UNL     1      22.880  42.666  49.801  1.00  0.00     0.277 HD
HETATM   13  C   UNL     1      24.106  43.427  51.322  1.00  0.00     0.273 C 
HETATM   14  C   UNL     1      25.912  44.383  52.827  1.00  0.00     0.148 C 
HETATM   15  C   UNL     1      24.956  46.034  49.651  1.00  0.00     0.058 C 
ENDROOT
BRANCH   1  16
HETATM   16  C   UNL     1      26.907  45.961  54.455  1.00  0.00     0.145 C 
BRANCH  16  17
HETATM   17  C   UNL     1      28.179  45.356  54.987  1.00  0.00    -0.043 A 
HETATM   18  C   UNL     1      28.785  45.871  56.142  1.00  0.00     0.032 A 
HETATM   19  C   UNL     1      29.991  45.338  56.599  1.00  0.00     0.034 A 
HETATM   20  C   UNL     1      30.604  44.289  55.919  1.00  0.00     0.024 A 
HETATM   21 CL   UNL     1      30.732  45.993  58.007  1.00  0.00    -0.084 Cl
HETATM   22  C   UNL     1      30.004  43.762  54.776  1.00  0.00     0.002 A 
HETATM   23  C   UNL     1      28.798  44.292  54.313  1.00  0.00     0.008 A 
ENDBRANCH  16  17
ENDBRANCH   1  16
TORSDOF 2
ENDMDL
MODEL 10
REMARK VINA RESULT:      -7.0      4.287      6.401
REMARK  2 active torsions:
REMARK  status: ('A' for Active; 'I' for Inactive)
REMARK    1  A    between atoms: C_6  and  C_7 
REMARK    2  A    between atoms: C_7  and  N_8 
ROOT
HETATM    1  N   UNL     1      26.330  44.109  51.822  1.00  0.00    -0.203 NA
HETATM    2  S   UNL     1      27.027  43.875  50.289  1.00  0.00     0.219 S 
HETATM    3  O   UNL     1      27.781  42.648  50.305  1.00  0.00    -0.211 OA
HETATM    4  O   UNL     1      27.569  45.139  49.838  1.00  0.00    -0.211 OA
HETATM    5  C   UNL     1      25.499  43.663  49.391  1.00  0.00     0.164 C 
HETATM    6  C   UNL     1      24.418  43.552  50.454  1.00  0.00     0.116 C 
HETATM    7  O   UNL     1      24.283  42.126  50.651  1.00  0.00    -0.369 OA
HETATM    8  C   UNL     1      24.284  41.588  49.310  1.00  0.00     0.149 C 
HETATM    9  C   UNL     1      22.885  41.862  48.717  1.00  0.00     0.264 C 
HETATM   10  N   UNL     1      22.609  43.357  48.704  1.00  0.00    -0.070 N 
HETATM   11  H   UNL     1      23.057  43.785  47.882  1.00  0.00     0.277 HD
HETATM   12  H   UNL     1      21.597  43.501  48.564  1.00  0.00     0.277 HD
HETATM   13  C   UNL     1      23.039  44.062  49.979  1.00  0.00     0.273 C 
HETATM   14  C   UNL     1      24.867  44.282  51.725  1.00  0.00     0.148 C 
HETATM   15  C   UNL     1      25.391  42.368  48.597  1.00  0.00     0.058 C 
ENDROOT
BRANCH   1  16
HETATM   16  C   UNL     1      26.988  45.114  52.696  1.00  0.00     0.145 C 
BRANCH  16  17
HETATM   17  C   UNL     1      28.048  44.562  53.613  1.00  0.00    -0.043 A 
HETATM   18  C   UNL     1      28.531  45.326  54.684  1.00  0.00     0.032 A 
HETATM   19  C   UNL     1      29.549  44.827  55.497  1.00  0.00     0.034 A 
HETATM   20  C   UNL     1      30.094  43.568  55.259  1.00  0.00     0.024 A 
HETATM   21 CL   UNL     1      30.146  45.785  56.797  1.00  0.00    -0.084 Cl
HETATM   22  C   UNL     1      29.612  42.796  54.203  1.00  0.00     0.002 A 
HETATM   23  C   UNL     1      28.595  43.289  53.385  1.00  0.00     0.008 A 
ENDBRANCH  16  17
ENDBRANCH   1  16
TORSDOF 2
ENDMDL
