MODEL 1
REMARK VINA RESULT:      -9.0      0.000      0.000
REMARK  14 active torsions:
REMARK  status: ('A' for Active; 'I' for Inactive)
REMARK    1  A    between atoms: C_2  and  O_3 
REMARK    2  A    between atoms: O_3  and  C_4 
REMARK    3  A    between atoms: C_5  and  O_6 
REMARK    4  A    between atoms: C_9  and  C_10 
REMARK    5  A    between atoms: N_11  and  C_12 
REMARK    6  A    between atoms: C_12  and  C_13 
REMARK    7  A    between atoms: C_13  and  C_14 
REMARK    8  A    between atoms: C_14  and  N_15 
REMARK    9  A    between atoms: C_24  and  O_25 
REMARK   10  A    between atoms: C_26  and  C_27 
REMARK   11  A    between atoms: C_27  and  C_28 
REMARK   12  A    between atoms: C_32  and  O_33 
REMARK   13  A    between atoms: O_33  and  C_34 
REMARK   14  A    between atoms: C_34  and  C_35 
ROOT
HETATM    1  C   UNL     1      26.708  44.646  51.501  1.00  0.00     0.161 C 
HETATM    2  N   UNL     1      26.529  44.454  52.939  1.00  0.00    -0.333 N 
HETATM    3  C   UNL     1      25.839  45.511  53.497  1.00  0.00     0.278 C 
HETATM    4  O   UNL     1      25.503  45.663  54.660  1.00  0.00    -0.265 OA
HETATM    5  C   UNL     1      25.588  46.500  52.427  1.00  0.00     0.146 C 
HETATM    6  C   UNL     1      26.166  46.030  51.317  1.00  0.00     0.059 C 
ENDROOT
BRANCH   6   7
HETATM    7  C   UNL     1      26.370  46.703  50.018  1.00  0.00     0.193 C 
HETATM    8  O   UNL     1      27.423  46.530  49.411  1.00  0.00    -0.287 OA
BRANCH   7   9
HETATM    9  C   UNL     1      25.374  47.677  49.495  1.00  0.00     0.015 A 
HETATM   10  C   UNL     1      24.044  47.260  49.357  1.00  0.00     0.025 A 
HETATM   11  C   UNL     1      23.074  48.117  48.807  1.00  0.00    -0.028 A 
HETATM   12  C   UNL     1      21.655  47.641  48.656  1.00  0.00     0.051 C 
HETATM   13  C   UNL     1      23.443  49.410  48.396  1.00  0.00     0.074 A 
HETATM   14  C   UNL     1      24.776  49.813  48.508  1.00  0.00     0.038 A 
HETATM   15  C   UNL     1      25.738  48.948  49.040  1.00  0.00     0.018 A 
BRANCH  13  16
HETATM   16  O   UNL     1      22.438  50.182  47.876  1.00  0.00    -0.350 OA
BRANCH  16  17
HETATM   17  C   UNL     1      21.982  51.287  48.659  1.00  0.00     0.179 C 
BRANCH  17  18
HETATM   18  C   UNL     1      20.479  51.487  48.423  1.00  0.00     0.002 C 
HETATM   19  C   UNL     1      19.949  50.535  47.349  1.00  0.00     0.011 C 
HETATM   20  C   UNL     1      19.707  51.300  49.728  1.00  0.00     0.011 C 
ENDBRANCH  17  18
ENDBRANCH  16  17
ENDBRANCH  13  16
ENDBRANCH   7   9
ENDBRANCH   6   7
BRANCH   1  21
HETATM   21  C   UNL     1      25.975  43.532  50.767  1.00  0.00    -0.028 A 
HETATM   22  C   UNL     1      26.654  42.390  50.296  1.00  0.00     0.012 A 
HETATM   23  C   UNL     1      25.985  41.422  49.549  1.00  0.00     0.040 A 
HETATM   24  C   UNL     1      24.635  41.588  49.280  1.00  0.00     0.099 A 
HETATM   25  C   UNL     1      23.921  42.691  49.758  1.00  0.00     0.102 A 
HETATM   26  C   UNL     1      24.598  43.664  50.497  1.00  0.00     0.049 A 
BRANCH  24  27
HETATM   27  O   UNL     1      24.009  40.632  48.529  1.00  0.00    -0.358 OA
HETATM   28  H   UNL     1      24.563  39.832  48.615  1.00  0.00     0.218 HD
ENDBRANCH  24  27
BRANCH  25  29
HETATM   29  O   UNL     1      22.596  42.715  49.414  1.00  0.00    -0.349 OA
BRANCH  29  30
HETATM   30  C   UNL     1      22.063  43.968  48.987  1.00  0.00     0.171 C 
HETATM   31  C   UNL     1      22.053  43.977  47.469  1.00  0.00     0.034 C 
ENDBRANCH  29  30
ENDBRANCH  25  29
ENDBRANCH   1  21
BRANCH   5  32
HETATM   32  O   UNL     1      24.970  47.695  52.637  1.00  0.00    -0.355 OA
HETATM   33  H   UNL     1      25.548  48.214  53.232  1.00  0.00     0.218 HD
ENDBRANCH   5  32
BRANCH   2  34
HETATM   34  C   UNL     1      27.388  43.541  53.676  1.00  0.00     0.129 C 
BRANCH  34  35
HETATM   35  C   UNL     1      28.855  43.958  53.762  1.00  0.00     0.048 C 
BRANCH  35  36
HETATM   36  C   UNL     1      29.069  45.097  54.751  1.00  0.00     0.236 C 
BRANCH  36  37
HETATM   37  N   UNL     1      29.686  44.559  56.025  1.00  0.00    -0.067 N 
HETATM   38  H   UNL     1      28.982  43.992  56.512  1.00  0.00     0.280 HD
HETATM   39  C   UNL     1      30.897  43.659  55.755  1.00  0.00     0.261 C 
HETATM   40  C   UNL     1      31.463  43.154  57.088  1.00  0.00     0.195 C 
HETATM   41  O   UNL     1      31.818  44.246  57.944  1.00  0.00    -0.388 OA
HETATM   42  C   UNL     1      30.690  45.072  58.252  1.00  0.00     0.195 C 
HETATM   43  C   UNL     1      30.091  45.681  56.980  1.00  0.00     0.261 C 
ENDBRANCH  36  37
ENDBRANCH  35  36
ENDBRANCH  34  35
ENDBRANCH   2  34
TORSDOF 14
ENDMDL
MODEL 2
REMARK VINA RESULT:      -8.7      1.105      2.108
REMARK  14 active torsions:
REMARK  status: ('A' for Active; 'I' for Inactive)
REMARK    1  A    between atoms: C_2  and  O_3 
REMARK    2  A    between atoms: O_3  and  C_4 
REMARK    3  A    between atoms: C_5  and  O_6 
REMARK    4  A    between atoms: C_9  and  C_10 
REMARK    5  A    between atoms: N_11  and  C_12 
REMARK    6  A    between atoms: C_12  and  C_13 
REMARK    7  A    between atoms: C_13  and  C_14 
REMARK    8  A    between atoms: C_14  and  N_15 
REMARK    9  A    between atoms: C_24  and  O_25 
REMARK   10  A    between atoms: C_26  and  C_27 
REMARK   11  A    between atoms: C_27  and  C_28 
REMARK   12  A    between atoms: C_32  and  O_33 
REMARK   13  A    between atoms: O_33  and  C_34 
REMARK   14  A    between atoms: C_34  and  C_35 
ROOT
HETATM    1  C   UNL     1      26.170  44.709  50.981  1.00  0.00     0.161 C 
HETATM    2  N   UNL     1      26.138  44.326  52.391  1.00  0.00    -0.333 N 
HETATM    3  C   UNL     1      25.749  45.386  53.184  1.00  0.00     0.278 C 
HETATM    4  O   UNL     1      25.599  45.408  54.394  1.00  0.00    -0.265 OA
HETATM    5  C   UNL     1      25.569  46.562  52.306  1.00  0.00     0.146 C 
HETATM    6  C   UNL     1      25.897  46.179  51.068  1.00  0.00     0.059 C 
ENDROOT
BRANCH   6   7
HETATM    7  C   UNL     1      26.066  47.004  49.853  1.00  0.00     0.193 C 
HETATM    8  O   UNL     1      27.166  47.053  49.310  1.00  0.00    -0.287 OA
BRANCH   7   9
HETATM    9  C   UNL     1      24.962  47.865  49.351  1.00  0.00     0.015 A 
HETATM   10  C   UNL     1      23.676  47.315  49.267  1.00  0.00     0.025 A 
HETATM   11  C   UNL     1      22.608  48.062  48.738  1.00  0.00    -0.028 A 
HETATM   12  C   UNL     1      21.238  47.446  48.645  1.00  0.00     0.051 C 
HETATM   13  C   UNL     1      22.833  49.377  48.295  1.00  0.00     0.074 A 
HETATM   14  C   UNL     1      24.121  49.912  48.353  1.00  0.00     0.038 A 
HETATM   15  C   UNL     1      25.183  49.156  48.865  1.00  0.00     0.018 A 
BRANCH  13  16
HETATM   16  O   UNL     1      21.738  50.037  47.799  1.00  0.00    -0.350 OA
BRANCH  16  17
HETATM   17  C   UNL     1      21.305  51.209  48.492  1.00  0.00     0.179 C 
BRANCH  17  18
HETATM   18  C   UNL     1      19.802  51.096  48.783  1.00  0.00     0.002 C 
HETATM   19  C   UNL     1      19.542  50.661  50.227  1.00  0.00     0.011 C 
HETATM   20  C   UNL     1      19.105  52.424  48.494  1.00  0.00     0.011 C 
ENDBRANCH  17  18
ENDBRANCH  16  17
ENDBRANCH  13  16
ENDBRANCH   7   9
ENDBRANCH   6   7
BRANCH   1  21
HETATM   21  C   UNL     1      25.142  43.876  50.227  1.00  0.00    -0.028 A 
HETATM   22  C   UNL     1      23.765  43.974  50.511  1.00  0.00     0.012 A 
HETATM   23  C   UNL     1      22.846  43.142  49.874  1.00  0.00     0.040 A 
HETATM   24  C   UNL     1      23.300  42.218  48.946  1.00  0.00     0.099 A 
HETATM   25  C   UNL     1      24.655  42.114  48.615  1.00  0.00     0.102 A 
HETATM   26  C   UNL     1      25.573  42.943  49.263  1.00  0.00     0.049 A 
BRANCH  24  27
HETATM   27  O   UNL     1      22.379  41.401  48.350  1.00  0.00    -0.358 OA
HETATM   28  H   UNL     1      22.185  40.706  49.009  1.00  0.00     0.218 HD
ENDBRANCH  24  27
BRANCH  25  29
HETATM   29  O   UNL     1      24.950  41.160  47.678  1.00  0.00    -0.349 OA
BRANCH  29  30
HETATM   30  C   UNL     1      25.759  40.065  48.107  1.00  0.00     0.171 C 
HETATM   31  C   UNL     1      26.727  39.733  46.985  1.00  0.00     0.034 C 
ENDBRANCH  29  30
ENDBRANCH  25  29
ENDBRANCH   1  21
BRANCH   5  32
HETATM   32  O   UNL     1      25.233  47.799  52.765  1.00  0.00    -0.355 OA
HETATM   33  H   UNL     1      25.585  47.869  53.675  1.00  0.00     0.218 HD
ENDBRANCH   5  32
BRANCH   2  34
HETATM   34  C   UNL     1      26.883  43.167  52.859  1.00  0.00     0.129 C 
BRANCH  34  35
HETATM   35  C   UNL     1      28.402  43.291  52.761  1.00  0.00     0.048 C 
BRANCH  35  36
HETATM   36  C   UNL     1      29.106  42.642  53.947  1.00  0.00     0.236 C 
BRANCH  36  37
HETATM   37  N   UNL     1      29.886  43.690  54.715  1.00  0.00    -0.067 N 
HETATM   38  H   UNL     1      30.602  44.082  54.092  1.00  0.00     0.280 HD
HETATM   39  C   UNL     1      29.001  44.849  55.188  1.00  0.00     0.261 C 
HETATM   40  C   UNL     1      29.859  45.864  55.952  1.00  0.00     0.195 C 
HETATM   41  O   UNL     1      30.527  45.247  57.057  1.00  0.00    -0.388 OA
HETATM   42  C   UNL     1      31.400  44.194  56.634  1.00  0.00     0.195 C 
HETATM   43  C   UNL     1      30.619  43.090  55.912  1.00  0.00     0.261 C 
ENDBRANCH  36  37
ENDBRANCH  35  36
ENDBRANCH  34  35
ENDBRANCH   2  34
TORSDOF 14
ENDMDL
MODEL 3
REMARK VINA RESULT:      -8.3      2.559      4.025
REMARK  14 active torsions:
REMARK  status: ('A' for Active; 'I' for Inactive)
REMARK    1  A    between atoms: C_2  and  O_3 
REMARK    2  A    between atoms: O_3  and  C_4 
REMARK    3  A    between atoms: C_5  and  O_6 
REMARK    4  A    between atoms: C_9  and  C_10 
REMARK    5  A    between atoms: N_11  and  C_12 
REMARK    6  A    between atoms: C_12  and  C_13 
REMARK    7  A    between atoms: C_13  and  C_14 
REMARK    8  A    between atoms: C_14  and  N_15 
REMARK    9  A    between atoms: C_24  and  O_25 
REMARK   10  A    between atoms: C_26  and  C_27 
REMARK   11  A    between atoms: C_27  and  C_28 
REMARK   12  A    between atoms: C_32  and  O_33 
REMARK   13  A    between atoms: O_33  and  C_34 
REMARK   14  A    between atoms: C_34  and  C_35 
ROOT
HETATM    1  C   UNL     1      26.264  44.481  50.945  1.00  0.00     0.161 C 
HETATM    2  N   UNL     1      26.268  44.103  52.357  1.00  0.00    -0.333 N 
HETATM    3  C   UNL     1      25.972  45.186  53.161  1.00  0.00     0.278 C 
HETATM    4  O   UNL     1      25.874  45.218  54.376  1.00  0.00    -0.265 OA
HETATM    5  C   UNL     1      25.822  46.368  52.286  1.00  0.00     0.146 C 
HETATM    6  C   UNL     1      26.077  45.964  51.037  1.00  0.00     0.059 C 
ENDROOT
BRANCH   6   7
HETATM    7  C   UNL     1      26.243  46.776  49.813  1.00  0.00     0.193 C 
HETATM    8  O   UNL     1      27.323  46.765  49.228  1.00  0.00    -0.287 OA
BRANCH   7   9
HETATM    9  C   UNL     1      25.167  47.693  49.350  1.00  0.00     0.015 A 
HETATM   10  C   UNL     1      23.870  47.181  49.213  1.00  0.00     0.025 A 
HETATM   11  C   UNL     1      22.829  47.985  48.717  1.00  0.00    -0.028 A 
HETATM   12  C   UNL     1      21.447  47.409  48.566  1.00  0.00     0.051 C 
HETATM   13  C   UNL     1      23.091  49.320  48.360  1.00  0.00     0.074 A 
HETATM   14  C   UNL     1      24.391  49.818  48.470  1.00  0.00     0.038 A 
HETATM   15  C   UNL     1      25.426  49.006  48.949  1.00  0.00     0.018 A 
BRANCH  13  16
HETATM   16  O   UNL     1      22.020  50.035  47.891  1.00  0.00    -0.350 OA
BRANCH  16  17
HETATM   17  C   UNL     1      21.552  51.122  48.691  1.00  0.00     0.179 C 
BRANCH  17  18
HETATM   18  C   UNL     1      20.032  51.004  48.862  1.00  0.00     0.002 C 
HETATM   19  C   UNL     1      19.659  50.599  50.290  1.00  0.00     0.011 C 
HETATM   20  C   UNL     1      19.352  52.320  48.488  1.00  0.00     0.011 C 
ENDBRANCH  17  18
ENDBRANCH  16  17
ENDBRANCH  13  16
ENDBRANCH   7   9
ENDBRANCH   6   7
BRANCH   1  21
HETATM   21  C   UNL     1      25.161  43.707  50.238  1.00  0.00    -0.028 A 
HETATM   22  C   UNL     1      23.800  43.935  50.525  1.00  0.00     0.012 A 
HETATM   23  C   UNL     1      22.807  43.157  49.933  1.00  0.00     0.040 A 
HETATM   24  C   UNL     1      23.171  42.155  49.046  1.00  0.00     0.099 A 
HETATM   25  C   UNL     1      24.508  41.921  48.712  1.00  0.00     0.102 A 
HETATM   26  C   UNL     1      25.500  42.697  49.315  1.00  0.00     0.049 A 
BRANCH  24  27
HETATM   27  O   UNL     1      22.177  41.395  48.495  1.00  0.00    -0.358 OA
HETATM   28  H   UNL     1      21.649  42.013  47.953  1.00  0.00     0.218 HD
ENDBRANCH  24  27
BRANCH  25  29
HETATM   29  O   UNL     1      24.710  40.903  47.819  1.00  0.00    -0.349 OA
BRANCH  29  30
HETATM   30  C   UNL     1      24.946  41.273  46.461  1.00  0.00     0.171 C 
HETATM   31  C   UNL     1      26.042  40.376  45.916  1.00  0.00     0.034 C 
ENDBRANCH  29  30
ENDBRANCH  25  29
ENDBRANCH   1  21
BRANCH   5  32
HETATM   32  O   UNL     1      25.576  47.623  52.753  1.00  0.00    -0.355 OA
HETATM   33  H   UNL     1      24.622  47.793  52.620  1.00  0.00     0.218 HD
ENDBRANCH   5  32
BRANCH   2  34
HETATM   34  C   UNL     1      26.965  42.905  52.800  1.00  0.00     0.129 C 
BRANCH  34  35
HETATM   35  C   UNL     1      28.080  42.424  51.872  1.00  0.00     0.048 C 
BRANCH  35  36
HETATM   36  C   UNL     1      28.586  41.040  52.258  1.00  0.00     0.236 C 
BRANCH  36  37
HETATM   37  N   UNL     1      29.029  40.293  51.016  1.00  0.00    -0.067 N 
HETATM   38  H   UNL     1      29.884  40.737  50.659  1.00  0.00     0.280 HD
HETATM   39  C   UNL     1      29.356  38.823  51.301  1.00  0.00     0.261 C 
HETATM   40  C   UNL     1      29.796  38.139  50.002  1.00  0.00     0.195 C 
HETATM   41  O   UNL     1      28.787  38.252  48.992  1.00  0.00    -0.388 OA
HETATM   42  C   UNL     1      28.502  39.617  48.671  1.00  0.00     0.195 C 
HETATM   43  C   UNL     1      27.988  40.374  49.901  1.00  0.00     0.261 C 
ENDBRANCH  36  37
ENDBRANCH  35  36
ENDBRANCH  34  35
ENDBRANCH   2  34
TORSDOF 14
ENDMDL
MODEL 4
REMARK VINA RESULT:      -8.2      2.441      9.040
REMARK  14 active torsions:
REMARK  status: ('A' for Active; 'I' for Inactive)
REMARK    1  A    between atoms: C_2  and  O_3 
REMARK    2  A    between atoms: O_3  and  C_4 
REMARK    3  A    between atoms: C_5  and  O_6 
REMARK    4  A    between atoms: C_9  and  C_10 
REMARK    5  A    between atoms: N_11  and  C_12 
REMARK    6  A    between atoms: C_12  and  C_13 
REMARK    7  A    between atoms: C_13  and  C_14 
REMARK    8  A    between atoms: C_14  and  N_15 
REMARK    9  A    between atoms: C_24  and  O_25 
REMARK   10  A    between atoms: C_26  and  C_27 
REMARK   11  A    between atoms: C_27  and  C_28 
REMARK   12  A    between atoms: C_32  and  O_33 
REMARK   13  A    between atoms: O_33  and  C_34 
REMARK   14  A    between atoms: C_34  and  C_35 
ROOT
HETATM    1  C   UNL     1      24.117  45.045  50.143  1.00  0.00     0.161 C 
HETATM    2  N   UNL     1      24.038  46.195  49.246  1.00  0.00    -0.333 N 
HETATM    3  C   UNL     1      24.877  47.209  49.664  1.00  0.00     0.278 C 
HETATM    4  O   UNL     1      25.070  48.292  49.139  1.00  0.00    -0.265 OA
HETATM    5  C   UNL     1      25.509  46.776  50.928  1.00  0.00     0.146 C 
HETATM    6  C   UNL     1      24.998  45.578  51.230  1.00  0.00     0.059 C 
ENDROOT
BRANCH   6   7
HETATM    7  C   UNL     1      25.151  44.788  52.470  1.00  0.00     0.193 C 
HETATM    8  O   UNL     1      24.170  44.222  52.945  1.00  0.00    -0.287 OA
BRANCH   7   9
HETATM    9  C   UNL     1      26.440  44.767  53.212  1.00  0.00     0.015 A 
HETATM   10  C   UNL     1      27.482  43.976  52.713  1.00  0.00     0.025 A 
HETATM   11  C   UNL     1      28.699  43.867  53.408  1.00  0.00    -0.028 A 
HETATM   12  C   UNL     1      29.799  43.000  52.859  1.00  0.00     0.051 C 
HETATM   13  C   UNL     1      28.874  44.566  54.616  1.00  0.00     0.074 A 
HETATM   14  C   UNL     1      27.823  45.332  55.125  1.00  0.00     0.038 A 
HETATM   15  C   UNL     1      26.608  45.421  54.436  1.00  0.00     0.018 A 
BRANCH  13  16
HETATM   16  O   UNL     1      30.091  44.410  55.227  1.00  0.00    -0.350 OA
BRANCH  16  17
HETATM   17  C   UNL     1      30.510  45.433  56.132  1.00  0.00     0.179 C 
BRANCH  17  18
HETATM   18  C   UNL     1      31.178  44.784  57.352  1.00  0.00     0.002 C 
HETATM   19  C   UNL     1      30.403  45.078  58.638  1.00  0.00     0.011 C 
HETATM   20  C   UNL     1      31.311  43.276  57.144  1.00  0.00     0.011 C 
ENDBRANCH  17  18
ENDBRANCH  16  17
ENDBRANCH  13  16
ENDBRANCH   7   9
ENDBRANCH   6   7
BRANCH   1  21
HETATM   21  C   UNL     1      24.655  43.855  49.363  1.00  0.00    -0.028 A 
HETATM   22  C   UNL     1      23.860  43.173  48.418  1.00  0.00     0.012 A 
HETATM   23  C   UNL     1      24.337  42.033  47.777  1.00  0.00     0.040 A 
HETATM   24  C   UNL     1      25.613  41.575  48.070  1.00  0.00     0.099 A 
HETATM   25  C   UNL     1      26.442  42.243  48.976  1.00  0.00     0.102 A 
HETATM   26  C   UNL     1      25.956  43.380  49.624  1.00  0.00     0.049 A 
BRANCH  24  27
HETATM   27  O   UNL     1      26.049  40.442  47.440  1.00  0.00    -0.358 OA
HETATM   28  H   UNL     1      25.981  40.636  46.484  1.00  0.00     0.218 HD
ENDBRANCH  24  27
BRANCH  25  29
HETATM   29  O   UNL     1      27.675  41.675  49.158  1.00  0.00    -0.349 OA
BRANCH  29  30
HETATM   30  C   UNL     1      27.899  41.005  50.398  1.00  0.00     0.171 C 
HETATM   31  C   UNL     1      28.547  39.665  50.094  1.00  0.00     0.034 C 
ENDBRANCH  29  30
ENDBRANCH  25  29
ENDBRANCH   1  21
BRANCH   5  32
HETATM   32  O   UNL     1      26.362  47.556  51.648  1.00  0.00    -0.355 OA
HETATM   33  H   UNL     1      26.930  46.952  52.167  1.00  0.00     0.218 HD
ENDBRANCH   5  32
BRANCH   2  34
HETATM   34  C   UNL     1      22.887  46.376  48.374  1.00  0.00     0.129 C 
BRANCH  34  35
HETATM   35  C   UNL     1      21.546  45.958  48.976  1.00  0.00     0.048 C 
BRANCH  35  36
HETATM   36  C   UNL     1      20.413  46.880  48.543  1.00  0.00     0.236 C 
BRANCH  36  37
HETATM   37  N   UNL     1      20.289  48.031  49.520  1.00  0.00    -0.067 N 
HETATM   38  H   UNL     1      20.866  47.821  50.344  1.00  0.00     0.280 HD
HETATM   39  C   UNL     1      20.789  49.356  48.932  1.00  0.00     0.261 C 
HETATM   40  C   UNL     1      20.633  50.467  49.977  1.00  0.00     0.195 C 
HETATM   41  O   UNL     1      19.273  50.581  50.410  1.00  0.00    -0.388 OA
HETATM   42  C   UNL     1      18.800  49.371  51.010  1.00  0.00     0.195 C 
HETATM   43  C   UNL     1      18.855  48.206  50.016  1.00  0.00     0.261 C 
ENDBRANCH  36  37
ENDBRANCH  35  36
ENDBRANCH  34  35
ENDBRANCH   2  34
TORSDOF 14
ENDMDL
MODEL 5
REMARK VINA RESULT:      -8.0     10.970     14.401
REMARK  14 active torsions:
REMARK  status: ('A' for Active; 'I' for Inactive)
REMARK    1  A    between atoms: C_2  and  O_3 
REMARK    2  A    between atoms: O_3  and  C_4 
REMARK    3  A    between atoms: C_5  and  O_6 
REMARK    4  A    between atoms: C_9  and  C_10 
REMARK    5  A    between atoms: N_11  and  C_12 
REMARK    6  A    between atoms: C_12  and  C_13 
REMARK    7  A    between atoms: C_13  and  C_14 
REMARK    8  A    between atoms: C_14  and  N_15 
REMARK    9  A    between atoms: C_24  and  O_25 
REMARK   10  A    between atoms: C_26  and  C_27 
REMARK   11  A    between atoms: C_27  and  C_28 
REMARK   12  A    between atoms: C_32  and  O_33 
REMARK   13  A    between atoms: O_33  and  C_34 
REMARK   14  A    between atoms: C_34  and  C_35 
ROOT
HETATM    1  C   UNL     1      29.847  48.897  40.018  1.00  0.00     0.161 C 
HETATM    2  N   UNL     1      29.155  49.783  39.086  1.00  0.00    -0.333 N 
HETATM    3  C   UNL     1      30.054  50.489  38.312  1.00  0.00     0.278 C 
HETATM    4  O   UNL     1      29.819  51.294  37.428  1.00  0.00    -0.265 OA
HETATM    5  C   UNL     1      31.415  50.132  38.767  1.00  0.00     0.146 C 
HETATM    6  C   UNL     1      31.275  49.290  39.796  1.00  0.00     0.059 C 
ENDROOT
BRANCH   6   7
HETATM    7  C   UNL     1      32.304  48.777  40.724  1.00  0.00     0.193 C 
HETATM    8  O   UNL     1      32.428  47.564  40.870  1.00  0.00    -0.287 OA
BRANCH   7   9
HETATM    9  C   UNL     1      33.107  49.703  41.567  1.00  0.00     0.015 A 
HETATM   10  C   UNL     1      32.506  50.258  42.704  1.00  0.00     0.025 A 
HETATM   11  C   UNL     1      33.196  51.189  43.500  1.00  0.00    -0.028 A 
HETATM   12  C   UNL     1      32.524  51.781  44.709  1.00  0.00     0.051 C 
HETATM   13  C   UNL     1      34.507  51.563  43.155  1.00  0.00     0.074 A 
HETATM   14  C   UNL     1      35.092  51.029  42.005  1.00  0.00     0.038 A 
HETATM   15  C   UNL     1      34.393  50.116  41.207  1.00  0.00     0.018 A 
BRANCH  13  16
HETATM   16  O   UNL     1      35.109  52.470  43.986  1.00  0.00    -0.350 OA
BRANCH  16  17
HETATM   17  C   UNL     1      36.518  52.348  44.185  1.00  0.00     0.179 C 
BRANCH  17  18
HETATM   18  C   UNL     1      37.184  53.708  43.935  1.00  0.00     0.002 C 
HETATM   19  C   UNL     1      37.602  54.377  45.246  1.00  0.00     0.011 C 
HETATM   20  C   UNL     1      38.390  53.547  43.012  1.00  0.00     0.011 C 
ENDBRANCH  17  18
ENDBRANCH  16  17
ENDBRANCH  13  16
ENDBRANCH   7   9
ENDBRANCH   6   7
BRANCH   1  21
HETATM   21  C   UNL     1      29.485  47.457  39.682  1.00  0.00    -0.028 A 
HETATM   22  C   UNL     1      29.979  46.826  38.522  1.00  0.00     0.012 A 
HETATM   23  C   UNL     1      29.569  45.539  38.182  1.00  0.00     0.040 A 
HETATM   24  C   UNL     1      28.671  44.876  39.005  1.00  0.00     0.099 A 
HETATM   25  C   UNL     1      28.185  45.457  40.180  1.00  0.00     0.102 A 
HETATM   26  C   UNL     1      28.591  46.751  40.511  1.00  0.00     0.049 A 
BRANCH  24  27
HETATM   27  O   UNL     1      28.271  43.621  38.638  1.00  0.00    -0.358 OA
HETATM   28  H   UNL     1      28.342  43.079  39.448  1.00  0.00     0.218 HD
ENDBRANCH  24  27
BRANCH  25  29
HETATM   29  O   UNL     1      27.310  44.678  40.890  1.00  0.00    -0.349 OA
BRANCH  29  30
HETATM   30  C   UNL     1      26.246  45.352  41.561  1.00  0.00     0.171 C 
HETATM   31  C   UNL     1      25.832  44.504  42.750  1.00  0.00     0.034 C 
ENDBRANCH  29  30
ENDBRANCH  25  29
ENDBRANCH   1  21
BRANCH   5  32
HETATM   32  O   UNL     1      32.549  50.684  38.252  1.00  0.00    -0.355 OA
HETATM   33  H   UNL     1      32.415  50.757  37.286  1.00  0.00     0.218 HD
ENDBRANCH   5  32
BRANCH   2  34
HETATM   34  C   UNL     1      27.776  50.181  39.328  1.00  0.00     0.129 C 
BRANCH  34  35
HETATM   35  C   UNL     1      27.378  50.275  40.800  1.00  0.00     0.048 C 
BRANCH  35  36
HETATM   36  C   UNL     1      27.506  51.695  41.337  1.00  0.00     0.236 C 
BRANCH  36  37
HETATM   37  N   UNL     1      28.807  52.307  40.860  1.00  0.00    -0.067 N 
HETATM   38  H   UNL     1      29.236  51.667  40.182  1.00  0.00     0.280 HD
HETATM   39  C   UNL     1      28.599  53.653  40.158  1.00  0.00     0.261 C 
HETATM   40  C   UNL     1      29.955  54.206  39.705  1.00  0.00     0.195 C 
HETATM   41  O   UNL     1      30.853  54.340  40.813  1.00  0.00    -0.388 OA
HETATM   42  C   UNL     1      31.104  53.084  41.453  1.00  0.00     0.195 C 
HETATM   43  C   UNL     1      29.807  52.479  42.002  1.00  0.00     0.261 C 
ENDBRANCH  36  37
ENDBRANCH  35  36
ENDBRANCH  34  35
ENDBRANCH   2  34
TORSDOF 14
ENDMDL
MODEL 6
REMARK VINA RESULT:      -7.9      4.149      6.762
REMARK  14 active torsions:
REMARK  status: ('A' for Active; 'I' for Inactive)
REMARK    1  A    between atoms: C_2  and  O_3 
REMARK    2  A    between atoms: O_3  and  C_4 
REMARK    3  A    between atoms: C_5  and  O_6 
REMARK    4  A    between atoms: C_9  and  C_10 
REMARK    5  A    between atoms: N_11  and  C_12 
REMARK    6  A    between atoms: C_12  and  C_13 
REMARK    7  A    between atoms: C_13  and  C_14 
REMARK    8  A    between atoms: C_14  and  N_15 
REMARK    9  A    between atoms: C_24  and  O_25 
REMARK   10  A    between atoms: C_26  and  C_27 
REMARK   11  A    between atoms: C_27  and  C_28 
REMARK   12  A    between atoms: C_32  and  O_33 
REMARK   13  A    between atoms: O_33  and  C_34 
REMARK   14  A    between atoms: C_34  and  C_35 
ROOT
HETATM    1  C   UNL     1      22.508  46.775  47.578  1.00  0.00     0.161 C 
HETATM    2  N   UNL     1      23.091  45.663  48.326  1.00  0.00    -0.333 N 
HETATM    3  C   UNL     1      23.638  46.099  49.515  1.00  0.00     0.278 C 
HETATM    4  O   UNL     1      24.183  45.437  50.382  1.00  0.00    -0.265 OA
HETATM    5  C   UNL     1      23.491  47.570  49.566  1.00  0.00     0.146 C 
HETATM    6  C   UNL     1      22.923  47.945  48.415  1.00  0.00     0.059 C 
ENDROOT
BRANCH   6   7
HETATM    7  C   UNL     1      22.720  49.307  47.880  1.00  0.00     0.193 C 
HETATM    8  O   UNL     1      23.613  49.831  47.220  1.00  0.00    -0.287 OA
BRANCH   7   9
HETATM    9  C   UNL     1      21.506  50.094  48.226  1.00  0.00     0.015 A 
HETATM   10  C   UNL     1      20.515  50.253  47.249  1.00  0.00     0.025 A 
HETATM   11  C   UNL     1      19.378  51.040  47.499  1.00  0.00    -0.028 A 
HETATM   12  C   UNL     1      18.333  51.207  46.429  1.00  0.00     0.051 C 
HETATM   13  C   UNL     1      19.231  51.672  48.747  1.00  0.00     0.074 A 
HETATM   14  C   UNL     1      20.235  51.536  49.708  1.00  0.00     0.038 A 
HETATM   15  C   UNL     1      21.372  50.764  49.445  1.00  0.00     0.018 A 
BRANCH  13  16
HETATM   16  O   UNL     1      18.092  52.416  48.911  1.00  0.00    -0.350 OA
BRANCH  16  17
HETATM   17  C   UNL     1      17.197  52.031  49.956  1.00  0.00     0.179 C 
BRANCH  17  18
HETATM   18  C   UNL     1      15.804  52.605  49.664  1.00  0.00     0.002 C 
HETATM   19  C   UNL     1      15.707  54.076  50.074  1.00  0.00     0.011 C 
HETATM   20  C   UNL     1      15.463  52.442  48.184  1.00  0.00     0.011 C 
ENDBRANCH  17  18
ENDBRANCH  16  17
ENDBRANCH  13  16
ENDBRANCH   7   9
ENDBRANCH   6   7
BRANCH   1  21
HETATM   21  C   UNL     1      21.010  46.540  47.445  1.00  0.00    -0.028 A 
HETATM   22  C   UNL     1      20.449  46.016  46.262  1.00  0.00     0.012 A 
HETATM   23  C   UNL     1      19.069  45.889  46.124  1.00  0.00     0.040 A 
HETATM   24  C   UNL     1      18.246  46.277  47.171  1.00  0.00     0.099 A 
HETATM   25  C   UNL     1      18.767  46.770  48.371  1.00  0.00     0.102 A 
HETATM   26  C   UNL     1      20.150  46.904  48.501  1.00  0.00     0.049 A 
BRANCH  24  27
HETATM   27  O   UNL     1      16.894  46.159  47.001  1.00  0.00    -0.358 OA
HETATM   28  H   UNL     1      16.507  46.328  47.883  1.00  0.00     0.218 HD
ENDBRANCH  24  27
BRANCH  25  29
HETATM   29  O   UNL     1      17.831  47.105  49.312  1.00  0.00    -0.349 OA
BRANCH  29  30
HETATM   30  C   UNL     1      17.810  48.466  49.744  1.00  0.00     0.171 C 
HETATM   31  C   UNL     1      18.526  48.542  51.081  1.00  0.00     0.034 C 
ENDBRANCH  29  30
ENDBRANCH  25  29
ENDBRANCH   1  21
BRANCH   5  32
HETATM   32  O   UNL     1      23.968  48.338  50.583  1.00  0.00    -0.355 OA
HETATM   33  H   UNL     1      23.312  49.047  50.736  1.00  0.00     0.218 HD
ENDBRANCH   5  32
BRANCH   2  34
HETATM   34  C   UNL     1      23.448  44.424  47.651  1.00  0.00     0.129 C 
BRANCH  34  35
HETATM   35  C   UNL     1      22.537  43.236  47.953  1.00  0.00     0.048 C 
BRANCH  35  36
HETATM   36  C   UNL     1      23.053  42.402  49.119  1.00  0.00     0.236 C 
BRANCH  36  37
HETATM   37  N   UNL     1      24.568  42.401  49.116  1.00  0.00    -0.067 N 
HETATM   38  H   UNL     1      24.892  43.306  48.755  1.00  0.00     0.280 HD
HETATM   39  C   UNL     1      25.157  42.224  50.520  1.00  0.00     0.261 C 
HETATM   40  C   UNL     1      26.688  42.235  50.434  1.00  0.00     0.195 C 
HETATM   41  O   UNL     1      27.162  41.215  49.548  1.00  0.00    -0.388 OA
HETATM   42  C   UNL     1      26.666  41.389  48.217  1.00  0.00     0.195 C 
HETATM   43  C   UNL     1      25.135  41.327  48.189  1.00  0.00     0.261 C 
ENDBRANCH  36  37
ENDBRANCH  35  36
ENDBRANCH  34  35
ENDBRANCH   2  34
TORSDOF 14
ENDMDL
MODEL 7
REMARK VINA RESULT:      -7.9     10.854     14.786
REMARK  14 active torsions:
REMARK  status: ('A' for Active; 'I' for Inactive)
REMARK    1  A    between atoms: C_2  and  O_3 
REMARK    2  A    between atoms: O_3  and  C_4 
REMARK    3  A    between atoms: C_5  and  O_6 
REMARK    4  A    between atoms: C_9  and  C_10 
REMARK    5  A    between atoms: N_11  and  C_12 
REMARK    6  A    between atoms: C_12  and  C_13 
REMARK    7  A    between atoms: C_13  and  C_14 
REMARK    8  A    between atoms: C_14  and  N_15 
REMARK    9  A    between atoms: C_24  and  O_25 
REMARK   10  A    between atoms: C_26  and  C_27 
REMARK   11  A    between atoms: C_27  and  C_28 
REMARK   12  A    between atoms: C_32  and  O_33 
REMARK   13  A    between atoms: O_33  and  C_34 
REMARK   14  A    between atoms: C_34  and  C_35 
ROOT
HETATM    1  C   UNL     1      29.754  49.137  39.971  1.00  0.00     0.161 C 
HETATM    2  N   UNL     1      29.091  50.055  39.048  1.00  0.00    -0.333 N 
HETATM    3  C   UNL     1      30.011  50.710  38.254  1.00  0.00     0.278 C 
HETATM    4  O   UNL     1      29.801  51.523  37.370  1.00  0.00    -0.265 OA
HETATM    5  C   UNL     1      31.360  50.283  38.684  1.00  0.00     0.146 C 
HETATM    6  C   UNL     1      31.196  49.455  39.720  1.00  0.00     0.059 C 
ENDROOT
BRANCH   6   7
HETATM    7  C   UNL     1      32.214  48.891  40.631  1.00  0.00     0.193 C 
HETATM    8  O   UNL     1      32.325  47.672  40.726  1.00  0.00    -0.287 OA
BRANCH   7   9
HETATM    9  C   UNL     1      33.021  49.772  41.518  1.00  0.00     0.015 A 
HETATM   10  C   UNL     1      32.388  50.371  42.615  1.00  0.00     0.025 A 
HETATM   11  C   UNL     1      33.085  51.263  43.448  1.00  0.00    -0.028 A 
HETATM   12  C   UNL     1      32.379  51.904  44.613  1.00  0.00     0.051 C 
HETATM   13  C   UNL     1      34.434  51.553  43.181  1.00  0.00     0.074 A 
HETATM   14  C   UNL     1      35.054  50.977  42.070  1.00  0.00     0.038 A 
HETATM   15  C   UNL     1      34.349  50.103  41.235  1.00  0.00     0.018 A 
BRANCH  13  16
HETATM   16  O   UNL     1      35.041  52.428  44.044  1.00  0.00    -0.350 OA
BRANCH  16  17
HETATM   17  C   UNL     1      36.465  52.372  44.147  1.00  0.00     0.179 C 
BRANCH  17  18
HETATM   18  C   UNL     1      37.049  53.754  43.821  1.00  0.00     0.002 C 
HETATM   19  C   UNL     1      37.942  54.266  44.952  1.00  0.00     0.011 C 
HETATM   20  C   UNL     1      37.829  53.703  42.509  1.00  0.00     0.011 C 
ENDBRANCH  17  18
ENDBRANCH  16  17
ENDBRANCH  13  16
ENDBRANCH   7   9
ENDBRANCH   6   7
BRANCH   1  21
HETATM   21  C   UNL     1      29.311  47.717  39.648  1.00  0.00    -0.028 A 
HETATM   22  C   UNL     1      29.613  47.115  38.410  1.00  0.00     0.012 A 
HETATM   23  C   UNL     1      29.125  45.849  38.096  1.00  0.00     0.040 A 
HETATM   24  C   UNL     1      28.342  45.177  39.021  1.00  0.00     0.099 A 
HETATM   25  C   UNL     1      28.048  45.728  40.272  1.00  0.00     0.102 A 
HETATM   26  C   UNL     1      28.531  47.002  40.579  1.00  0.00     0.049 A 
BRANCH  24  27
HETATM   27  O   UNL     1      27.861  43.943  38.680  1.00  0.00    -0.358 OA
HETATM   28  H   UNL     1      27.230  43.707  39.387  1.00  0.00     0.218 HD
ENDBRANCH  24  27
BRANCH  25  29
HETATM   29  O   UNL     1      27.268  44.944  41.080  1.00  0.00    -0.349 OA
BRANCH  29  30
HETATM   30  C   UNL     1      26.108  45.554  41.646  1.00  0.00     0.171 C 
HETATM   31  C   UNL     1      25.647  44.692  42.807  1.00  0.00     0.034 C 
ENDBRANCH  29  30
ENDBRANCH  25  29
ENDBRANCH   1  21
BRANCH   5  32
HETATM   32  O   UNL     1      32.511  50.773  38.146  1.00  0.00    -0.355 OA
HETATM   33  H   UNL     1      32.644  51.666  38.523  1.00  0.00     0.218 HD
ENDBRANCH   5  32
BRANCH   2  34
HETATM   34  C   UNL     1      27.740  50.525  39.314  1.00  0.00     0.129 C 
BRANCH  34  35
HETATM   35  C   UNL     1      26.686  50.072  38.305  1.00  0.00     0.048 C 
BRANCH  35  36
HETATM   36  C   UNL     1      25.939  48.831  38.778  1.00  0.00     0.236 C 
BRANCH  36  37
HETATM   37  N   UNL     1      24.591  49.230  39.344  1.00  0.00    -0.067 N 
HETATM   38  H   UNL     1      24.749  49.812  40.175  1.00  0.00     0.280 HD
HETATM   39  C   UNL     1      23.760  50.053  38.353  1.00  0.00     0.261 C 
HETATM   40  C   UNL     1      22.417  50.418  38.997  1.00  0.00     0.195 C 
HETATM   41  O   UNL     1      21.707  49.245  39.411  1.00  0.00    -0.388 OA
HETATM   42  C   UNL     1      22.443  48.487  40.376  1.00  0.00     0.195 C 
HETATM   43  C   UNL     1      23.783  48.017  39.800  1.00  0.00     0.261 C 
ENDBRANCH  36  37
ENDBRANCH  35  36
ENDBRANCH  34  35
ENDBRANCH   2  34
TORSDOF 14
ENDMDL
MODEL 8
REMARK VINA RESULT:      -7.8      4.799     10.550
REMARK  14 active torsions:
REMARK  status: ('A' for Active; 'I' for Inactive)
REMARK    1  A    between atoms: C_2  and  O_3 
REMARK    2  A    between atoms: O_3  and  C_4 
REMARK    3  A    between atoms: C_5  and  O_6 
REMARK    4  A    between atoms: C_9  and  C_10 
REMARK    5  A    between atoms: N_11  and  C_12 
REMARK    6  A    between atoms: C_12  and  C_13 
REMARK    7  A    between atoms: C_13  and  C_14 
REMARK    8  A    between atoms: C_14  and  N_15 
REMARK    9  A    between atoms: C_24  and  O_25 
REMARK   10  A    between atoms: C_26  and  C_27 
REMARK   11  A    between atoms: C_27  and  C_28 
REMARK   12  A    between atoms: C_32  and  O_33 
REMARK   13  A    between atoms: O_33  and  C_34 
REMARK   14  A    between atoms: C_34  and  C_35 
ROOT
HETATM    1  C   UNL     1      20.348  49.650  48.360  1.00  0.00     0.161 C 
HETATM    2  N   UNL     1      19.794  50.006  49.665  1.00  0.00    -0.333 N 
HETATM    3  C   UNL     1      19.026  48.977  50.174  1.00  0.00     0.278 C 
HETATM    4  O   UNL     1      18.439  48.932  51.241  1.00  0.00    -0.265 OA
HETATM    5  C   UNL     1      18.991  47.899  49.162  1.00  0.00     0.146 C 
HETATM    6  C   UNL     1      19.677  48.337  48.102  1.00  0.00     0.059 C 
ENDROOT
BRANCH   6   7
HETATM    7  C   UNL     1      19.797  47.732  46.758  1.00  0.00     0.193 C 
HETATM    8  O   UNL     1      19.210  48.251  45.813  1.00  0.00    -0.287 OA
BRANCH   7   9
HETATM    9  C   UNL     1      20.516  46.445  46.558  1.00  0.00     0.015 A 
HETATM   10  C   UNL     1      19.795  45.350  46.066  1.00  0.00     0.025 A 
HETATM   11  C   UNL     1      20.407  44.093  45.918  1.00  0.00    -0.028 A 
HETATM   12  C   UNL     1      19.608  42.928  45.401  1.00  0.00     0.051 C 
HETATM   13  C   UNL     1      21.761  43.935  46.263  1.00  0.00     0.074 A 
HETATM   14  C   UNL     1      22.470  45.022  46.780  1.00  0.00     0.038 A 
HETATM   15  C   UNL     1      21.848  46.266  46.940  1.00  0.00     0.018 A 
BRANCH  13  16
HETATM   16  O   UNL     1      22.282  42.680  46.085  1.00  0.00    -0.350 OA
BRANCH  16  17
HETATM   17  C   UNL     1      23.563  42.411  46.657  1.00  0.00     0.179 C 
BRANCH  17  18
HETATM   18  C   UNL     1      23.399  41.420  47.817  1.00  0.00     0.002 C 
HETATM   19  C   UNL     1      23.119  42.144  49.136  1.00  0.00     0.011 C 
HETATM   20  C   UNL     1      22.283  40.424  47.510  1.00  0.00     0.011 C 
ENDBRANCH  17  18
ENDBRANCH  16  17
ENDBRANCH  13  16
ENDBRANCH   7   9
ENDBRANCH   6   7
BRANCH   1  21
HETATM   21  C   UNL     1      21.866  49.622  48.468  1.00  0.00    -0.028 A 
HETATM   22  C   UNL     1      22.673  50.510  47.727  1.00  0.00     0.012 A 
HETATM   23  C   UNL     1      24.062  50.413  47.769  1.00  0.00     0.040 A 
HETATM   24  C   UNL     1      24.648  49.436  48.559  1.00  0.00     0.099 A 
HETATM   25  C   UNL     1      23.882  48.559  49.332  1.00  0.00     0.102 A 
HETATM   26  C   UNL     1      22.489  48.653  49.279  1.00  0.00     0.049 A 
BRANCH  24  27
HETATM   27  O   UNL     1      26.013  49.351  48.567  1.00  0.00    -0.358 OA
HETATM   28  H   UNL     1      26.222  48.588  49.141  1.00  0.00     0.218 HD
ENDBRANCH  24  27
BRANCH  25  29
HETATM   29  O   UNL     1      24.602  47.652  50.063  1.00  0.00    -0.349 OA
BRANCH  29  30
HETATM   30  C   UNL     1      24.287  46.274  49.871  1.00  0.00     0.171 C 
HETATM   31  C   UNL     1      24.697  45.522  51.125  1.00  0.00     0.034 C 
ENDBRANCH  29  30
ENDBRANCH  25  29
ENDBRANCH   1  21
BRANCH   5  32
HETATM   32  O   UNL     1      18.280  46.749  49.314  1.00  0.00    -0.355 OA
HETATM   33  H   UNL     1      17.344  47.007  49.433  1.00  0.00     0.218 HD
ENDBRANCH   5  32
BRANCH   2  34
HETATM   34  C   UNL     1      19.689  51.399  50.070  1.00  0.00     0.129 C 
BRANCH  34  35
HETATM   35  C   UNL     1      18.957  52.307  49.083  1.00  0.00     0.048 C 
BRANCH  35  36
HETATM   36  C   UNL     1      17.450  52.300  49.310  1.00  0.00     0.236 C 
BRANCH  36  37
HETATM   37  N   UNL     1      16.750  51.761  48.079  1.00  0.00    -0.067 N 
HETATM   38  H   UNL     1      15.980  52.398  47.840  1.00  0.00     0.280 HD
HETATM   39  C   UNL     1      17.680  51.683  46.864  1.00  0.00     0.261 C 
HETATM   40  C   UNL     1      16.902  51.132  45.663  1.00  0.00     0.195 C 
HETATM   41  O   UNL     1      16.336  49.850  45.959  1.00  0.00    -0.388 OA
HETATM   42  C   UNL     1      15.424  49.909  47.059  1.00  0.00     0.195 C 
HETATM   43  C   UNL     1      16.129  50.389  48.333  1.00  0.00     0.261 C 
ENDBRANCH  36  37
ENDBRANCH  35  36
ENDBRANCH  34  35
ENDBRANCH   2  34
TORSDOF 14
ENDMDL
MODEL 9
REMARK VINA RESULT:      -7.8      1.955      4.568
REMARK  14 active torsions:
REMARK  status: ('A' for Active; 'I' for Inactive)
REMARK    1  A    between atoms: C_2  and  O_3 
REMARK    2  A    between atoms: O_3  and  C_4 
REMARK    3  A    between atoms: C_5  and  O_6 
REMARK    4  A    between atoms: C_9  and  C_10 
REMARK    5  A    between atoms: N_11  and  C_12 
REMARK    6  A    between atoms: C_12  and  C_13 
REMARK    7  A    between atoms: C_13  and  C_14 
REMARK    8  A    between atoms: C_14  and  N_15 
REMARK    9  A    between atoms: C_24  and  O_25 
REMARK   10  A    between atoms: C_26  and  C_27 
REMARK   11  A    between atoms: C_27  and  C_28 
REMARK   12  A    between atoms: C_32  and  O_33 
REMARK   13  A    between atoms: O_33  and  C_34 
REMARK   14  A    between atoms: C_34  and  C_35 
ROOT
HETATM    1  C   UNL     1      24.427  45.097  50.036  1.00  0.00     0.161 C 
HETATM    2  N   UNL     1      25.073  44.232  51.021  1.00  0.00    -0.333 N 
HETATM    3  C   UNL     1      25.274  42.965  50.511  1.00  0.00     0.278 C 
HETATM    4  O   UNL     1      25.802  42.009  51.053  1.00  0.00    -0.265 OA
HETATM    5  C   UNL     1      24.690  42.929  49.153  1.00  0.00     0.146 C 
HETATM    6  C   UNL     1      24.136  44.125  48.934  1.00  0.00     0.059 C 
ENDROOT
BRANCH   6   7
HETATM    7  C   UNL     1      23.269  44.558  47.818  1.00  0.00     0.193 C 
HETATM    8  O   UNL     1      23.524  44.178  46.679  1.00  0.00    -0.287 OA
BRANCH   7   9
HETATM    9  C   UNL     1      22.171  45.538  48.036  1.00  0.00     0.015 A 
HETATM   10  C   UNL     1      20.861  45.054  48.149  1.00  0.00     0.025 A 
HETATM   11  C   UNL     1      19.777  45.939  48.290  1.00  0.00    -0.028 A 
HETATM   12  C   UNL     1      18.378  45.396  48.395  1.00  0.00     0.051 C 
HETATM   13  C   UNL     1      20.012  47.325  48.325  1.00  0.00     0.074 A 
HETATM   14  C   UNL     1      21.316  47.805  48.183  1.00  0.00     0.038 A 
HETATM   15  C   UNL     1      22.387  46.918  48.026  1.00  0.00     0.018 A 
BRANCH  13  16
HETATM   16  O   UNL     1      18.903  48.116  48.470  1.00  0.00    -0.350 OA
BRANCH  16  17
HETATM   17  C   UNL     1      19.045  49.510  48.187  1.00  0.00     0.179 C 
BRANCH  17  18
HETATM   18  C   UNL     1      18.646  50.320  49.428  1.00  0.00     0.002 C 
HETATM   19  C   UNL     1      18.897  49.532  50.716  1.00  0.00     0.011 C 
HETATM   20  C   UNL     1      19.402  51.647  49.461  1.00  0.00     0.011 C 
ENDBRANCH  17  18
ENDBRANCH  16  17
ENDBRANCH  13  16
ENDBRANCH   7   9
ENDBRANCH   6   7
BRANCH   1  21
HETATM   21  C   UNL     1      25.374  46.238  49.695  1.00  0.00    -0.028 A 
HETATM   22  C   UNL     1      26.765  46.034  49.592  1.00  0.00     0.012 A 
HETATM   23  C   UNL     1      27.627  47.106  49.365  1.00  0.00     0.040 A 
HETATM   24  C   UNL     1      27.100  48.381  49.232  1.00  0.00     0.099 A 
HETATM   25  C   UNL     1      25.724  48.617  49.296  1.00  0.00     0.102 A 
HETATM   26  C   UNL     1      24.865  47.542  49.533  1.00  0.00     0.049 A 
BRANCH  24  27
HETATM   27  O   UNL     1      27.970  49.417  49.029  1.00  0.00    -0.358 OA
HETATM   28  H   UNL     1      27.990  49.552  48.062  1.00  0.00     0.218 HD
ENDBRANCH  24  27
BRANCH  25  29
HETATM   29  O   UNL     1      25.354  49.927  49.141  1.00  0.00    -0.349 OA
BRANCH  29  30
HETATM   30  C   UNL     1      24.386  50.209  48.131  1.00  0.00     0.171 C 
HETATM   31  C   UNL     1      23.220  50.924  48.789  1.00  0.00     0.034 C 
ENDBRANCH  29  30
ENDBRANCH  25  29
ENDBRANCH   1  21
BRANCH   5  32
HETATM   32  O   UNL     1      24.666  41.812  48.375  1.00  0.00    -0.355 OA
HETATM   33  H   UNL     1      25.596  41.544  48.233  1.00  0.00     0.218 HD
ENDBRANCH   5  32
BRANCH   2  34
HETATM   34  C   UNL     1      25.026  44.560  52.437  1.00  0.00     0.129 C 
BRANCH  34  35
HETATM   35  C   UNL     1      26.371  44.924  53.063  1.00  0.00     0.048 C 
BRANCH  35  36
HETATM   36  C   UNL     1      26.957  43.771  53.869  1.00  0.00     0.236 C 
BRANCH  36  37
HETATM   37  N   UNL     1      27.879  44.313  54.942  1.00  0.00    -0.067 N 
HETATM   38  H   UNL     1      27.627  43.875  55.836  1.00  0.00     0.280 HD
HETATM   39  C   UNL     1      29.352  43.992  54.667  1.00  0.00     0.261 C 
HETATM   40  C   UNL     1      30.217  44.570  55.793  1.00  0.00     0.195 C 
HETATM   41  O   UNL     1      30.017  45.982  55.925  1.00  0.00    -0.388 OA
HETATM   42  C   UNL     1      28.657  46.303  56.233  1.00  0.00     0.195 C 
HETATM   43  C   UNL     1      27.713  45.821  55.126  1.00  0.00     0.261 C 
ENDBRANCH  36  37
ENDBRANCH  35  36
ENDBRANCH  34  35
ENDBRANCH   2  34
TORSDOF 14
ENDMDL
MODEL 10
REMARK VINA RESULT:      -7.7      4.021     10.690
REMARK  14 active torsions:
REMARK  status: ('A' for Active; 'I' for Inactive)
REMARK    1  A    between atoms: C_2  and  O_3 
REMARK    2  A    between atoms: O_3  and  C_4 
REMARK    3  A    between atoms: C_5  and  O_6 
REMARK    4  A    between atoms: C_9  and  C_10 
REMARK    5  A    between atoms: N_11  and  C_12 
REMARK    6  A    between atoms: C_12  and  C_13 
REMARK    7  A    between atoms: C_13  and  C_14 
REMARK    8  A    between atoms: C_14  and  N_15 
REMARK    9  A    between atoms: C_24  and  O_25 
REMARK   10  A    between atoms: C_26  and  C_27 
REMARK   11  A    between atoms: C_27  and  C_28 
REMARK   12  A    between atoms: C_32  and  O_33 
REMARK   13  A    between atoms: O_33  and  C_34 
REMARK   14  A    between atoms: C_34  and  C_35 
ROOT
HETATM    1  C   UNL     1      20.495  48.277  48.955  1.00  0.00     0.161 C 
HETATM    2  N   UNL     1      20.251  49.699  49.186  1.00  0.00    -0.333 N 
HETATM    3  C   UNL     1      21.214  50.473  48.570  1.00  0.00     0.278 C 
HETATM    4  O   UNL     1      21.301  51.689  48.544  1.00  0.00    -0.265 OA
HETATM    5  C   UNL     1      22.195  49.559  47.947  1.00  0.00     0.146 C 
HETATM    6  C   UNL     1      21.816  48.314  48.251  1.00  0.00     0.059 C 
ENDROOT
BRANCH   6   7
HETATM    7  C   UNL     1      22.539  47.043  48.034  1.00  0.00     0.193 C 
HETATM    8  O   UNL     1      22.365  46.425  46.987  1.00  0.00    -0.287 OA
BRANCH   7   9
HETATM    9  C   UNL     1      23.376  46.444  49.108  1.00  0.00     0.015 A 
HETATM   10  C   UNL     1      23.296  45.061  49.321  1.00  0.00     0.025 A 
HETATM   11  C   UNL     1      24.015  44.451  50.364  1.00  0.00    -0.028 A 
HETATM   12  C   UNL     1      23.902  42.967  50.581  1.00  0.00     0.051 C 
HETATM   13  C   UNL     1      24.829  45.238  51.199  1.00  0.00     0.074 A 
HETATM   14  C   UNL     1      24.884  46.619  51.002  1.00  0.00     0.038 A 
HETATM   15  C   UNL     1      24.151  47.221  49.972  1.00  0.00     0.018 A 
BRANCH  13  16
HETATM   16  O   UNL     1      25.499  44.565  52.186  1.00  0.00    -0.350 OA
BRANCH  16  17
HETATM   17  C   UNL     1      26.927  44.612  52.164  1.00  0.00     0.179 C 
BRANCH  17  18
HETATM   18  C   UNL     1      27.451  44.725  53.602  1.00  0.00     0.002 C 
HETATM   19  C   UNL     1      27.132  46.093  54.209  1.00  0.00     0.011 C 
HETATM   20  C   UNL     1      26.867  43.610  54.468  1.00  0.00     0.011 C 
ENDBRANCH  17  18
ENDBRANCH  16  17
ENDBRANCH  13  16
ENDBRANCH   7   9
ENDBRANCH   6   7
BRANCH   1  21
HETATM   21  C   UNL     1      19.326  47.705  48.164  1.00  0.00    -0.028 A 
HETATM   22  C   UNL     1      18.722  46.483  48.524  1.00  0.00     0.012 A 
HETATM   23  C   UNL     1      17.712  45.931  47.739  1.00  0.00     0.040 A 
HETATM   24  C   UNL     1      17.298  46.601  46.598  1.00  0.00     0.099 A 
HETATM   25  C   UNL     1      17.851  47.830  46.228  1.00  0.00     0.102 A 
HETATM   26  C   UNL     1      18.870  48.376  47.012  1.00  0.00     0.049 A 
BRANCH  24  27
HETATM   27  O   UNL     1      16.318  46.026  45.837  1.00  0.00    -0.358 OA
HETATM   28  H   UNL     1      16.323  46.521  44.994  1.00  0.00     0.218 HD
ENDBRANCH  24  27
BRANCH  25  29
HETATM   29  O   UNL     1      17.336  48.373  45.081  1.00  0.00    -0.349 OA
BRANCH  29  30
HETATM   30  C   UNL     1      18.243  48.565  43.995  1.00  0.00     0.171 C 
HETATM   31  C   UNL     1      18.318  50.053  43.707  1.00  0.00     0.034 C 
ENDBRANCH  29  30
ENDBRANCH  25  29
ENDBRANCH   1  21
BRANCH   5  32
HETATM   32  O   UNL     1      23.311  49.985  47.294  1.00  0.00    -0.355 OA
HETATM   33  H   UNL     1      23.361  50.954  47.420  1.00  0.00     0.218 HD
ENDBRANCH   5  32
BRANCH   2  34
HETATM   34  C   UNL     1      19.418  50.136  50.295  1.00  0.00     0.129 C 
BRANCH  34  35
HETATM   35  C   UNL     1      18.054  50.698  49.900  1.00  0.00     0.048 C 
BRANCH  35  36
HETATM   36  C   UNL     1      18.077  52.216  49.768  1.00  0.00     0.236 C 
BRANCH  36  37
HETATM   37  N   UNL     1      17.259  52.638  48.564  1.00  0.00    -0.067 N 
HETATM   38  H   UNL     1      17.521  53.599  48.315  1.00  0.00     0.280 HD
HETATM   39  C   UNL     1      17.521  51.755  47.339  1.00  0.00     0.261 C 
HETATM   40  C   UNL     1      16.661  52.244  46.167  1.00  0.00     0.195 C 
HETATM   41  O   UNL     1      15.271  52.242  46.512  1.00  0.00    -0.388 OA
HETATM   42  C   UNL     1      14.994  53.101  47.622  1.00  0.00     0.195 C 
HETATM   43  C   UNL     1      15.763  52.651  48.870  1.00  0.00     0.261 C 
ENDBRANCH  36  37
ENDBRANCH  35  36
ENDBRANCH  34  35
ENDBRANCH   2  34
TORSDOF 14
ENDMDL
