MODEL 1
REMARK VINA RESULT:     -10.7      0.000      0.000
REMARK  8 active torsions:
REMARK  status: ('A' for Active; 'I' for Inactive)
REMARK    1  A    between atoms: C_2  and  O_3 
REMARK    2  A    between atoms: C_2  and  C_14 
REMARK    3  A    between atoms: O_3  and  C_4 
REMARK       I    between atoms: C_14  and  N_15 
REMARK    4  A    between atoms: N_15  and  N_16 
REMARK       I    between atoms: N_16  and  C_17 
REMARK    5  A    between atoms: C_17  and  C_18 
REMARK    6  A    between atoms: C_18  and  C_19 
REMARK    7  A    between atoms: C_19  and  C_20 
REMARK    8  A    between atoms: C_20  and  C_21 
ROOT
HETATM    1  N   UNL     1      26.361  47.931  50.293  1.00  0.00    -0.267 N 
HETATM    2  C   UNL     1      27.080  48.183  49.138  1.00  0.00     0.236 C 
HETATM    3  O   UNL     1      28.044  47.505  48.792  1.00  0.00    -0.272 OA
HETATM    4  H   UNL     1      25.406  48.278  50.383  1.00  0.00     0.190 HD
ENDROOT
BRANCH   1   5
HETATM    5  N   UNL     1      26.595  46.694  50.930  1.00  0.00    -0.265 N 
HETATM    6  C   UNL     1      26.133  46.568  52.232  1.00  0.00     0.265 C 
HETATM    7  O   UNL     1      25.778  47.542  52.896  1.00  0.00    -0.269 OA
HETATM    8  H   UNL     1      26.523  45.871  50.326  1.00  0.00     0.190 HD
BRANCH   6   9
HETATM    9  C   UNL     1      26.224  45.136  52.780  1.00  0.00     0.218 C 
HETATM   10  C   UNL     1      25.049  44.307  52.277  1.00  0.00     0.050 C 
BRANCH   9  11
HETATM   11  O   UNL     1      27.452  44.563  52.322  1.00  0.00    -0.337 OA
BRANCH  11  12
HETATM   12  C   UNL     1      28.396  44.217  53.248  1.00  0.00     0.070 A 
HETATM   13  C   UNL     1      28.444  45.051  54.370  1.00  0.00     0.049 A 
HETATM   14  C   UNL     1      29.362  44.826  55.408  1.00  0.00    -0.023 A 
HETATM   15  C   UNL     1      30.261  43.740  55.310  1.00  0.00    -0.026 A 
HETATM   16  C   UNL     1      29.409  45.653  56.542  1.00  0.00     0.012 A 
HETATM   17  C   UNL     1      30.215  42.918  54.174  1.00  0.00     0.015 A 
HETATM   18  C   UNL     1      31.182  43.512  56.345  1.00  0.00     0.012 A 
HETATM   19  C   UNL     1      29.292  43.156  53.150  1.00  0.00     0.037 A 
HETATM   20  C   UNL     1      31.214  44.344  57.466  1.00  0.00     0.001 A 
HETATM   21  C   UNL     1      30.329  45.413  57.564  1.00  0.00     0.001 A 
ENDBRANCH  11  12
ENDBRANCH   9  11
ENDBRANCH   6   9
ENDBRANCH   1   5
BRANCH   2  22
HETATM   22  C   UNL     1      26.590  49.409  48.394  1.00  0.00     0.105 C 
BRANCH  22  23
HETATM   23  C   UNL     1      25.233  49.887  48.906  1.00  0.00     0.014 C 
BRANCH  23  24
HETATM   24  C   UNL     1      24.260  50.126  47.750  1.00  0.00     0.039 C 
BRANCH  24  25
HETATM   25  C   UNL     1      22.823  50.121  48.214  1.00  0.00    -0.056 A 
HETATM   26  C   UNL     1      22.260  48.952  48.755  1.00  0.00     0.039 A 
HETATM   27  C   UNL     1      20.951  49.025  49.173  1.00  0.00     0.063 A 
HETATM   28  C   UNL     1      20.202  50.195  49.078  1.00  0.00     0.063 A 
HETATM   29  N   UNL     1      20.142  48.045  49.738  1.00  0.00    -0.306 N 
HETATM   30  N   UNL     1      18.934  49.936  49.583  1.00  0.00    -0.307 N 
HETATM   31  C   UNL     1      20.721  51.356  48.561  1.00  0.00     0.032 A 
HETATM   32  C   UNL     1      18.880  48.598  50.000  1.00  0.00     0.325 A 
HETATM   33  H   UNL     1      18.161  50.577  49.656  1.00  0.00     0.170 HD
HETATM   34  O   UNL     1      17.924  48.029  50.493  1.00  0.00    -0.247 OA
HETATM   35  C   UNL     1      22.052  51.312  48.128  1.00  0.00     0.009 A 
HETATM   36  H   UNL     1      20.389  47.092  49.944  1.00  0.00     0.170 HD
ENDBRANCH  24  25
ENDBRANCH  23  24
ENDBRANCH  22  23
ENDBRANCH   2  22
TORSDOF 8
ENDMDL
MODEL 2
REMARK VINA RESULT:     -10.3      1.365      1.813
REMARK  8 active torsions:
REMARK  status: ('A' for Active; 'I' for Inactive)
REMARK    1  A    between atoms: C_2  and  O_3 
REMARK    2  A    between atoms: C_2  and  C_14 
REMARK    3  A    between atoms: O_3  and  C_4 
REMARK       I    between atoms: C_14  and  N_15 
REMARK    4  A    between atoms: N_15  and  N_16 
REMARK       I    between atoms: N_16  and  C_17 
REMARK    5  A    between atoms: C_17  and  C_18 
REMARK    6  A    between atoms: C_18  and  C_19 
REMARK    7  A    between atoms: C_19  and  C_20 
REMARK    8  A    between atoms: C_20  and  C_21 
ROOT
HETATM    1  N   UNL     1      25.147  47.768  49.697  1.00  0.00    -0.267 N 
HETATM    2  C   UNL     1      26.115  48.605  49.172  1.00  0.00     0.236 C 
HETATM    3  O   UNL     1      27.311  48.479  49.421  1.00  0.00    -0.272 OA
HETATM    4  H   UNL     1      24.242  47.683  49.233  1.00  0.00     0.190 HD
ENDROOT
BRANCH   1   5
HETATM    5  N   UNL     1      25.598  46.584  50.316  1.00  0.00    -0.265 N 
HETATM    6  C   UNL     1      25.549  46.548  51.702  1.00  0.00     0.265 C 
HETATM    7  O   UNL     1      25.377  47.564  52.375  1.00  0.00    -0.269 OA
HETATM    8  H   UNL     1      25.376  45.717  49.818  1.00  0.00     0.190 HD
BRANCH   6   9
HETATM    9  C   UNL     1      25.844  45.161  52.292  1.00  0.00     0.218 C 
HETATM   10  C   UNL     1      24.759  44.174  51.880  1.00  0.00     0.050 C 
BRANCH   9  11
HETATM   11  O   UNL     1      27.111  44.725  51.789  1.00  0.00    -0.337 OA
BRANCH  11  12
HETATM   12  C   UNL     1      28.054  44.293  52.680  1.00  0.00     0.070 A 
HETATM   13  C   UNL     1      28.183  45.090  53.822  1.00  0.00     0.049 A 
HETATM   14  C   UNL     1      29.110  44.776  54.829  1.00  0.00    -0.023 A 
HETATM   15  C   UNL     1      29.933  43.639  54.677  1.00  0.00    -0.026 A 
HETATM   16  C   UNL     1      29.239  45.566  55.983  1.00  0.00     0.012 A 
HETATM   17  C   UNL     1      29.806  42.854  53.522  1.00  0.00     0.015 A 
HETATM   18  C   UNL     1      30.863  43.321  55.682  1.00  0.00     0.012 A 
HETATM   19  C   UNL     1      28.876  43.180  52.529  1.00  0.00     0.037 A 
HETATM   20  C   UNL     1      30.977  44.117  56.823  1.00  0.00     0.001 A 
HETATM   21  C   UNL     1      30.165  45.238  56.973  1.00  0.00     0.001 A 
ENDBRANCH  11  12
ENDBRANCH   9  11
ENDBRANCH   6   9
ENDBRANCH   1   5
BRANCH   2  22
HETATM   22  C   UNL     1      25.535  49.715  48.318  1.00  0.00     0.105 C 
BRANCH  22  23
HETATM   23  C   UNL     1      24.208  50.230  48.870  1.00  0.00     0.014 C 
BRANCH  23  24
HETATM   24  C   UNL     1      23.103  50.151  47.816  1.00  0.00     0.039 C 
BRANCH  24  25
HETATM   25  C   UNL     1      21.727  50.213  48.437  1.00  0.00    -0.056 A 
HETATM   26  C   UNL     1      20.995  51.412  48.412  1.00  0.00     0.039 A 
HETATM   27  C   UNL     1      19.742  51.390  48.980  1.00  0.00     0.063 A 
HETATM   28  C   UNL     1      19.204  50.242  49.556  1.00  0.00     0.063 A 
HETATM   29  N   UNL     1      18.803  52.409  49.102  1.00  0.00    -0.306 N 
HETATM   30  N   UNL     1      17.936  50.553  50.032  1.00  0.00    -0.307 N 
HETATM   31  C   UNL     1      19.889  49.052  49.593  1.00  0.00     0.032 A 
HETATM   32  C   UNL     1      17.671  51.902  49.756  1.00  0.00     0.325 A 
HETATM   33  H   UNL     1      17.289  49.938  50.498  1.00  0.00     0.170 HD
HETATM   34  O   UNL     1      16.655  52.513  50.030  1.00  0.00    -0.247 OA
HETATM   35  C   UNL     1      21.167  49.044  49.020  1.00  0.00     0.009 A 
HETATM   36  H   UNL     1      18.887  53.359  48.782  1.00  0.00     0.170 HD
ENDBRANCH  24  25
ENDBRANCH  23  24
ENDBRANCH  22  23
ENDBRANCH   2  22
TORSDOF 8
ENDMDL
MODEL 3
REMARK VINA RESULT:     -10.1      1.970      2.859
REMARK  8 active torsions:
REMARK  status: ('A' for Active; 'I' for Inactive)
REMARK    1  A    between atoms: C_2  and  O_3 
REMARK    2  A    between atoms: C_2  and  C_14 
REMARK    3  A    between atoms: O_3  and  C_4 
REMARK       I    between atoms: C_14  and  N_15 
REMARK    4  A    between atoms: N_15  and  N_16 
REMARK       I    between atoms: N_16  and  C_17 
REMARK    5  A    between atoms: C_17  and  C_18 
REMARK    6  A    between atoms: C_18  and  C_19 
REMARK    7  A    between atoms: C_19  and  C_20 
REMARK    8  A    between atoms: C_20  and  C_21 
ROOT
HETATM    1  N   UNL     1      25.169  47.705  49.879  1.00  0.00    -0.267 N 
HETATM    2  C   UNL     1      24.037  48.162  49.227  1.00  0.00     0.236 C 
HETATM    3  O   UNL     1      22.969  47.557  49.244  1.00  0.00    -0.272 OA
HETATM    4  H   UNL     1      25.913  48.358  50.123  1.00  0.00     0.190 HD
ENDROOT
BRANCH   1   5
HETATM    5  N   UNL     1      24.990  46.653  50.801  1.00  0.00    -0.265 N 
HETATM    6  C   UNL     1      25.826  45.555  50.662  1.00  0.00     0.265 C 
HETATM    7  O   UNL     1      26.504  45.374  49.650  1.00  0.00    -0.269 OA
HETATM    8  H   UNL     1      24.751  46.942  51.753  1.00  0.00     0.190 HD
BRANCH   6   9
HETATM    9  C   UNL     1      25.726  44.555  51.824  1.00  0.00     0.218 C 
HETATM   10  C   UNL     1      24.814  43.396  51.441  1.00  0.00     0.050 C 
BRANCH   9  11
HETATM   11  O   UNL     1      27.041  44.065  52.102  1.00  0.00    -0.337 OA
BRANCH  11  12
HETATM   12  C   UNL     1      27.673  44.496  53.235  1.00  0.00     0.070 A 
HETATM   13  C   UNL     1      28.728  43.682  53.659  1.00  0.00     0.049 A 
HETATM   14  C   UNL     1      29.473  43.993  54.808  1.00  0.00    -0.023 A 
HETATM   15  C   UNL     1      29.141  45.147  55.552  1.00  0.00    -0.026 A 
HETATM   16  C   UNL     1      30.540  43.186  55.234  1.00  0.00     0.012 A 
HETATM   17  C   UNL     1      28.073  45.949  55.127  1.00  0.00     0.015 A 
HETATM   18  C   UNL     1      29.884  45.461  56.703  1.00  0.00     0.012 A 
HETATM   19  C   UNL     1      27.342  45.626  53.979  1.00  0.00     0.037 A 
HETATM   20  C   UNL     1      30.942  44.648  57.112  1.00  0.00     0.001 A 
HETATM   21  C   UNL     1      31.269  43.512  56.378  1.00  0.00     0.001 A 
ENDBRANCH  11  12
ENDBRANCH   9  11
ENDBRANCH   6   9
ENDBRANCH   1   5
BRANCH   2  22
HETATM   22  C   UNL     1      24.279  49.442  48.452  1.00  0.00     0.105 C 
BRANCH  22  23
HETATM   23  C   UNL     1      22.993  49.995  47.842  1.00  0.00     0.014 C 
BRANCH  23  24
HETATM   24  C   UNL     1      22.536  51.259  48.570  1.00  0.00     0.039 C 
BRANCH  24  25
HETATM   25  C   UNL     1      21.079  51.187  48.962  1.00  0.00    -0.056 A 
HETATM   26  C   UNL     1      20.137  52.019  48.332  1.00  0.00     0.039 A 
HETATM   27  C   UNL     1      18.826  51.888  48.725  1.00  0.00     0.063 A 
HETATM   28  C   UNL     1      18.427  50.975  49.699  1.00  0.00     0.063 A 
HETATM   29  N   UNL     1      17.693  52.565  48.287  1.00  0.00    -0.306 N 
HETATM   30  N   UNL     1      17.052  51.091  49.860  1.00  0.00    -0.307 N 
HETATM   31  C   UNL     1      19.318  50.143  50.330  1.00  0.00     0.032 A 
HETATM   32  C   UNL     1      16.579  52.080  48.985  1.00  0.00     0.325 A 
HETATM   33  H   UNL     1      16.462  50.568  50.487  1.00  0.00     0.170 HD
HETATM   34  O   UNL     1      15.424  52.444  48.857  1.00  0.00    -0.247 OA
HETATM   35  C   UNL     1      20.661  50.254  49.949  1.00  0.00     0.009 A 
HETATM   36  H   UNL     1      17.645  53.285  47.585  1.00  0.00     0.170 HD
ENDBRANCH  24  25
ENDBRANCH  23  24
ENDBRANCH  22  23
ENDBRANCH   2  22
TORSDOF 8
ENDMDL
MODEL 4
REMARK VINA RESULT:      -9.8      2.680      3.544
REMARK  8 active torsions:
REMARK  status: ('A' for Active; 'I' for Inactive)
REMARK    1  A    between atoms: C_2  and  O_3 
REMARK    2  A    between atoms: C_2  and  C_14 
REMARK    3  A    between atoms: O_3  and  C_4 
REMARK       I    between atoms: C_14  and  N_15 
REMARK    4  A    between atoms: N_15  and  N_16 
REMARK       I    between atoms: N_16  and  C_17 
REMARK    5  A    between atoms: C_17  and  C_18 
REMARK    6  A    between atoms: C_18  and  C_19 
REMARK    7  A    between atoms: C_19  and  C_20 
REMARK    8  A    between atoms: C_20  and  C_21 
ROOT
HETATM    1  N   UNL     1      22.949  47.715  49.752  1.00  0.00    -0.267 N 
HETATM    2  C   UNL     1      22.256  47.890  48.568  1.00  0.00     0.236 C 
HETATM    3  O   UNL     1      22.519  47.265  47.543  1.00  0.00    -0.272 OA
HETATM    4  H   UNL     1      22.518  47.982  50.637  1.00  0.00     0.190 HD
ENDROOT
BRANCH   1   5
HETATM    5  N   UNL     1      23.798  46.592  49.832  1.00  0.00    -0.265 N 
HETATM    6  C   UNL     1      24.774  46.618  50.817  1.00  0.00     0.265 C 
HETATM    7  O   UNL     1      25.068  47.652  51.417  1.00  0.00    -0.269 OA
HETATM    8  H   UNL     1      23.351  45.691  49.640  1.00  0.00     0.190 HD
BRANCH   6   9
HETATM    9  C   UNL     1      25.511  45.281  50.989  1.00  0.00     0.218 C 
HETATM   10  C   UNL     1      26.942  45.402  50.478  1.00  0.00     0.050 C 
BRANCH   9  11
HETATM   11  O   UNL     1      25.521  44.955  52.382  1.00  0.00    -0.337 OA
BRANCH  11  12
HETATM   12  C   UNL     1      26.647  44.390  52.912  1.00  0.00     0.070 A 
HETATM   13  C   UNL     1      27.305  45.183  53.858  1.00  0.00     0.049 A 
HETATM   14  C   UNL     1      28.478  44.740  54.491  1.00  0.00    -0.023 A 
HETATM   15  C   UNL     1      29.005  43.474  54.157  1.00  0.00    -0.026 A 
HETATM   16  C   UNL     1      29.139  45.526  55.449  1.00  0.00     0.012 A 
HETATM   17  C   UNL     1      28.346  42.692  53.197  1.00  0.00     0.015 A 
HETATM   18  C   UNL     1      30.179  43.027  54.787  1.00  0.00     0.012 A 
HETATM   19  C   UNL     1      27.178  43.148  52.577  1.00  0.00     0.037 A 
HETATM   20  C   UNL     1      30.823  43.821  55.738  1.00  0.00     0.001 A 
HETATM   21  C   UNL     1      30.303  45.069  56.068  1.00  0.00     0.001 A 
ENDBRANCH  11  12
ENDBRANCH   9  11
ENDBRANCH   6   9
ENDBRANCH   1   5
BRANCH   2  22
HETATM   22  C   UNL     1      21.193  48.966  48.659  1.00  0.00     0.105 C 
BRANCH  22  23
HETATM   23  C   UNL     1      21.541  50.189  47.812  1.00  0.00     0.014 C 
BRANCH  23  24
HETATM   24  C   UNL     1      21.072  51.479  48.487  1.00  0.00     0.039 C 
BRANCH  24  25
HETATM   25  C   UNL     1      19.571  51.635  48.420  1.00  0.00    -0.056 A 
HETATM   26  C   UNL     1      18.861  52.113  49.534  1.00  0.00     0.039 A 
HETATM   27  C   UNL     1      17.498  52.247  49.397  1.00  0.00     0.063 A 
HETATM   28  C   UNL     1      16.835  51.933  48.213  1.00  0.00     0.063 A 
HETATM   29  N   UNL     1      16.551  52.687  50.314  1.00  0.00    -0.306 N 
HETATM   30  N   UNL     1      15.480  52.179  48.402  1.00  0.00    -0.307 N 
HETATM   31  C   UNL     1      17.497  51.470  47.103  1.00  0.00     0.032 A 
HETATM   32  C   UNL     1      15.286  52.651  49.708  1.00  0.00     0.325 A 
HETATM   33  H   UNL     1      14.736  52.055  47.735  1.00  0.00     0.170 HD
HETATM   34  O   UNL     1      14.227  52.968  50.216  1.00  0.00    -0.247 OA
HETATM   35  C   UNL     1      18.885  51.324  47.215  1.00  0.00     0.009 A 
HETATM   36  H   UNL     1      16.711  52.993  51.259  1.00  0.00     0.170 HD
ENDBRANCH  24  25
ENDBRANCH  23  24
ENDBRANCH  22  23
ENDBRANCH   2  22
TORSDOF 8
ENDMDL
MODEL 5
REMARK VINA RESULT:      -9.8      2.846     10.984
REMARK  8 active torsions:
REMARK  status: ('A' for Active; 'I' for Inactive)
REMARK    1  A    between atoms: C_2  and  O_3 
REMARK    2  A    between atoms: C_2  and  C_14 
REMARK    3  A    between atoms: O_3  and  C_4 
REMARK       I    between atoms: C_14  and  N_15 
REMARK    4  A    between atoms: N_15  and  N_16 
REMARK       I    between atoms: N_16  and  C_17 
REMARK    5  A    between atoms: C_17  and  C_18 
REMARK    6  A    between atoms: C_18  and  C_19 
REMARK    7  A    between atoms: C_19  and  C_20 
REMARK    8  A    between atoms: C_20  and  C_21 
ROOT
HETATM    1  N   UNL     1      24.975  46.360  50.962  1.00  0.00    -0.267 N 
HETATM    2  C   UNL     1      24.551  45.092  50.608  1.00  0.00     0.236 C 
HETATM    3  O   UNL     1      23.524  44.888  49.966  1.00  0.00    -0.272 OA
HETATM    4  H   UNL     1      25.956  46.523  51.189  1.00  0.00     0.190 HD
ENDROOT
BRANCH   1   5
HETATM    5  N   UNL     1      24.336  47.444  50.327  1.00  0.00    -0.265 N 
HETATM    6  C   UNL     1      25.151  48.326  49.631  1.00  0.00     0.265 C 
HETATM    7  O   UNL     1      26.374  48.330  49.767  1.00  0.00    -0.269 OA
HETATM    8  H   UNL     1      23.419  47.236  49.922  1.00  0.00     0.190 HD
BRANCH   6   9
HETATM    9  C   UNL     1      24.372  49.347  48.788  1.00  0.00     0.218 C 
HETATM   10  C   UNL     1      25.311  50.045  47.812  1.00  0.00     0.050 C 
BRANCH   9  11
HETATM   11  O   UNL     1      23.358  48.644  48.064  1.00  0.00    -0.337 OA
BRANCH  11  12
HETATM   12  C   UNL     1      22.048  48.887  48.373  1.00  0.00     0.070 A 
HETATM   13  C   UNL     1      21.677  50.234  48.311  1.00  0.00     0.049 A 
HETATM   14  C   UNL     1      20.365  50.643  48.602  1.00  0.00    -0.023 A 
HETATM   15  C   UNL     1      19.408  49.673  48.974  1.00  0.00    -0.026 A 
HETATM   16  C   UNL     1      19.982  51.992  48.532  1.00  0.00     0.012 A 
HETATM   17  C   UNL     1      19.793  48.327  49.047  1.00  0.00     0.015 A 
HETATM   18  C   UNL     1      18.095  50.078  49.267  1.00  0.00     0.012 A 
HETATM   19  C   UNL     1      21.104  47.937  48.752  1.00  0.00     0.037 A 
HETATM   20  C   UNL     1      17.731  51.424  49.191  1.00  0.00     0.001 A 
HETATM   21  C   UNL     1      18.674  52.379  48.824  1.00  0.00     0.001 A 
ENDBRANCH  11  12
ENDBRANCH   9  11
ENDBRANCH   6   9
ENDBRANCH   1   5
BRANCH   2  22
HETATM   22  C   UNL     1      25.451  43.997  51.146  1.00  0.00     0.105 C 
BRANCH  22  23
HETATM   23  C   UNL     1      26.814  44.534  51.576  1.00  0.00     0.014 C 
BRANCH  23  24
HETATM   24  C   UNL     1      27.659  43.438  52.226  1.00  0.00     0.039 C 
BRANCH  24  25
HETATM   25  C   UNL     1      28.352  43.929  53.475  1.00  0.00    -0.056 A 
HETATM   26  C   UNL     1      29.373  43.162  54.063  1.00  0.00     0.039 A 
HETATM   27  C   UNL     1      29.972  43.678  55.189  1.00  0.00     0.063 A 
HETATM   28  C   UNL     1      29.601  44.905  55.735  1.00  0.00     0.063 A 
HETATM   29  N   UNL     1      30.993  43.153  55.974  1.00  0.00    -0.306 N 
HETATM   30  N   UNL     1      30.392  45.134  56.854  1.00  0.00    -0.307 N 
HETATM   31  C   UNL     1      28.613  45.683  55.184  1.00  0.00     0.032 A 
HETATM   32  C   UNL     1      31.267  44.050  57.017  1.00  0.00     0.325 A 
HETATM   33  H   UNL     1      30.371  45.933  57.466  1.00  0.00     0.170 HD
HETATM   34  O   UNL     1      32.101  43.914  57.893  1.00  0.00    -0.247 OA
HETATM   35  C   UNL     1      27.986  45.182  54.036  1.00  0.00     0.009 A 
HETATM   36  H   UNL     1      31.479  42.282  55.841  1.00  0.00     0.170 HD
ENDBRANCH  24  25
ENDBRANCH  23  24
ENDBRANCH  22  23
ENDBRANCH   2  22
TORSDOF 8
ENDMDL
MODEL 6
REMARK VINA RESULT:      -9.7      4.761      8.587
REMARK  8 active torsions:
REMARK  status: ('A' for Active; 'I' for Inactive)
REMARK    1  A    between atoms: C_2  and  O_3 
REMARK    2  A    between atoms: C_2  and  C_14 
REMARK    3  A    between atoms: O_3  and  C_4 
REMARK       I    between atoms: C_14  and  N_15 
REMARK    4  A    between atoms: N_15  and  N_16 
REMARK       I    between atoms: N_16  and  C_17 
REMARK    5  A    between atoms: C_17  and  C_18 
REMARK    6  A    between atoms: C_18  and  C_19 
REMARK    7  A    between atoms: C_19  and  C_20 
REMARK    8  A    between atoms: C_20  and  C_21 
ROOT
HETATM    1  N   UNL     1      25.754  43.554  48.764  1.00  0.00    -0.267 N 
HETATM    2  C   UNL     1      25.123  42.357  49.051  1.00  0.00     0.236 C 
HETATM    3  O   UNL     1      25.263  41.770  50.121  1.00  0.00    -0.272 OA
HETATM    4  H   UNL     1      25.378  44.166  48.039  1.00  0.00     0.190 HD
ENDROOT
BRANCH   1   5
HETATM    5  N   UNL     1      26.354  44.232  49.845  1.00  0.00    -0.265 N 
HETATM    6  C   UNL     1      25.621  45.261  50.418  1.00  0.00     0.265 C 
HETATM    7  O   UNL     1      24.629  45.740  49.869  1.00  0.00    -0.269 OA
HETATM    8  H   UNL     1      26.910  43.646  50.475  1.00  0.00     0.190 HD
BRANCH   6   9
HETATM    9  C   UNL     1      26.235  45.802  51.719  1.00  0.00     0.218 C 
HETATM   10  C   UNL     1      25.507  47.068  52.154  1.00  0.00     0.050 C 
BRANCH   9  11
HETATM   11  O   UNL     1      26.099  44.795  52.726  1.00  0.00    -0.337 OA
BRANCH  11  12
HETATM   12  C   UNL     1      27.230  44.314  53.325  1.00  0.00     0.070 A 
HETATM   13  C   UNL     1      27.740  45.127  54.343  1.00  0.00     0.049 A 
HETATM   14  C   UNL     1      28.898  44.768  55.052  1.00  0.00    -0.023 A 
HETATM   15  C   UNL     1      29.564  43.568  54.720  1.00  0.00    -0.026 A 
HETATM   16  C   UNL     1      29.409  45.574  56.082  1.00  0.00     0.012 A 
HETATM   17  C   UNL     1      29.054  42.767  53.688  1.00  0.00     0.015 A 
HETATM   18  C   UNL     1      30.724  43.205  55.426  1.00  0.00     0.012 A 
HETATM   19  C   UNL     1      27.898  43.138  52.994  1.00  0.00     0.037 A 
HETATM   20  C   UNL     1      31.218  44.018  56.448  1.00  0.00     0.001 A 
HETATM   21  C   UNL     1      30.561  45.201  56.775  1.00  0.00     0.001 A 
ENDBRANCH  11  12
ENDBRANCH   9  11
ENDBRANCH   6   9
ENDBRANCH   1   5
BRANCH   2  22
HETATM   22  C   UNL     1      24.302  41.830  47.891  1.00  0.00     0.105 C 
BRANCH  22  23
HETATM   23  C   UNL     1      24.366  40.308  47.788  1.00  0.00     0.014 C 
BRANCH  23  24
HETATM   24  C   UNL     1      25.552  39.862  46.932  1.00  0.00     0.039 C 
BRANCH  24  25
HETATM   25  C   UNL     1      26.761  39.529  47.776  1.00  0.00    -0.056 A 
HETATM   26  C   UNL     1      26.770  38.368  48.568  1.00  0.00     0.039 A 
HETATM   27  C   UNL     1      27.910  38.118  49.297  1.00  0.00     0.063 A 
HETATM   28  C   UNL     1      29.017  38.963  49.261  1.00  0.00     0.063 A 
HETATM   29  N   UNL     1      28.203  37.066  50.156  1.00  0.00    -0.306 N 
HETATM   30  N   UNL     1      29.991  38.431  50.098  1.00  0.00    -0.307 N 
HETATM   31  C   UNL     1      29.046  40.101  48.493  1.00  0.00     0.032 A 
HETATM   32  C   UNL     1      29.498  37.246  50.664  1.00  0.00     0.325 A 
HETATM   33  H   UNL     1      30.907  38.804  50.286  1.00  0.00     0.170 HD
HETATM   34  O   UNL     1      30.082  36.517  51.445  1.00  0.00    -0.247 OA
HETATM   35  C   UNL     1      27.898  40.380  47.740  1.00  0.00     0.009 A 
HETATM   36  H   UNL     1      27.612  36.287  50.393  1.00  0.00     0.170 HD
ENDBRANCH  24  25
ENDBRANCH  23  24
ENDBRANCH  22  23
ENDBRANCH   2  22
TORSDOF 8
ENDMDL
MODEL 7
REMARK VINA RESULT:      -9.7      5.047      9.069
REMARK  8 active torsions:
REMARK  status: ('A' for Active; 'I' for Inactive)
REMARK    1  A    between atoms: C_2  and  O_3 
REMARK    2  A    between atoms: C_2  and  C_14 
REMARK    3  A    between atoms: O_3  and  C_4 
REMARK       I    between atoms: C_14  and  N_15 
REMARK    4  A    between atoms: N_15  and  N_16 
REMARK       I    between atoms: N_16  and  C_17 
REMARK    5  A    between atoms: C_17  and  C_18 
REMARK    6  A    between atoms: C_18  and  C_19 
REMARK    7  A    between atoms: C_19  and  C_20 
REMARK    8  A    between atoms: C_20  and  C_21 
ROOT
HETATM    1  N   UNL     1      24.890  43.643  48.634  1.00  0.00    -0.267 N 
HETATM    2  C   UNL     1      25.522  42.413  48.676  1.00  0.00     0.236 C 
HETATM    3  O   UNL     1      26.665  42.265  49.101  1.00  0.00    -0.272 OA
HETATM    4  H   UNL     1      23.872  43.689  48.597  1.00  0.00     0.190 HD
ENDROOT
BRANCH   1   5
HETATM    5  N   UNL     1      25.496  44.693  49.354  1.00  0.00    -0.265 N 
HETATM    6  C   UNL     1      25.064  44.883  50.659  1.00  0.00     0.265 C 
HETATM    7  O   UNL     1      24.040  44.354  51.091  1.00  0.00    -0.269 OA
HETATM    8  H   UNL     1      26.492  44.837  49.165  1.00  0.00     0.190 HD
BRANCH   6   9
HETATM    9  C   UNL     1      25.915  45.890  51.447  1.00  0.00     0.218 C 
HETATM   10  C   UNL     1      25.525  47.314  51.069  1.00  0.00     0.050 C 
BRANCH   9  11
HETATM   11  O   UNL     1      25.677  45.677  52.842  1.00  0.00    -0.337 OA
BRANCH  11  12
HETATM   12  C   UNL     1      26.740  45.723  53.700  1.00  0.00     0.070 A 
HETATM   13  C   UNL     1      27.566  44.596  53.663  1.00  0.00     0.049 A 
HETATM   14  C   UNL     1      28.698  44.494  54.488  1.00  0.00    -0.023 A 
HETATM   15  C   UNL     1      29.000  45.549  55.377  1.00  0.00    -0.026 A 
HETATM   16  C   UNL     1      29.539  43.369  54.449  1.00  0.00     0.012 A 
HETATM   17  C   UNL     1      28.157  46.670  55.417  1.00  0.00     0.015 A 
HETATM   18  C   UNL     1      30.131  45.451  56.204  1.00  0.00     0.012 A 
HETATM   19  C   UNL     1      27.034  46.755  54.587  1.00  0.00     0.037 A 
HETATM   20  C   UNL     1      30.956  44.326  56.152  1.00  0.00     0.001 A 
HETATM   21  C   UNL     1      30.659  43.287  55.276  1.00  0.00     0.001 A 
ENDBRANCH  11  12
ENDBRANCH   9  11
ENDBRANCH   6   9
ENDBRANCH   1   5
BRANCH   2  22
HETATM   22  C   UNL     1      24.681  41.297  48.089  1.00  0.00     0.105 C 
BRANCH  22  23
HETATM   23  C   UNL     1      25.436  40.512  47.018  1.00  0.00     0.014 C 
BRANCH  23  24
HETATM   24  C   UNL     1      25.520  39.028  47.378  1.00  0.00     0.039 C 
BRANCH  24  25
HETATM   25  C   UNL     1      26.762  38.713  48.179  1.00  0.00    -0.056 A 
HETATM   26  C   UNL     1      26.766  37.633  49.079  1.00  0.00     0.039 A 
HETATM   27  C   UNL     1      27.936  37.393  49.761  1.00  0.00     0.063 A 
HETATM   28  C   UNL     1      29.077  38.171  49.581  1.00  0.00     0.063 A 
HETATM   29  N   UNL     1      28.232  36.412  50.701  1.00  0.00    -0.306 N 
HETATM   30  N   UNL     1      30.074  37.669  50.408  1.00  0.00    -0.307 N 
HETATM   31  C   UNL     1      29.111  39.229  48.707  1.00  0.00     0.032 A 
HETATM   32  C   UNL     1      29.563  36.571  51.114  1.00  0.00     0.325 A 
HETATM   33  H   UNL     1      31.017  38.010  50.507  1.00  0.00     0.170 HD
HETATM   34  O   UNL     1      30.159  35.888  51.927  1.00  0.00    -0.247 OA
HETATM   35  C   UNL     1      27.933  39.496  47.997  1.00  0.00     0.009 A 
HETATM   36  H   UNL     1      27.621  35.691  51.045  1.00  0.00     0.170 HD
ENDBRANCH  24  25
ENDBRANCH  23  24
ENDBRANCH  22  23
ENDBRANCH   2  22
TORSDOF 8
ENDMDL
MODEL 8
REMARK VINA RESULT:      -9.3      2.055      2.874
REMARK  8 active torsions:
REMARK  status: ('A' for Active; 'I' for Inactive)
REMARK    1  A    between atoms: C_2  and  O_3 
REMARK    2  A    between atoms: C_2  and  C_14 
REMARK    3  A    between atoms: O_3  and  C_4 
REMARK       I    between atoms: C_14  and  N_15 
REMARK    4  A    between atoms: N_15  and  N_16 
REMARK       I    between atoms: N_16  and  C_17 
REMARK    5  A    between atoms: C_17  and  C_18 
REMARK    6  A    between atoms: C_18  and  C_19 
REMARK    7  A    between atoms: C_19  and  C_20 
REMARK    8  A    between atoms: C_20  and  C_21 
ROOT
HETATM    1  N   UNL     1      23.944  45.207  50.322  1.00  0.00    -0.267 N 
HETATM    2  C   UNL     1      22.904  44.384  49.928  1.00  0.00     0.236 C 
HETATM    3  O   UNL     1      22.442  43.503  50.649  1.00  0.00    -0.272 OA
HETATM    4  H   UNL     1      24.080  46.108  49.864  1.00  0.00     0.190 HD
ENDROOT
BRANCH   1   5
HETATM    5  N   UNL     1      24.283  45.192  51.691  1.00  0.00    -0.265 N 
HETATM    6  C   UNL     1      25.614  44.951  51.999  1.00  0.00     0.265 C 
HETATM    7  O   UNL     1      26.409  44.517  51.166  1.00  0.00    -0.269 OA
HETATM    8  H   UNL     1      23.783  45.869  52.273  1.00  0.00     0.190 HD
BRANCH   6   9
HETATM    9  C   UNL     1      25.950  45.167  53.482  1.00  0.00     0.218 C 
HETATM   10  C   UNL     1      25.968  43.832  54.216  1.00  0.00     0.050 C 
BRANCH   9  11
HETATM   11  O   UNL     1      27.241  45.780  53.561  1.00  0.00    -0.337 OA
BRANCH  11  12
HETATM   12  C   UNL     1      28.251  45.097  54.179  1.00  0.00     0.070 A 
HETATM   13  C   UNL     1      28.644  45.629  55.411  1.00  0.00     0.049 A 
HETATM   14  C   UNL     1      29.671  45.038  56.166  1.00  0.00    -0.023 A 
HETATM   15  C   UNL     1      30.323  43.891  55.664  1.00  0.00    -0.026 A 
HETATM   16  C   UNL     1      30.064  45.561  57.409  1.00  0.00     0.012 A 
HETATM   17  C   UNL     1      29.931  43.373  54.420  1.00  0.00     0.015 A 
HETATM   18  C   UNL     1      31.351  43.298  56.415  1.00  0.00     0.012 A 
HETATM   19  C   UNL     1      28.905  43.972  53.682  1.00  0.00     0.037 A 
HETATM   20  C   UNL     1      31.729  43.830  57.649  1.00  0.00     0.001 A 
HETATM   21  C   UNL     1      31.086  44.961  58.145  1.00  0.00     0.001 A 
ENDBRANCH  11  12
ENDBRANCH   9  11
ENDBRANCH   6   9
ENDBRANCH   1   5
BRANCH   2  22
HETATM   22  C   UNL     1      22.449  44.646  48.506  1.00  0.00     0.105 C 
BRANCH  22  23
HETATM   23  C   UNL     1      21.587  45.902  48.402  1.00  0.00     0.014 C 
BRANCH  23  24
HETATM   24  C   UNL     1      22.446  47.142  48.155  1.00  0.00     0.039 C 
BRANCH  24  25
HETATM   25  C   UNL     1      21.680  48.418  48.414  1.00  0.00    -0.056 A 
HETATM   26  C   UNL     1      20.400  48.368  48.993  1.00  0.00     0.039 A 
HETATM   27  C   UNL     1      19.768  49.569  49.217  1.00  0.00     0.063 A 
HETATM   28  C   UNL     1      20.354  50.791  48.895  1.00  0.00     0.063 A 
HETATM   29  N   UNL     1      18.517  49.827  49.766  1.00  0.00    -0.306 N 
HETATM   30  N   UNL     1      19.465  51.800  49.245  1.00  0.00    -0.307 N 
HETATM   31  C   UNL     1      21.604  50.878  48.335  1.00  0.00     0.032 A 
HETATM   32  C   UNL     1      18.313  51.214  49.791  1.00  0.00     0.325 A 
HETATM   33  H   UNL     1      19.594  52.793  49.143  1.00  0.00     0.170 HD
HETATM   34  O   UNL     1      17.328  51.797  50.205  1.00  0.00    -0.247 OA
HETATM   35  C   UNL     1      22.272  49.670  48.096  1.00  0.00     0.009 A 
HETATM   36  H   UNL     1      17.847  49.156  50.103  1.00  0.00     0.170 HD
ENDBRANCH  24  25
ENDBRANCH  23  24
ENDBRANCH  22  23
ENDBRANCH   2  22
TORSDOF 8
ENDMDL
MODEL 9
REMARK VINA RESULT:      -9.3      3.055     11.228
REMARK  8 active torsions:
REMARK  status: ('A' for Active; 'I' for Inactive)
REMARK    1  A    between atoms: C_2  and  O_3 
REMARK    2  A    between atoms: C_2  and  C_14 
REMARK    3  A    between atoms: O_3  and  C_4 
REMARK       I    between atoms: C_14  and  N_15 
REMARK    4  A    between atoms: N_15  and  N_16 
REMARK       I    between atoms: N_16  and  C_17 
REMARK    5  A    between atoms: C_17  and  C_18 
REMARK    6  A    between atoms: C_18  and  C_19 
REMARK    7  A    between atoms: C_19  and  C_20 
REMARK    8  A    between atoms: C_20  and  C_21 
ROOT
HETATM    1  N   UNL     1      24.305  46.024  50.552  1.00  0.00    -0.267 N 
HETATM    2  C   UNL     1      25.330  46.731  51.154  1.00  0.00     0.236 C 
HETATM    3  O   UNL     1      25.639  47.871  50.818  1.00  0.00    -0.272 OA
HETATM    4  H   UNL     1      23.864  45.249  51.047  1.00  0.00     0.190 HD
ENDROOT
BRANCH   1   5
HETATM    5  N   UNL     1      23.434  46.753  49.717  1.00  0.00    -0.265 N 
HETATM    6  C   UNL     1      22.827  46.051  48.686  1.00  0.00     0.265 C 
HETATM    7  O   UNL     1      23.211  44.933  48.343  1.00  0.00    -0.269 OA
HETATM    8  H   UNL     1      22.875  47.470  50.187  1.00  0.00     0.190 HD
BRANCH   6   9
HETATM    9  C   UNL     1      21.732  46.848  47.960  1.00  0.00     0.218 C 
HETATM   10  C   UNL     1      21.554  46.322  46.541  1.00  0.00     0.050 C 
BRANCH   9  11
HETATM   11  O   UNL     1      20.512  46.692  48.691  1.00  0.00    -0.337 OA
BRANCH  11  12
HETATM   12  C   UNL     1      19.842  47.815  49.089  1.00  0.00     0.070 A 
HETATM   13  C   UNL     1      20.114  48.956  48.327  1.00  0.00     0.049 A 
HETATM   14  C   UNL     1      19.503  50.188  48.614  1.00  0.00    -0.023 A 
HETATM   15  C   UNL     1      18.605  50.275  49.700  1.00  0.00    -0.026 A 
HETATM   16  C   UNL     1      19.764  51.335  47.847  1.00  0.00     0.012 A 
HETATM   17  C   UNL     1      18.350  49.129  50.468  1.00  0.00     0.015 A 
HETATM   18  C   UNL     1      17.992  51.505  49.991  1.00  0.00     0.012 A 
HETATM   19  C   UNL     1      18.965  47.909  50.167  1.00  0.00     0.037 A 
HETATM   20  C   UNL     1      18.262  52.636  49.218  1.00  0.00     0.001 A 
HETATM   21  C   UNL     1      19.147  52.550  48.147  1.00  0.00     0.001 A 
ENDBRANCH  11  12
ENDBRANCH   9  11
ENDBRANCH   6   9
ENDBRANCH   1   5
BRANCH   2  22
HETATM   22  C   UNL     1      26.057  45.930  52.216  1.00  0.00     0.105 C 
BRANCH  22  23
HETATM   23  C   UNL     1      25.780  46.457  53.622  1.00  0.00     0.014 C 
BRANCH  23  24
HETATM   24  C   UNL     1      27.037  47.071  54.239  1.00  0.00     0.039 C 
BRANCH  24  25
HETATM   25  C   UNL     1      28.043  46.015  54.634  1.00  0.00    -0.056 A 
HETATM   26  C   UNL     1      28.871  46.214  55.752  1.00  0.00     0.039 A 
HETATM   27  C   UNL     1      29.751  45.204  56.065  1.00  0.00     0.063 A 
HETATM   28  C   UNL     1      29.830  44.028  55.322  1.00  0.00     0.063 A 
HETATM   29  N   UNL     1      30.680  45.120  57.096  1.00  0.00    -0.306 N 
HETATM   30  N   UNL     1      30.807  43.222  55.896  1.00  0.00    -0.307 N 
HETATM   31  C   UNL     1      29.033  43.797  54.229  1.00  0.00     0.032 A 
HETATM   32  C   UNL     1      31.346  43.890  57.005  1.00  0.00     0.325 A 
HETATM   33  H   UNL     1      31.100  42.307  55.595  1.00  0.00     0.170 HD
HETATM   34  O   UNL     1      32.222  43.480  57.744  1.00  0.00    -0.247 OA
HETATM   35  C   UNL     1      28.126  44.809  53.888  1.00  0.00     0.009 A 
HETATM   36  H   UNL     1      30.865  45.806  57.809  1.00  0.00     0.170 HD
ENDBRANCH  24  25
ENDBRANCH  23  24
ENDBRANCH  22  23
ENDBRANCH   2  22
TORSDOF 8
ENDMDL
MODEL 10
REMARK VINA RESULT:      -9.3      3.165     11.736
REMARK  8 active torsions:
REMARK  status: ('A' for Active; 'I' for Inactive)
REMARK    1  A    between atoms: C_2  and  O_3 
REMARK    2  A    between atoms: C_2  and  C_14 
REMARK    3  A    between atoms: O_3  and  C_4 
REMARK       I    between atoms: C_14  and  N_15 
REMARK    4  A    between atoms: N_15  and  N_16 
REMARK       I    between atoms: N_16  and  C_17 
REMARK    5  A    between atoms: C_17  and  C_18 
REMARK    6  A    between atoms: C_18  and  C_19 
REMARK    7  A    between atoms: C_19  and  C_20 
REMARK    8  A    between atoms: C_20  and  C_21 
ROOT
HETATM    1  N   UNL     1      23.772  45.799  50.035  1.00  0.00    -0.267 N 
HETATM    2  C   UNL     1      24.765  46.190  50.916  1.00  0.00     0.236 C 
HETATM    3  O   UNL     1      25.197  47.339  50.965  1.00  0.00    -0.272 OA
HETATM    4  H   UNL     1      23.217  44.966  50.233  1.00  0.00     0.190 HD
ENDROOT
BRANCH   1   5
HETATM    5  N   UNL     1      23.066  46.827  49.376  1.00  0.00    -0.265 N 
HETATM    6  C   UNL     1      21.930  46.451  48.675  1.00  0.00     0.265 C 
HETATM    7  O   UNL     1      21.684  45.273  48.413  1.00  0.00    -0.269 OA
HETATM    8  H   UNL     1      23.037  47.724  49.869  1.00  0.00     0.190 HD
BRANCH   6   9
HETATM    9  C   UNL     1      21.096  47.639  48.172  1.00  0.00     0.218 C 
HETATM   10  C   UNL     1      20.641  47.391  46.739  1.00  0.00     0.050 C 
BRANCH   9  11
HETATM   11  O   UNL     1      19.956  47.775  49.026  1.00  0.00    -0.337 OA
BRANCH  11  12
HETATM   12  C   UNL     1      19.454  49.027  49.249  1.00  0.00     0.070 A 
HETATM   13  C   UNL     1      18.117  49.192  48.873  1.00  0.00     0.049 A 
HETATM   14  C   UNL     1      17.460  50.422  49.040  1.00  0.00    -0.023 A 
HETATM   15  C   UNL     1      18.169  51.513  49.589  1.00  0.00    -0.026 A 
HETATM   16  C   UNL     1      16.115  50.594  48.674  1.00  0.00     0.012 A 
HETATM   17  C   UNL     1      19.513  51.342  49.949  1.00  0.00     0.015 A 
HETATM   18  C   UNL     1      17.516  52.746  49.756  1.00  0.00     0.012 A 
HETATM   19  C   UNL     1      20.152  50.109  49.778  1.00  0.00     0.037 A 
HETATM   20  C   UNL     1      16.178  52.899  49.388  1.00  0.00     0.001 A 
HETATM   21  C   UNL     1      15.478  51.823  48.847  1.00  0.00     0.001 A 
ENDBRANCH  11  12
ENDBRANCH   9  11
ENDBRANCH   6   9
ENDBRANCH   1   5
BRANCH   2  22
HETATM   22  C   UNL     1      25.294  45.044  51.755  1.00  0.00     0.105 C 
BRANCH  22  23
HETATM   23  C   UNL     1      26.812  45.099  51.907  1.00  0.00     0.014 C 
BRANCH  23  24
HETATM   24  C   UNL     1      27.363  43.770  52.426  1.00  0.00     0.039 C 
BRANCH  24  25
HETATM   25  C   UNL     1      28.350  43.970  53.551  1.00  0.00    -0.056 A 
HETATM   26  C   UNL     1      28.150  44.995  54.491  1.00  0.00     0.039 A 
HETATM   27  C   UNL     1      29.080  45.109  55.499  1.00  0.00     0.063 A 
HETATM   28  C   UNL     1      30.174  44.253  55.604  1.00  0.00     0.063 A 
HETATM   29  N   UNL     1      29.142  46.013  56.554  1.00  0.00    -0.306 N 
HETATM   30  N   UNL     1      30.910  44.631  56.721  1.00  0.00    -0.307 N 
HETATM   31  C   UNL     1      30.397  43.238  54.707  1.00  0.00     0.032 A 
HETATM   32  C   UNL     1      30.278  45.727  57.325  1.00  0.00     0.325 A 
HETATM   33  H   UNL     1      31.755  44.209  57.068  1.00  0.00     0.170 HD
HETATM   34  O   UNL     1      30.646  46.317  58.325  1.00  0.00    -0.247 OA
HETATM   35  C   UNL     1      29.466  43.098  53.671  1.00  0.00     0.009 A 
HETATM   36  H   UNL     1      28.496  46.755  56.762  1.00  0.00     0.170 HD
ENDBRANCH  24  25
ENDBRANCH  23  24
ENDBRANCH  22  23
ENDBRANCH   2  22
TORSDOF 8
ENDMDL
