MODEL 1
REMARK VINA RESULT:      -9.9      0.000      0.000
REMARK  8 active torsions:
REMARK  status: ('A' for Active; 'I' for Inactive)
REMARK    1  A    between atoms: O_2  and  C_3 
REMARK    2  A    between atoms: C_4  and  N_5 
REMARK       I    between atoms: N_5  and  C_6 
REMARK       I    between atoms: C_6  and  N_7 
REMARK    3  A    between atoms: N_7  and  C_8 
REMARK    4  A    between atoms: C_11  and  C_12 
REMARK    5  A    between atoms: C_12  and  C_13 
REMARK       I    between atoms: C_13  and  N_14 
REMARK    6  A    between atoms: N_14  and  C_15 
REMARK    7  A    between atoms: C_16  and  O_17 
REMARK    8  A    between atoms: O_17  and  C_18 
ROOT
HETATM    1  C   UNL     1      26.325  44.123  51.488  1.00  0.00     0.174 C 
HETATM    2  S   UNL     1      26.099  43.736  49.844  1.00  0.00    -0.062 SA
HETATM    3  C   UNL     1      25.611  45.353  49.558  1.00  0.00     0.081 C 
HETATM    4  C   UNL     1      25.625  46.069  50.743  1.00  0.00     0.052 C 
HETATM    5  N   UNL     1      26.130  45.370  51.836  1.00  0.00    -0.228 NA
ENDROOT
BRANCH   4   6
HETATM    6  C   UNL     1      25.107  47.457  50.939  1.00  0.00     0.163 C 
BRANCH   6   7
HETATM    7  C   UNL     1      24.303  47.878  49.712  1.00  0.00     0.227 C 
HETATM    8  N   UNL     1      23.024  47.354  49.677  1.00  0.00    -0.324 N 
HETATM    9  H   UNL     1      22.643  46.950  50.526  1.00  0.00     0.169 HD
HETATM   10  O   UNL     1      24.792  48.617  48.858  1.00  0.00    -0.273 OA
BRANCH   8  11
HETATM   11  C   UNL     1      22.146  47.317  48.568  1.00  0.00     0.069 A 
HETATM   12  C   UNL     1      21.156  48.311  48.478  1.00  0.00     0.102 A 
HETATM   13  C   UNL     1      20.183  48.267  47.471  1.00  0.00     0.039 A 
HETATM   14  C   UNL     1      20.224  47.255  46.514  1.00  0.00     0.003 A 
HETATM   15  C   UNL     1      21.224  46.287  46.572  1.00  0.00     0.002 A 
HETATM   16  C   UNL     1      22.178  46.314  47.596  1.00  0.00     0.032 A 
BRANCH  12  17
HETATM   17  O   UNL     1      21.140  49.305  49.437  1.00  0.00    -0.309 OA
BRANCH  17  18
HETATM   18  C   UNL     1      20.205  50.308  49.293  1.00  0.00     0.076 A 
HETATM   19  C   UNL     1      19.039  50.182  50.050  1.00  0.00     0.037 A 
HETATM   20  C   UNL     1      18.046  51.159  49.971  1.00  0.00     0.003 A 
HETATM   21  C   UNL     1      18.223  52.270  49.147  1.00  0.00     0.000 A 
HETATM   22  C   UNL     1      19.399  52.411  48.409  1.00  0.00     0.003 A 
HETATM   23  C   UNL     1      20.397  51.437  48.490  1.00  0.00     0.037 A 
ENDBRANCH  17  18
ENDBRANCH  12  17
ENDBRANCH   8  11
ENDBRANCH   6   7
ENDBRANCH   4   6
BRANCH   1  24
HETATM   24  N   UNL     1      26.646  43.055  52.270  1.00  0.00    -0.287 N 
HETATM   25  C   UNL     1      27.399  43.078  53.406  1.00  0.00     0.326 C 
HETATM   26  N   UNL     1      28.221  44.155  53.586  1.00  0.00    -0.306 N 
HETATM   27  O   UNL     1      27.344  42.096  54.146  1.00  0.00    -0.247 OA
HETATM   28  H   UNL     1      28.373  44.748  52.775  1.00  0.00     0.171 HD
HETATM   29  H   UNL     1      26.154  42.192  52.098  1.00  0.00     0.172 HD
BRANCH  26  30
HETATM   30  C   UNL     1      29.091  44.375  54.673  1.00  0.00     0.069 A 
HETATM   31  C   UNL     1      28.773  45.399  55.581  1.00  0.00     0.095 A 
HETATM   32  C   UNL     1      29.582  45.632  56.697  1.00  0.00     0.039 A 
HETATM   33  C   UNL     1      30.727  44.862  56.899  1.00  0.00     0.003 A 
HETATM   34  C   UNL     1      31.058  43.856  55.993  1.00  0.00     0.002 A 
HETATM   35  C   UNL     1      30.244  43.614  54.882  1.00  0.00     0.032 A 
BRANCH  31  36
HETATM   36  O   UNL     1      27.649  46.151  55.332  1.00  0.00    -0.354 OA
HETATM   37  C   UNL     1      27.973  47.485  54.933  1.00  0.00     0.210 C 
ENDBRANCH  31  36
ENDBRANCH  26  30
ENDBRANCH   1  24
TORSDOF 8
ENDMDL
MODEL 2
REMARK VINA RESULT:      -9.9      1.316      2.054
REMARK  8 active torsions:
REMARK  status: ('A' for Active; 'I' for Inactive)
REMARK    1  A    between atoms: O_2  and  C_3 
REMARK    2  A    between atoms: C_4  and  N_5 
REMARK       I    between atoms: N_5  and  C_6 
REMARK       I    between atoms: C_6  and  N_7 
REMARK    3  A    between atoms: N_7  and  C_8 
REMARK    4  A    between atoms: C_11  and  C_12 
REMARK    5  A    between atoms: C_12  and  C_13 
REMARK       I    between atoms: C_13  and  N_14 
REMARK    6  A    between atoms: N_14  and  C_15 
REMARK    7  A    between atoms: C_16  and  O_17 
REMARK    8  A    between atoms: O_17  and  C_18 
ROOT
HETATM    1  C   UNL     1      25.021  45.225  51.642  1.00  0.00     0.174 C 
HETATM    2  S   UNL     1      25.122  44.331  50.195  1.00  0.00    -0.062 SA
HETATM    3  C   UNL     1      25.033  45.797  49.313  1.00  0.00     0.081 C 
HETATM    4  C   UNL     1      24.903  46.866  50.184  1.00  0.00     0.052 C 
HETATM    5  N   UNL     1      24.991  46.530  51.532  1.00  0.00    -0.228 NA
ENDROOT
BRANCH   4   6
HETATM    6  C   UNL     1      24.629  48.284  49.801  1.00  0.00     0.163 C 
BRANCH   6   7
HETATM    7  C   UNL     1      23.434  48.334  48.853  1.00  0.00     0.227 C 
HETATM    8  N   UNL     1      22.358  47.575  49.274  1.00  0.00    -0.324 N 
HETATM    9  H   UNL     1      22.340  47.251  50.235  1.00  0.00     0.169 HD
HETATM   10  O   UNL     1      23.473  49.002  47.820  1.00  0.00    -0.273 OA
BRANCH   8  11
HETATM   11  C   UNL     1      21.234  47.187  48.506  1.00  0.00     0.069 A 
HETATM   12  C   UNL     1      19.984  47.734  48.844  1.00  0.00     0.102 A 
HETATM   13  C   UNL     1      18.815  47.305  48.202  1.00  0.00     0.039 A 
HETATM   14  C   UNL     1      18.894  46.363  47.179  1.00  0.00     0.003 A 
HETATM   15  C   UNL     1      20.133  45.842  46.811  1.00  0.00     0.002 A 
HETATM   16  C   UNL     1      21.297  46.249  47.473  1.00  0.00     0.032 A 
BRANCH  12  17
HETATM   17  O   UNL     1      19.934  48.669  49.859  1.00  0.00    -0.309 OA
BRANCH  17  18
HETATM   18  C   UNL     1      19.548  49.950  49.521  1.00  0.00     0.076 A 
HETATM   19  C   UNL     1      18.393  50.432  50.139  1.00  0.00     0.037 A 
HETATM   20  C   UNL     1      17.939  51.722  49.860  1.00  0.00     0.003 A 
HETATM   21  C   UNL     1      18.646  52.535  48.975  1.00  0.00     0.000 A 
HETATM   22  C   UNL     1      19.814  52.064  48.376  1.00  0.00     0.003 A 
HETATM   23  C   UNL     1      20.274  50.776  48.657  1.00  0.00     0.037 A 
ENDBRANCH  17  18
ENDBRANCH  12  17
ENDBRANCH   8  11
ENDBRANCH   6   7
ENDBRANCH   4   6
BRANCH   1  24
HETATM   24  N   UNL     1      24.938  44.457  52.764  1.00  0.00    -0.287 N 
HETATM   25  C   UNL     1      25.916  44.272  53.695  1.00  0.00     0.326 C 
HETATM   26  N   UNL     1      27.199  44.543  53.311  1.00  0.00    -0.306 N 
HETATM   27  O   UNL     1      25.585  43.801  54.783  1.00  0.00    -0.247 OA
HETATM   28  H   UNL     1      27.359  44.656  52.314  1.00  0.00     0.171 HD
HETATM   29  H   UNL     1      24.024  44.124  53.028  1.00  0.00     0.172 HD
BRANCH  26  30
HETATM   30  C   UNL     1      28.359  44.407  54.102  1.00  0.00     0.069 A 
HETATM   31  C   UNL     1      29.225  43.335  53.831  1.00  0.00     0.095 A 
HETATM   32  C   UNL     1      30.408  43.178  54.560  1.00  0.00     0.039 A 
HETATM   33  C   UNL     1      30.720  44.077  55.580  1.00  0.00     0.003 A 
HETATM   34  C   UNL     1      29.857  45.134  55.865  1.00  0.00     0.002 A 
HETATM   35  C   UNL     1      28.679  45.298  55.130  1.00  0.00     0.032 A 
BRANCH  31  36
HETATM   36  O   UNL     1      28.868  42.457  52.835  1.00  0.00    -0.354 OA
HETATM   37  C   UNL     1      28.496  41.178  53.353  1.00  0.00     0.210 C 
ENDBRANCH  31  36
ENDBRANCH  26  30
ENDBRANCH   1  24
TORSDOF 8
ENDMDL
MODEL 3
REMARK VINA RESULT:      -9.7      1.925      2.985
REMARK  8 active torsions:
REMARK  status: ('A' for Active; 'I' for Inactive)
REMARK    1  A    between atoms: O_2  and  C_3 
REMARK    2  A    between atoms: C_4  and  N_5 
REMARK       I    between atoms: N_5  and  C_6 
REMARK       I    between atoms: C_6  and  N_7 
REMARK    3  A    between atoms: N_7  and  C_8 
REMARK    4  A    between atoms: C_11  and  C_12 
REMARK    5  A    between atoms: C_12  and  C_13 
REMARK       I    between atoms: C_13  and  N_14 
REMARK    6  A    between atoms: N_14  and  C_15 
REMARK    7  A    between atoms: C_16  and  O_17 
REMARK    8  A    between atoms: O_17  and  C_18 
ROOT
HETATM    1  C   UNL     1      26.449  41.722  51.298  1.00  0.00     0.174 C 
HETATM    2  S   UNL     1      25.737  40.823  50.038  1.00  0.00    -0.062 SA
HETATM    3  C   UNL     1      24.833  42.209  49.594  1.00  0.00     0.081 C 
HETATM    4  C   UNL     1      25.115  43.254  50.458  1.00  0.00     0.052 C 
HETATM    5  N   UNL     1      26.121  42.988  51.381  1.00  0.00    -0.228 NA
ENDROOT
BRANCH   4   6
HETATM    6  C   UNL     1      24.409  44.571  50.505  1.00  0.00     0.163 C 
BRANCH   6   7
HETATM    7  C   UNL     1      25.289  45.644  49.870  1.00  0.00     0.227 C 
HETATM    8  N   UNL     1      24.870  46.935  50.132  1.00  0.00    -0.324 N 
HETATM    9  H   UNL     1      24.196  47.084  50.876  1.00  0.00     0.169 HD
HETATM   10  O   UNL     1      26.270  45.338  49.193  1.00  0.00    -0.273 OA
BRANCH   8  11
HETATM   11  C   UNL     1      25.284  48.117  49.475  1.00  0.00     0.069 A 
HETATM   12  C   UNL     1      24.316  48.858  48.775  1.00  0.00     0.102 A 
HETATM   13  C   UNL     1      24.679  49.972  48.008  1.00  0.00     0.039 A 
HETATM   14  C   UNL     1      26.008  50.387  47.976  1.00  0.00     0.003 A 
HETATM   15  C   UNL     1      26.970  49.682  48.698  1.00  0.00     0.002 A 
HETATM   16  C   UNL     1      26.612  48.551  49.440  1.00  0.00     0.032 A 
BRANCH  12  17
HETATM   17  O   UNL     1      23.004  48.428  48.826  1.00  0.00    -0.309 OA
BRANCH  17  18
HETATM   18  C   UNL     1      22.019  49.390  48.753  1.00  0.00     0.076 A 
HETATM   19  C   UNL     1      21.845  50.186  49.886  1.00  0.00     0.037 A 
HETATM   20  C   UNL     1      20.876  51.190  49.892  1.00  0.00     0.003 A 
HETATM   21  C   UNL     1      20.090  51.409  48.760  1.00  0.00     0.000 A 
HETATM   22  C   UNL     1      20.280  50.631  47.618  1.00  0.00     0.003 A 
HETATM   23  C   UNL     1      21.252  49.629  47.607  1.00  0.00     0.037 A 
ENDBRANCH  17  18
ENDBRANCH  12  17
ENDBRANCH   8  11
ENDBRANCH   6   7
ENDBRANCH   4   6
BRANCH   1  24
HETATM   24  N   UNL     1      27.259  40.991  52.113  1.00  0.00    -0.287 N 
HETATM   25  C   UNL     1      27.983  41.458  53.168  1.00  0.00     0.326 C 
HETATM   26  N   UNL     1      28.241  42.799  53.201  1.00  0.00    -0.306 N 
HETATM   27  O   UNL     1      28.416  40.632  53.972  1.00  0.00    -0.247 OA
HETATM   28  H   UNL     1      28.065  43.314  52.344  1.00  0.00     0.171 HD
HETATM   29  H   UNL     1      27.198  39.987  52.043  1.00  0.00     0.172 HD
BRANCH  26  30
HETATM   30  C   UNL     1      28.979  43.489  54.185  1.00  0.00     0.069 A 
HETATM   31  C   UNL     1      28.351  44.544  54.868  1.00  0.00     0.095 A 
HETATM   32  C   UNL     1      29.025  45.234  55.880  1.00  0.00     0.039 A 
HETATM   33  C   UNL     1      30.339  44.892  56.198  1.00  0.00     0.003 A 
HETATM   34  C   UNL     1      30.974  43.857  55.513  1.00  0.00     0.002 A 
HETATM   35  C   UNL     1      30.298  43.159  54.509  1.00  0.00     0.032 A 
BRANCH  31  36
HETATM   36  O   UNL     1      27.063  44.866  54.506  1.00  0.00    -0.354 OA
HETATM   37  C   UNL     1      27.024  45.925  53.548  1.00  0.00     0.210 C 
ENDBRANCH  31  36
ENDBRANCH  26  30
ENDBRANCH   1  24
TORSDOF 8
ENDMDL
MODEL 4
REMARK VINA RESULT:      -9.6      1.907     10.748
REMARK  8 active torsions:
REMARK  status: ('A' for Active; 'I' for Inactive)
REMARK    1  A    between atoms: O_2  and  C_3 
REMARK    2  A    between atoms: C_4  and  N_5 
REMARK       I    between atoms: N_5  and  C_6 
REMARK       I    between atoms: C_6  and  N_7 
REMARK    3  A    between atoms: N_7  and  C_8 
REMARK    4  A    between atoms: C_11  and  C_12 
REMARK    5  A    between atoms: C_12  and  C_13 
REMARK       I    between atoms: C_13  and  N_14 
REMARK    6  A    between atoms: N_14  and  C_15 
REMARK    7  A    between atoms: C_16  and  O_17 
REMARK    8  A    between atoms: O_17  and  C_18 
ROOT
HETATM    1  C   UNL     1      24.513  46.722  49.953  1.00  0.00     0.174 C 
HETATM    2  S   UNL     1      25.890  47.648  49.570  1.00  0.00    -0.062 SA
HETATM    3  C   UNL     1      26.359  47.583  51.216  1.00  0.00     0.081 C 
HETATM    4  C   UNL     1      25.416  46.884  51.951  1.00  0.00     0.052 C 
HETATM    5  N   UNL     1      24.400  46.311  51.192  1.00  0.00    -0.228 NA
ENDROOT
BRANCH   4   6
HETATM    6  C   UNL     1      25.379  46.754  53.439  1.00  0.00     0.163 C 
BRANCH   6   7
HETATM    7  C   UNL     1      25.806  45.344  53.838  1.00  0.00     0.227 C 
HETATM    8  N   UNL     1      27.135  45.070  53.575  1.00  0.00    -0.324 N 
HETATM    9  H   UNL     1      27.759  45.844  53.374  1.00  0.00     0.169 HD
HETATM   10  O   UNL     1      25.004  44.559  54.341  1.00  0.00    -0.273 OA
BRANCH   8  11
HETATM   11  C   UNL     1      27.758  43.800  53.560  1.00  0.00     0.069 A 
HETATM   12  C   UNL     1      29.094  43.715  53.986  1.00  0.00     0.102 A 
HETATM   13  C   UNL     1      29.806  42.512  53.888  1.00  0.00     0.039 A 
HETATM   14  C   UNL     1      29.169  41.369  53.409  1.00  0.00     0.003 A 
HETATM   15  C   UNL     1      27.833  41.433  53.019  1.00  0.00     0.002 A 
HETATM   16  C   UNL     1      27.131  42.643  53.090  1.00  0.00     0.032 A 
BRANCH  12  17
HETATM   17  O   UNL     1      29.702  44.862  54.460  1.00  0.00    -0.309 OA
BRANCH  17  18
HETATM   18  C   UNL     1      30.081  44.876  55.786  1.00  0.00     0.076 A 
HETATM   19  C   UNL     1      31.043  43.940  56.166  1.00  0.00     0.037 A 
HETATM   20  C   UNL     1      31.490  43.893  57.488  1.00  0.00     0.003 A 
HETATM   21  C   UNL     1      30.984  44.792  58.427  1.00  0.00     0.000 A 
HETATM   22  C   UNL     1      30.041  45.745  58.044  1.00  0.00     0.003 A 
HETATM   23  C   UNL     1      29.596  45.797  56.721  1.00  0.00     0.037 A 
ENDBRANCH  17  18
ENDBRANCH  12  17
ENDBRANCH   8  11
ENDBRANCH   6   7
ENDBRANCH   4   6
BRANCH   1  24
HETATM   24  N   UNL     1      23.651  46.552  48.912  1.00  0.00    -0.287 N 
HETATM   25  C   UNL     1      22.700  47.433  48.492  1.00  0.00     0.326 C 
HETATM   26  N   UNL     1      22.297  48.385  49.386  1.00  0.00    -0.306 N 
HETATM   27  O   UNL     1      22.220  47.262  47.372  1.00  0.00    -0.247 OA
HETATM   28  H   UNL     1      22.570  48.241  50.354  1.00  0.00     0.171 HD
HETATM   29  H   UNL     1      23.831  45.783  48.284  1.00  0.00     0.172 HD
BRANCH  26  30
HETATM   30  C   UNL     1      21.323  49.381  49.170  1.00  0.00     0.069 A 
HETATM   31  C   UNL     1      19.973  49.041  49.359  1.00  0.00     0.095 A 
HETATM   32  C   UNL     1      18.970  50.002  49.197  1.00  0.00     0.039 A 
HETATM   33  C   UNL     1      19.308  51.301  48.820  1.00  0.00     0.003 A 
HETATM   34  C   UNL     1      20.644  51.642  48.614  1.00  0.00     0.002 A 
HETATM   35  C   UNL     1      21.648  50.685  48.787  1.00  0.00     0.032 A 
BRANCH  31  36
HETATM   36  O   UNL     1      19.681  47.742  49.706  1.00  0.00    -0.354 OA
HETATM   37  C   UNL     1      18.837  47.106  48.744  1.00  0.00     0.210 C 
ENDBRANCH  31  36
ENDBRANCH  26  30
ENDBRANCH   1  24
TORSDOF 8
ENDMDL
MODEL 5
REMARK VINA RESULT:      -9.3      1.704     10.572
REMARK  8 active torsions:
REMARK  status: ('A' for Active; 'I' for Inactive)
REMARK    1  A    between atoms: O_2  and  C_3 
REMARK    2  A    between atoms: C_4  and  N_5 
REMARK       I    between atoms: N_5  and  C_6 
REMARK       I    between atoms: C_6  and  N_7 
REMARK    3  A    between atoms: N_7  and  C_8 
REMARK    4  A    between atoms: C_11  and  C_12 
REMARK    5  A    between atoms: C_12  and  C_13 
REMARK       I    between atoms: C_13  and  N_14 
REMARK    6  A    between atoms: N_14  and  C_15 
REMARK    7  A    between atoms: C_16  and  O_17 
REMARK    8  A    between atoms: O_17  and  C_18 
ROOT
HETATM    1  C   UNL     1      23.414  46.157  49.201  1.00  0.00     0.174 C 
HETATM    2  S   UNL     1      23.652  44.471  49.259  1.00  0.00    -0.062 SA
HETATM    3  C   UNL     1      24.648  44.685  50.636  1.00  0.00     0.081 C 
HETATM    4  C   UNL     1      24.755  46.032  50.939  1.00  0.00     0.052 C 
HETATM    5  N   UNL     1      23.961  46.867  50.157  1.00  0.00    -0.228 NA
ENDROOT
BRANCH   4   6
HETATM    6  C   UNL     1      25.664  46.636  51.960  1.00  0.00     0.163 C 
BRANCH   6   7
HETATM    7  C   UNL     1      26.143  45.550  52.921  1.00  0.00     0.227 C 
HETATM    8  N   UNL     1      27.283  44.894  52.496  1.00  0.00    -0.324 N 
HETATM    9  H   UNL     1      27.830  45.308  51.748  1.00  0.00     0.169 HD
HETATM   10  O   UNL     1      25.534  45.316  53.964  1.00  0.00    -0.273 OA
BRANCH   8  11
HETATM   11  C   UNL     1      27.807  43.679  52.998  1.00  0.00     0.069 A 
HETATM   12  C   UNL     1      28.844  43.748  53.943  1.00  0.00     0.102 A 
HETATM   13  C   UNL     1      29.485  42.587  54.394  1.00  0.00     0.039 A 
HETATM   14  C   UNL     1      29.058  41.341  53.939  1.00  0.00     0.003 A 
HETATM   15  C   UNL     1      28.004  41.259  53.030  1.00  0.00     0.002 A 
HETATM   16  C   UNL     1      27.384  42.422  52.558  1.00  0.00     0.032 A 
BRANCH  12  17
HETATM   17  O   UNL     1      29.246  44.995  54.380  1.00  0.00    -0.309 OA
BRANCH  17  18
HETATM   18  C   UNL     1      29.636  45.109  55.698  1.00  0.00     0.076 A 
HETATM   19  C   UNL     1      28.826  45.896  56.518  1.00  0.00     0.037 A 
HETATM   20  C   UNL     1      29.143  46.055  57.868  1.00  0.00     0.003 A 
HETATM   21  C   UNL     1      30.263  45.417  58.402  1.00  0.00     0.000 A 
HETATM   22  C   UNL     1      31.060  44.610  57.590  1.00  0.00     0.003 A 
HETATM   23  C   UNL     1      30.741  44.445  56.241  1.00  0.00     0.037 A 
ENDBRANCH  17  18
ENDBRANCH  12  17
ENDBRANCH   8  11
ENDBRANCH   6   7
ENDBRANCH   4   6
BRANCH   1  24
HETATM   24  N   UNL     1      22.704  46.581  48.119  1.00  0.00    -0.287 N 
HETATM   25  C   UNL     1      21.822  47.619  48.082  1.00  0.00     0.326 C 
HETATM   26  N   UNL     1      21.302  48.036  49.275  1.00  0.00    -0.306 N 
HETATM   27  O   UNL     1      21.500  48.054  46.976  1.00  0.00    -0.247 OA
HETATM   28  H   UNL     1      21.438  47.417  50.069  1.00  0.00     0.171 HD
HETATM   29  H   UNL     1      22.967  46.208  47.220  1.00  0.00     0.172 HD
BRANCH  26  30
HETATM   30  C   UNL     1      20.369  49.075  49.467  1.00  0.00     0.069 A 
HETATM   31  C   UNL     1      20.857  50.366  49.732  1.00  0.00     0.095 A 
HETATM   32  C   UNL     1      19.975  51.439  49.892  1.00  0.00     0.039 A 
HETATM   33  C   UNL     1      18.599  51.224  49.812  1.00  0.00     0.003 A 
HETATM   34  C   UNL     1      18.107  49.943  49.566  1.00  0.00     0.002 A 
HETATM   35  C   UNL     1      18.988  48.872  49.395  1.00  0.00     0.032 A 
BRANCH  31  36
HETATM   36  O   UNL     1      22.219  50.529  49.828  1.00  0.00    -0.354 OA
HETATM   37  C   UNL     1      22.758  51.224  48.701  1.00  0.00     0.210 C 
ENDBRANCH  31  36
ENDBRANCH  26  30
ENDBRANCH   1  24
TORSDOF 8
ENDMDL
MODEL 6
REMARK VINA RESULT:      -9.3      2.075      4.103
REMARK  8 active torsions:
REMARK  status: ('A' for Active; 'I' for Inactive)
REMARK    1  A    between atoms: O_2  and  C_3 
REMARK    2  A    between atoms: C_4  and  N_5 
REMARK       I    between atoms: N_5  and  C_6 
REMARK       I    between atoms: C_6  and  N_7 
REMARK    3  A    between atoms: N_7  and  C_8 
REMARK    4  A    between atoms: C_11  and  C_12 
REMARK    5  A    between atoms: C_12  and  C_13 
REMARK       I    between atoms: C_13  and  N_14 
REMARK    6  A    between atoms: N_14  and  C_15 
REMARK    7  A    between atoms: C_16  and  O_17 
REMARK    8  A    between atoms: O_17  and  C_18 
ROOT
HETATM    1  C   UNL     1      24.690  47.214  50.189  1.00  0.00     0.174 C 
HETATM    2  S   UNL     1      26.337  47.426  49.807  1.00  0.00    -0.062 SA
HETATM    3  C   UNL     1      25.929  48.853  48.951  1.00  0.00     0.081 C 
HETATM    4  C   UNL     1      24.559  49.053  48.991  1.00  0.00     0.052 C 
HETATM    5  N   UNL     1      23.864  48.149  49.789  1.00  0.00    -0.228 NA
ENDROOT
BRANCH   4   6
HETATM    6  C   UNL     1      23.798  50.089  48.228  1.00  0.00     0.163 C 
BRANCH   6   7
HETATM    7  C   UNL     1      22.637  50.597  49.078  1.00  0.00     0.227 C 
HETATM    8  N   UNL     1      21.392  50.279  48.567  1.00  0.00    -0.324 N 
HETATM    9  H   UNL     1      21.332  49.571  47.842  1.00  0.00     0.169 HD
HETATM   10  O   UNL     1      22.840  51.228  50.114  1.00  0.00    -0.273 OA
BRANCH   8  11
HETATM   11  C   UNL     1      20.146  50.831  48.947  1.00  0.00     0.069 A 
HETATM   12  C   UNL     1      19.247  50.009  49.647  1.00  0.00     0.102 A 
HETATM   13  C   UNL     1      17.954  50.454  49.952  1.00  0.00     0.039 A 
HETATM   14  C   UNL     1      17.567  51.746  49.604  1.00  0.00     0.003 A 
HETATM   15  C   UNL     1      18.465  52.583  48.943  1.00  0.00     0.002 A 
HETATM   16  C   UNL     1      19.746  52.127  48.613  1.00  0.00     0.032 A 
BRANCH  12  17
HETATM   17  O   UNL     1      19.656  48.733  49.984  1.00  0.00    -0.309 OA
BRANCH  17  18
HETATM   18  C   UNL     1      19.173  47.691  49.221  1.00  0.00     0.076 A 
HETATM   19  C   UNL     1      20.123  46.813  48.698  1.00  0.00     0.037 A 
HETATM   20  C   UNL     1      19.718  45.726  47.923  1.00  0.00     0.003 A 
HETATM   21  C   UNL     1      18.362  45.508  47.681  1.00  0.00     0.000 A 
HETATM   22  C   UNL     1      17.409  46.370  48.223  1.00  0.00     0.003 A 
HETATM   23  C   UNL     1      17.811  47.455  49.004  1.00  0.00     0.037 A 
ENDBRANCH  17  18
ENDBRANCH  12  17
ENDBRANCH   8  11
ENDBRANCH   6   7
ENDBRANCH   4   6
BRANCH   1  24
HETATM   24  N   UNL     1      24.417  46.050  50.841  1.00  0.00    -0.287 N 
HETATM   25  C   UNL     1      25.033  45.585  51.964  1.00  0.00     0.326 C 
HETATM   26  N   UNL     1      26.264  46.101  52.258  1.00  0.00    -0.306 N 
HETATM   27  O   UNL     1      24.474  44.683  52.589  1.00  0.00    -0.247 OA
HETATM   28  H   UNL     1      26.722  46.625  51.518  1.00  0.00     0.171 HD
HETATM   29  H   UNL     1      23.577  45.559  50.577  1.00  0.00     0.172 HD
BRANCH  26  30
HETATM   30  C   UNL     1      27.080  45.755  53.354  1.00  0.00     0.069 A 
HETATM   31  C   UNL     1      27.146  46.644  54.439  1.00  0.00     0.095 A 
HETATM   32  C   UNL     1      27.910  46.331  55.568  1.00  0.00     0.039 A 
HETATM   33  C   UNL     1      28.632  45.138  55.608  1.00  0.00     0.003 A 
HETATM   34  C   UNL     1      28.585  44.259  54.528  1.00  0.00     0.002 A 
HETATM   35  C   UNL     1      27.813  44.566  53.403  1.00  0.00     0.032 A 
BRANCH  31  36
HETATM   36  O   UNL     1      26.439  47.821  54.349  1.00  0.00    -0.354 OA
HETATM   37  C   UNL     1      26.367  48.502  55.603  1.00  0.00     0.210 C 
ENDBRANCH  31  36
ENDBRANCH  26  30
ENDBRANCH   1  24
TORSDOF 8
ENDMDL
MODEL 7
REMARK VINA RESULT:      -9.2      1.826      2.476
REMARK  8 active torsions:
REMARK  status: ('A' for Active; 'I' for Inactive)
REMARK    1  A    between atoms: O_2  and  C_3 
REMARK    2  A    between atoms: C_4  and  N_5 
REMARK       I    between atoms: N_5  and  C_6 
REMARK       I    between atoms: C_6  and  N_7 
REMARK    3  A    between atoms: N_7  and  C_8 
REMARK    4  A    between atoms: C_11  and  C_12 
REMARK    5  A    between atoms: C_12  and  C_13 
REMARK       I    between atoms: C_13  and  N_14 
REMARK    6  A    between atoms: N_14  and  C_15 
REMARK    7  A    between atoms: C_16  and  O_17 
REMARK    8  A    between atoms: O_17  and  C_18 
ROOT
HETATM    1  C   UNL     1      27.826  42.960  51.561  1.00  0.00     0.174 C 
HETATM    2  S   UNL     1      26.954  41.552  51.162  1.00  0.00    -0.062 SA
HETATM    3  C   UNL     1      25.540  42.506  50.999  1.00  0.00     0.081 C 
HETATM    4  C   UNL     1      25.825  43.830  51.290  1.00  0.00     0.052 C 
HETATM    5  N   UNL     1      27.172  44.094  51.522  1.00  0.00    -0.228 NA
ENDROOT
BRANCH   4   6
HETATM    6  C   UNL     1      24.829  44.936  51.423  1.00  0.00     0.163 C 
BRANCH   6   7
HETATM    7  C   UNL     1      24.508  45.501  50.042  1.00  0.00     0.227 C 
HETATM    8  N   UNL     1      23.221  45.229  49.615  1.00  0.00    -0.324 N 
HETATM    9  H   UNL     1      22.543  44.906  50.297  1.00  0.00     0.169 HD
HETATM   10  O   UNL     1      25.351  46.131  49.405  1.00  0.00    -0.273 OA
BRANCH   8  11
HETATM   11  C   UNL     1      22.712  45.359  48.301  1.00  0.00     0.069 A 
HETATM   12  C   UNL     1      21.916  46.479  48.010  1.00  0.00     0.102 A 
HETATM   13  C   UNL     1      21.286  46.610  46.766  1.00  0.00     0.039 A 
HETATM   14  C   UNL     1      21.490  45.644  45.783  1.00  0.00     0.003 A 
HETATM   15  C   UNL     1      22.308  44.548  46.048  1.00  0.00     0.002 A 
HETATM   16  C   UNL     1      22.914  44.403  47.302  1.00  0.00     0.032 A 
BRANCH  12  17
HETATM   17  O   UNL     1      21.733  47.425  49.000  1.00  0.00    -0.309 OA
BRANCH  17  18
HETATM   18  C   UNL     1      22.220  48.693  48.764  1.00  0.00     0.076 A 
HETATM   19  C   UNL     1      21.309  49.742  48.894  1.00  0.00     0.037 A 
HETATM   20  C   UNL     1      21.724  51.058  48.682  1.00  0.00     0.003 A 
HETATM   21  C   UNL     1      23.052  51.327  48.353  1.00  0.00     0.000 A 
HETATM   22  C   UNL     1      23.970  50.281  48.247  1.00  0.00     0.003 A 
HETATM   23  C   UNL     1      23.560  48.965  48.464  1.00  0.00     0.037 A 
ENDBRANCH  17  18
ENDBRANCH  12  17
ENDBRANCH   8  11
ENDBRANCH   6   7
ENDBRANCH   4   6
BRANCH   1  24
HETATM   24  N   UNL     1      29.119  42.728  51.923  1.00  0.00    -0.287 N 
HETATM   25  C   UNL     1      29.697  43.044  53.116  1.00  0.00     0.326 C 
HETATM   26  N   UNL     1      29.080  44.000  53.872  1.00  0.00    -0.306 N 
HETATM   27  O   UNL     1      30.769  42.504  53.390  1.00  0.00    -0.247 OA
HETATM   28  H   UNL     1      28.367  44.555  53.407  1.00  0.00     0.171 HD
HETATM   29  H   UNL     1      29.663  42.122  51.328  1.00  0.00     0.172 HD
BRANCH  26  30
HETATM   30  C   UNL     1      29.510  44.488  55.123  1.00  0.00     0.069 A 
HETATM   31  C   UNL     1      28.799  45.554  55.700  1.00  0.00     0.095 A 
HETATM   32  C   UNL     1      29.160  46.049  56.957  1.00  0.00     0.039 A 
HETATM   33  C   UNL     1      30.249  45.499  57.634  1.00  0.00     0.003 A 
HETATM   34  C   UNL     1      30.969  44.453  57.060  1.00  0.00     0.002 A 
HETATM   35  C   UNL     1      30.603  43.949  55.809  1.00  0.00     0.032 A 
BRANCH  31  36
HETATM   36  O   UNL     1      27.748  46.084  54.988  1.00  0.00    -0.354 OA
HETATM   37  C   UNL     1      27.824  47.509  54.898  1.00  0.00     0.210 C 
ENDBRANCH  31  36
ENDBRANCH  26  30
ENDBRANCH   1  24
TORSDOF 8
ENDMDL
MODEL 8
REMARK VINA RESULT:      -9.1      4.814      7.285
REMARK  8 active torsions:
REMARK  status: ('A' for Active; 'I' for Inactive)
REMARK    1  A    between atoms: O_2  and  C_3 
REMARK    2  A    between atoms: C_4  and  N_5 
REMARK       I    between atoms: N_5  and  C_6 
REMARK       I    between atoms: C_6  and  N_7 
REMARK    3  A    between atoms: N_7  and  C_8 
REMARK    4  A    between atoms: C_11  and  C_12 
REMARK    5  A    between atoms: C_12  and  C_13 
REMARK       I    between atoms: C_13  and  N_14 
REMARK    6  A    between atoms: N_14  and  C_15 
REMARK    7  A    between atoms: C_16  and  O_17 
REMARK    8  A    between atoms: O_17  and  C_18 
ROOT
HETATM    1  C   UNL     1      20.075  48.741  49.155  1.00  0.00     0.174 C 
HETATM    2  S   UNL     1      18.584  48.311  49.857  1.00  0.00    -0.062 SA
HETATM    3  C   UNL     1      18.267  47.307  48.505  1.00  0.00     0.081 C 
HETATM    4  C   UNL     1      19.308  47.393  47.597  1.00  0.00     0.052 C 
HETATM    5  N   UNL     1      20.391  48.154  48.027  1.00  0.00    -0.228 NA
ENDROOT
BRANCH   4   6
HETATM    6  C   UNL     1      19.330  46.802  46.224  1.00  0.00     0.163 C 
BRANCH   6   7
HETATM    7  C   UNL     1      18.536  47.694  45.273  1.00  0.00     0.227 C 
HETATM    8  N   UNL     1      18.970  49.007  45.249  1.00  0.00    -0.324 N 
HETATM    9  H   UNL     1      19.876  49.225  45.651  1.00  0.00     0.169 HD
HETATM   10  O   UNL     1      17.603  47.241  44.611  1.00  0.00    -0.273 OA
BRANCH   8  11
HETATM   11  C   UNL     1      18.288  50.122  44.707  1.00  0.00     0.069 A 
HETATM   12  C   UNL     1      17.245  50.688  45.460  1.00  0.00     0.102 A 
HETATM   13  C   UNL     1      16.454  51.717  44.934  1.00  0.00     0.039 A 
HETATM   14  C   UNL     1      16.734  52.225  43.667  1.00  0.00     0.003 A 
HETATM   15  C   UNL     1      17.790  51.696  42.927  1.00  0.00     0.002 A 
HETATM   16  C   UNL     1      18.561  50.648  43.442  1.00  0.00     0.032 A 
BRANCH  12  17
HETATM   17  O   UNL     1      16.991  50.169  46.715  1.00  0.00    -0.309 OA
BRANCH  17  18
HETATM   18  C   UNL     1      17.024  51.043  47.781  1.00  0.00     0.076 A 
HETATM   19  C   UNL     1      15.847  51.165  48.519  1.00  0.00     0.037 A 
HETATM   20  C   UNL     1      15.798  52.021  49.621  1.00  0.00     0.003 A 
HETATM   21  C   UNL     1      16.931  52.746  49.992  1.00  0.00     0.000 A 
HETATM   22  C   UNL     1      18.116  52.606  49.270  1.00  0.00     0.003 A 
HETATM   23  C   UNL     1      18.169  51.746  48.171  1.00  0.00     0.037 A 
ENDBRANCH  17  18
ENDBRANCH  12  17
ENDBRANCH   8  11
ENDBRANCH   6   7
ENDBRANCH   4   6
BRANCH   1  24
HETATM   24  N   UNL     1      20.757  49.699  49.843  1.00  0.00    -0.287 N 
HETATM   25  C   UNL     1      22.088  49.974  49.747  1.00  0.00     0.326 C 
HETATM   26  N   UNL     1      22.890  48.997  49.230  1.00  0.00    -0.306 N 
HETATM   27  O   UNL     1      22.482  51.049  50.202  1.00  0.00    -0.247 OA
HETATM   28  H   UNL     1      22.482  48.070  49.155  1.00  0.00     0.171 HD
HETATM   29  H   UNL     1      20.212  50.380  50.348  1.00  0.00     0.172 HD
BRANCH  26  30
HETATM   30  C   UNL     1      24.288  49.061  49.056  1.00  0.00     0.069 A 
HETATM   31  C   UNL     1      25.095  48.225  49.845  1.00  0.00     0.095 A 
HETATM   32  C   UNL     1      26.484  48.222  49.684  1.00  0.00     0.039 A 
HETATM   33  C   UNL     1      27.077  49.073  48.750  1.00  0.00     0.003 A 
HETATM   34  C   UNL     1      26.283  49.917  47.976  1.00  0.00     0.002 A 
HETATM   35  C   UNL     1      24.894  49.913  48.128  1.00  0.00     0.032 A 
BRANCH  31  36
HETATM   36  O   UNL     1      24.473  47.421  50.771  1.00  0.00    -0.354 OA
HETATM   37  C   UNL     1      24.743  46.035  50.547  1.00  0.00     0.210 C 
ENDBRANCH  31  36
ENDBRANCH  26  30
ENDBRANCH   1  24
TORSDOF 8
ENDMDL
MODEL 9
REMARK VINA RESULT:      -9.0      1.683      3.869
REMARK  8 active torsions:
REMARK  status: ('A' for Active; 'I' for Inactive)
REMARK    1  A    between atoms: O_2  and  C_3 
REMARK    2  A    between atoms: C_4  and  N_5 
REMARK       I    between atoms: N_5  and  C_6 
REMARK       I    between atoms: C_6  and  N_7 
REMARK    3  A    between atoms: N_7  and  C_8 
REMARK    4  A    between atoms: C_11  and  C_12 
REMARK    5  A    between atoms: C_12  and  C_13 
REMARK       I    between atoms: C_13  and  N_14 
REMARK    6  A    between atoms: N_14  and  C_15 
REMARK    7  A    between atoms: C_16  and  O_17 
REMARK    8  A    between atoms: O_17  and  C_18 
ROOT
HETATM    1  C   UNL     1      24.649  45.600  51.076  1.00  0.00     0.174 C 
HETATM    2  S   UNL     1      23.893  44.980  49.681  1.00  0.00    -0.062 SA
HETATM    3  C   UNL     1      24.366  46.390  48.830  1.00  0.00     0.081 C 
HETATM    4  C   UNL     1      25.043  47.250  49.678  1.00  0.00     0.052 C 
HETATM    5  N   UNL     1      25.282  46.740  50.950  1.00  0.00    -0.228 NA
ENDROOT
BRANCH   4   6
HETATM    6  C   UNL     1      25.467  48.647  49.358  1.00  0.00     0.163 C 
BRANCH   6   7
HETATM    7  C   UNL     1      24.316  49.387  48.683  1.00  0.00     0.227 C 
HETATM    8  N   UNL     1      23.214  49.568  49.499  1.00  0.00    -0.324 N 
HETATM    9  H   UNL     1      23.323  49.424  50.497  1.00  0.00     0.169 HD
HETATM   10  O   UNL     1      24.406  49.767  47.516  1.00  0.00    -0.273 OA
BRANCH   8  11
HETATM   11  C   UNL     1      21.911  49.950  49.102  1.00  0.00     0.069 A 
HETATM   12  C   UNL     1      21.005  48.936  48.749  1.00  0.00     0.102 A 
HETATM   13  C   UNL     1      19.739  49.248  48.237  1.00  0.00     0.039 A 
HETATM   14  C   UNL     1      19.349  50.581  48.123  1.00  0.00     0.003 A 
HETATM   15  C   UNL     1      20.227  51.594  48.506  1.00  0.00     0.002 A 
HETATM   16  C   UNL     1      21.503  51.281  48.990  1.00  0.00     0.032 A 
BRANCH  12  17
HETATM   17  O   UNL     1      21.414  47.622  48.875  1.00  0.00    -0.309 OA
BRANCH  17  18
HETATM   18  C   UNL     1      20.789  46.685  48.079  1.00  0.00     0.076 A 
HETATM   19  C   UNL     1      21.300  46.527  46.790  1.00  0.00     0.037 A 
HETATM   20  C   UNL     1      20.732  45.592  45.923  1.00  0.00     0.003 A 
HETATM   21  C   UNL     1      19.662  44.805  46.349  1.00  0.00     0.000 A 
HETATM   22  C   UNL     1      19.166  44.944  47.646  1.00  0.00     0.003 A 
HETATM   23  C   UNL     1      19.736  45.875  48.517  1.00  0.00     0.037 A 
ENDBRANCH  17  18
ENDBRANCH  12  17
ENDBRANCH   8  11
ENDBRANCH   6   7
ENDBRANCH   4   6
BRANCH   1  24
HETATM   24  N   UNL     1      24.465  44.841  52.191  1.00  0.00    -0.287 N 
HETATM   25  C   UNL     1      25.388  44.583  53.160  1.00  0.00     0.326 C 
HETATM   26  N   UNL     1      26.702  44.761  52.830  1.00  0.00    -0.306 N 
HETATM   27  O   UNL     1      24.980  44.138  54.233  1.00  0.00    -0.247 OA
HETATM   28  H   UNL     1      26.910  44.862  51.841  1.00  0.00     0.171 HD
HETATM   29  H   UNL     1      23.519  44.575  52.417  1.00  0.00     0.172 HD
BRANCH  26  30
HETATM   30  C   UNL     1      27.816  44.541  53.666  1.00  0.00     0.069 A 
HETATM   31  C   UNL     1      28.629  43.424  53.409  1.00  0.00     0.095 A 
HETATM   32  C   UNL     1      29.767  43.182  54.184  1.00  0.00     0.039 A 
HETATM   33  C   UNL     1      30.086  44.041  55.236  1.00  0.00     0.003 A 
HETATM   34  C   UNL     1      29.275  45.141  55.508  1.00  0.00     0.002 A 
HETATM   35  C   UNL     1      28.142  45.390  54.727  1.00  0.00     0.032 A 
BRANCH  31  36
HETATM   36  O   UNL     1      28.265  42.589  52.379  1.00  0.00    -0.354 OA
HETATM   37  C   UNL     1      28.216  41.220  52.787  1.00  0.00     0.210 C 
ENDBRANCH  31  36
ENDBRANCH  26  30
ENDBRANCH   1  24
TORSDOF 8
ENDMDL
MODEL 10
REMARK VINA RESULT:      -9.0      2.449     10.164
REMARK  8 active torsions:
REMARK  status: ('A' for Active; 'I' for Inactive)
REMARK    1  A    between atoms: O_2  and  C_3 
REMARK    2  A    between atoms: C_4  and  N_5 
REMARK       I    between atoms: N_5  and  C_6 
REMARK       I    between atoms: C_6  and  N_7 
REMARK    3  A    between atoms: N_7  and  C_8 
REMARK    4  A    between atoms: C_11  and  C_12 
REMARK    5  A    between atoms: C_12  and  C_13 
REMARK       I    between atoms: C_13  and  N_14 
REMARK    6  A    between atoms: N_14  and  C_15 
REMARK    7  A    between atoms: C_16  and  O_17 
REMARK    8  A    between atoms: O_17  and  C_18 
ROOT
HETATM    1  C   UNL     1      24.800  48.084  49.324  1.00  0.00     0.174 C 
HETATM    2  S   UNL     1      26.388  48.080  49.941  1.00  0.00    -0.062 SA
HETATM    3  C   UNL     1      26.082  46.550  50.648  1.00  0.00     0.081 C 
HETATM    4  C   UNL     1      24.778  46.161  50.389  1.00  0.00     0.052 C 
HETATM    5  N   UNL     1      24.076  47.014  49.543  1.00  0.00    -0.228 NA
ENDROOT
BRANCH   4   6
HETATM    6  C   UNL     1      24.082  44.974  50.972  1.00  0.00     0.163 C 
BRANCH   6   7
HETATM    7  C   UNL     1      24.642  43.698  50.348  1.00  0.00     0.227 C 
HETATM    8  N   UNL     1      25.329  42.897  51.241  1.00  0.00    -0.324 N 
HETATM    9  H   UNL     1      25.218  43.073  52.234  1.00  0.00     0.169 HD
HETATM   10  O   UNL     1      24.473  43.450  49.155  1.00  0.00    -0.273 OA
BRANCH   8  11
HETATM   11  C   UNL     1      26.191  41.819  50.933  1.00  0.00     0.069 A 
HETATM   12  C   UNL     1      27.576  42.060  50.929  1.00  0.00     0.102 A 
HETATM   13  C   UNL     1      28.478  41.070  50.520  1.00  0.00     0.039 A 
HETATM   14  C   UNL     1      28.005  39.810  50.160  1.00  0.00     0.003 A 
HETATM   15  C   UNL     1      26.636  39.548  50.196  1.00  0.00     0.002 A 
HETATM   16  C   UNL     1      25.733  40.548  50.577  1.00  0.00     0.032 A 
BRANCH  12  17
HETATM   17  O   UNL     1      28.019  43.317  51.294  1.00  0.00    -0.309 OA
BRANCH  17  18
HETATM   18  C   UNL     1      28.667  43.432  52.506  1.00  0.00     0.076 A 
HETATM   19  C   UNL     1      28.045  44.228  53.468  1.00  0.00     0.037 A 
HETATM   20  C   UNL     1      28.629  44.390  54.726  1.00  0.00     0.003 A 
HETATM   21  C   UNL     1      29.829  43.745  55.026  1.00  0.00     0.000 A 
HETATM   22  C   UNL     1      30.440  42.928  54.074  1.00  0.00     0.003 A 
HETATM   23  C   UNL     1      29.855  42.760  52.818  1.00  0.00     0.037 A 
ENDBRANCH  17  18
ENDBRANCH  12  17
ENDBRANCH   8  11
ENDBRANCH   6   7
ENDBRANCH   4   6
BRANCH   1  24
HETATM   24  N   UNL     1      24.451  49.243  48.699  1.00  0.00    -0.287 N 
HETATM   25  C   UNL     1      23.275  49.917  48.839  1.00  0.00     0.326 C 
HETATM   26  N   UNL     1      22.209  49.214  49.325  1.00  0.00    -0.306 N 
HETATM   27  O   UNL     1      23.237  51.083  48.446  1.00  0.00    -0.247 OA
HETATM   28  H   UNL     1      22.305  48.203  49.346  1.00  0.00     0.171 HD
HETATM   29  H   UNL     1      25.179  49.745  48.216  1.00  0.00     0.172 HD
BRANCH  26  30
HETATM   30  C   UNL     1      20.903  49.706  49.535  1.00  0.00     0.069 A 
HETATM   31  C   UNL     1      19.836  48.793  49.492  1.00  0.00     0.095 A 
HETATM   32  C   UNL     1      18.527  49.222  49.732  1.00  0.00     0.039 A 
HETATM   33  C   UNL     1      18.274  50.569  49.991  1.00  0.00     0.003 A 
HETATM   34  C   UNL     1      19.326  51.482  50.018  1.00  0.00     0.002 A 
HETATM   35  C   UNL     1      20.637  51.054  49.789  1.00  0.00     0.032 A 
BRANCH  31  36
HETATM   36  O   UNL     1      20.126  47.479  49.209  1.00  0.00    -0.354 OA
HETATM   37  C   UNL     1      19.503  47.040  48.000  1.00  0.00     0.210 C 
ENDBRANCH  31  36
ENDBRANCH  26  30
ENDBRANCH   1  24
TORSDOF 8
ENDMDL
