MODEL 1
REMARK VINA RESULT:      -8.6      0.000      0.000
REMARK  6 active torsions:
REMARK  status: ('A' for Active; 'I' for Inactive)
REMARK    1  A    between atoms: C_2  and  C_3 
REMARK    2  A    between atoms: C_3  and  O_4 
REMARK    3  A    between atoms: C_3  and  C_12 
REMARK    4  A    between atoms: O_4  and  C_5 
REMARK    5  A    between atoms: C_12  and  N_13 
REMARK       I    between atoms: N_13  and  C_14 
REMARK       I    between atoms: C_14  and  N_15 
REMARK    6  A    between atoms: N_15  and  C_16 
ROOT
HETATM    1  N   UNL     1      26.476  45.464  52.139  1.00  0.00    -0.340 N 
HETATM    2  C   UNL     1      25.935  46.677  51.763  1.00  0.00     0.320 C 
HETATM    3  N   UNL     1      25.948  46.820  50.393  1.00  0.00    -0.307 N 
HETATM    4  O   UNL     1      25.518  47.492  52.573  1.00  0.00    -0.247 OA
HETATM    5  H   UNL     1      26.716  44.798  51.423  1.00  0.00     0.164 HD
HETATM    6  H   UNL     1      26.327  46.046  49.875  1.00  0.00     0.170 HD
ENDROOT
BRANCH   1   7
HETATM    7  C   UNL     1      26.349  44.964  53.504  1.00  0.00     0.156 C 
BRANCH   7   8
HETATM    8  C   UNL     1      27.385  43.855  53.795  1.00  0.00     0.146 C 
BRANCH   8   9
HETATM    9  C   UNL     1      27.366  42.750  52.727  1.00  0.00     0.029 C 
HETATM   10  C   UNL     1      27.939  41.426  53.202  1.00  0.00     0.007 C 
ENDBRANCH   8   9
BRANCH   8  11
HETATM   11  O   UNL     1      28.682  44.470  53.784  1.00  0.00    -0.343 OA
BRANCH  11  12
HETATM   12  C   UNL     1      29.514  44.378  54.865  1.00  0.00     0.091 A 
HETATM   13  C   UNL     1      29.485  45.455  55.769  1.00  0.00     0.067 A 
HETATM   14 CL   UNL     1      28.487  46.840  55.490  1.00  0.00    -0.081 Cl
HETATM   15  C   UNL     1      30.281  45.448  56.918  1.00  0.00     0.026 A 
HETATM   16  C   UNL     1      31.108  44.360  57.185  1.00  0.00     0.002 A 
HETATM   17  C   UNL     1      31.140  43.285  56.302  1.00  0.00     0.003 A 
HETATM   18  C   UNL     1      30.348  43.292  55.147  1.00  0.00     0.038 A 
ENDBRANCH  11  12
ENDBRANCH   8  11
ENDBRANCH   7   8
ENDBRANCH   1   7
BRANCH   3  19
HETATM   19  C   UNL     1      25.447  47.906  49.638  1.00  0.00     0.059 A 
HETATM   20  C   UNL     1      26.353  48.823  49.068  1.00  0.00    -0.032 A 
HETATM   21  C   UNL     1      27.843  48.689  49.219  1.00  0.00     0.050 C 
HETATM   22  C   UNL     1      25.849  49.895  48.319  1.00  0.00     0.028 A 
HETATM   23  C   UNL     1      24.480  50.026  48.163  1.00  0.00     0.117 A 
HETATM   24  N   UNL     1      23.588  49.172  48.693  1.00  0.00    -0.271 NA
HETATM   25  C   UNL     1      24.088  48.133  49.412  1.00  0.00     0.146 A 
ENDBRANCH   3  19
TORSDOF 6
ENDMDL
MODEL 2
REMARK VINA RESULT:      -8.2      1.549      2.014
REMARK  6 active torsions:
REMARK  status: ('A' for Active; 'I' for Inactive)
REMARK    1  A    between atoms: C_2  and  C_3 
REMARK    2  A    between atoms: C_3  and  O_4 
REMARK    3  A    between atoms: C_3  and  C_12 
REMARK    4  A    between atoms: O_4  and  C_5 
REMARK    5  A    between atoms: C_12  and  N_13 
REMARK       I    between atoms: N_13  and  C_14 
REMARK       I    between atoms: C_14  and  N_15 
REMARK    6  A    between atoms: N_15  and  C_16 
ROOT
HETATM    1  N   UNL     1      26.290  44.529  51.613  1.00  0.00    -0.340 N 
HETATM    2  C   UNL     1      26.607  45.371  50.566  1.00  0.00     0.320 C 
HETATM    3  N   UNL     1      26.081  46.629  50.768  1.00  0.00    -0.307 N 
HETATM    4  O   UNL     1      27.263  45.007  49.601  1.00  0.00    -0.247 OA
HETATM    5  H   UNL     1      25.827  44.912  52.420  1.00  0.00     0.164 HD
HETATM    6  H   UNL     1      25.567  46.757  51.622  1.00  0.00     0.170 HD
ENDROOT
BRANCH   1   7
HETATM    7  C   UNL     1      26.934  43.228  51.763  1.00  0.00     0.156 C 
BRANCH   7   8
HETATM    8  C   UNL     1      27.559  43.071  53.169  1.00  0.00     0.146 C 
BRANCH   8   9
HETATM    9  C   UNL     1      27.906  41.608  53.487  1.00  0.00     0.029 C 
HETATM   10  C   UNL     1      28.797  40.948  52.449  1.00  0.00     0.007 C 
ENDBRANCH   8   9
BRANCH   8  11
HETATM   11  O   UNL     1      28.773  43.835  53.182  1.00  0.00    -0.343 OA
BRANCH  11  12
HETATM   12  C   UNL     1      29.416  44.116  54.356  1.00  0.00     0.091 A 
HETATM   13  C   UNL     1      28.960  45.241  55.064  1.00  0.00     0.067 A 
HETATM   14 CL   UNL     1      27.690  46.242  54.447  1.00  0.00    -0.081 Cl
HETATM   15  C   UNL     1      29.535  45.601  56.287  1.00  0.00     0.026 A 
HETATM   16  C   UNL     1      30.565  44.834  56.824  1.00  0.00     0.002 A 
HETATM   17  C   UNL     1      31.020  43.712  56.136  1.00  0.00     0.003 A 
HETATM   18  C   UNL     1      30.450  43.353  54.908  1.00  0.00     0.038 A 
ENDBRANCH  11  12
ENDBRANCH   8  11
ENDBRANCH   7   8
ENDBRANCH   1   7
BRANCH   3  19
HETATM   19  C   UNL     1      26.225  47.764  49.937  1.00  0.00     0.059 A 
HETATM   20  C   UNL     1      25.076  48.347  49.365  1.00  0.00    -0.032 A 
HETATM   21  C   UNL     1      23.690  47.816  49.611  1.00  0.00     0.050 C 
HETATM   22  C   UNL     1      25.226  49.473  48.544  1.00  0.00     0.028 A 
HETATM   23  C   UNL     1      26.494  49.978  48.315  1.00  0.00     0.117 A 
HETATM   24  N   UNL     1      27.610  49.447  48.843  1.00  0.00    -0.271 NA
HETATM   25  C   UNL     1      27.452  48.359  49.642  1.00  0.00     0.146 A 
ENDBRANCH   3  19
TORSDOF 6
ENDMDL
MODEL 3
REMARK VINA RESULT:      -8.1      1.456      2.208
REMARK  6 active torsions:
REMARK  status: ('A' for Active; 'I' for Inactive)
REMARK    1  A    between atoms: C_2  and  C_3 
REMARK    2  A    between atoms: C_3  and  O_4 
REMARK    3  A    between atoms: C_3  and  C_12 
REMARK    4  A    between atoms: O_4  and  C_5 
REMARK    5  A    between atoms: C_12  and  N_13 
REMARK       I    between atoms: N_13  and  C_14 
REMARK       I    between atoms: C_14  and  N_15 
REMARK    6  A    between atoms: N_15  and  C_16 
ROOT
HETATM    1  N   UNL     1      27.220  43.835  52.502  1.00  0.00    -0.340 N 
HETATM    2  C   UNL     1      26.522  45.009  52.299  1.00  0.00     0.320 C 
HETATM    3  N   UNL     1      26.305  45.229  50.956  1.00  0.00    -0.307 N 
HETATM    4  O   UNL     1      26.170  45.734  53.218  1.00  0.00    -0.247 OA
HETATM    5  H   UNL     1      27.400  43.237  51.713  1.00  0.00     0.164 HD
HETATM    6  H   UNL     1      26.663  44.526  50.334  1.00  0.00     0.170 HD
ENDROOT
BRANCH   1   7
HETATM    7  C   UNL     1      27.355  43.250  53.831  1.00  0.00     0.156 C 
BRANCH   7   8
HETATM    8  C   UNL     1      28.820  42.852  54.124  1.00  0.00     0.146 C 
BRANCH   8   9
HETATM    9  C   UNL     1      29.481  42.156  52.924  1.00  0.00     0.029 C 
HETATM   10  C   UNL     1      28.916  40.777  52.626  1.00  0.00     0.007 C 
ENDBRANCH   8   9
BRANCH   8  11
HETATM   11  O   UNL     1      29.543  44.060  54.398  1.00  0.00    -0.343 OA
BRANCH  11  12
HETATM   12  C   UNL     1      30.149  44.259  55.608  1.00  0.00     0.091 A 
HETATM   13  C   UNL     1      29.763  45.407  56.319  1.00  0.00     0.067 A 
HETATM   14 CL   UNL     1      28.620  46.531  55.667  1.00  0.00    -0.081 Cl
HETATM   15  C   UNL     1      30.306  45.690  57.576  1.00  0.00     0.026 A 
HETATM   16  C   UNL     1      31.236  44.822  58.143  1.00  0.00     0.002 A 
HETATM   17  C   UNL     1      31.622  43.677  57.452  1.00  0.00     0.003 A 
HETATM   18  C   UNL     1      31.083  43.395  56.190  1.00  0.00     0.038 A 
ENDBRANCH  11  12
ENDBRANCH   8  11
ENDBRANCH   7   8
ENDBRANCH   1   7
BRANCH   3  19
HETATM   19  C   UNL     1      25.597  46.302  50.365  1.00  0.00     0.059 A 
HETATM   20  C   UNL     1      24.292  46.079  49.883  1.00  0.00    -0.032 A 
HETATM   21  C   UNL     1      23.609  44.743  49.979  1.00  0.00     0.050 C 
HETATM   22  C   UNL     1      23.595  47.147  49.300  1.00  0.00     0.028 A 
HETATM   23  C   UNL     1      24.207  48.386  49.212  1.00  0.00     0.117 A 
HETATM   24  N   UNL     1      25.450  48.632  49.661  1.00  0.00    -0.271 NA
HETATM   25  C   UNL     1      26.114  47.591  50.229  1.00  0.00     0.146 A 
ENDBRANCH   3  19
TORSDOF 6
ENDMDL
MODEL 4
REMARK VINA RESULT:      -7.9      2.710      7.963
REMARK  6 active torsions:
REMARK  status: ('A' for Active; 'I' for Inactive)
REMARK    1  A    between atoms: C_2  and  C_3 
REMARK    2  A    between atoms: C_3  and  O_4 
REMARK    3  A    between atoms: C_3  and  C_12 
REMARK    4  A    between atoms: O_4  and  C_5 
REMARK    5  A    between atoms: C_12  and  N_13 
REMARK       I    between atoms: N_13  and  C_14 
REMARK       I    between atoms: C_14  and  N_15 
REMARK    6  A    between atoms: N_15  and  C_16 
ROOT
HETATM    1  N   UNL     1      26.515  44.930  52.420  1.00  0.00    -0.340 N 
HETATM    2  C   UNL     1      26.993  44.732  53.700  1.00  0.00     0.320 C 
HETATM    3  N   UNL     1      28.368  44.831  53.734  1.00  0.00    -0.307 N 
HETATM    4  O   UNL     1      26.260  44.492  54.648  1.00  0.00    -0.247 OA
HETATM    5  H   UNL     1      27.160  45.215  51.701  1.00  0.00     0.164 HD
HETATM    6  H   UNL     1      28.814  45.037  52.858  1.00  0.00     0.170 HD
ENDROOT
BRANCH   1   7
HETATM    7  C   UNL     1      25.093  45.127  52.162  1.00  0.00     0.156 C 
BRANCH   7   8
HETATM    8  C   UNL     1      24.837  45.501  50.684  1.00  0.00     0.146 C 
BRANCH   8   9
HETATM    9  C   UNL     1      23.683  44.691  50.073  1.00  0.00     0.029 C 
HETATM   10  C   UNL     1      23.431  44.991  48.606  1.00  0.00     0.007 C 
ENDBRANCH   8   9
BRANCH   8  11
HETATM   11  O   UNL     1      24.479  46.890  50.652  1.00  0.00    -0.343 OA
BRANCH  11  12
HETATM   12  C   UNL     1      25.211  47.789  49.926  1.00  0.00     0.091 A 
HETATM   13  C   UNL     1      24.482  48.711  49.156  1.00  0.00     0.067 A 
HETATM   14 CL   UNL     1      22.753  48.668  49.094  1.00  0.00    -0.081 Cl
HETATM   15  C   UNL     1      25.134  49.687  48.396  1.00  0.00     0.026 A 
HETATM   16  C   UNL     1      26.525  49.760  48.405  1.00  0.00     0.002 A 
HETATM   17  C   UNL     1      27.259  48.857  49.169  1.00  0.00     0.003 A 
HETATM   18  C   UNL     1      26.607  47.876  49.927  1.00  0.00     0.038 A 
ENDBRANCH  11  12
ENDBRANCH   8  11
ENDBRANCH   7   8
ENDBRANCH   1   7
BRANCH   3  19
HETATM   19  C   UNL     1      29.208  44.726  54.867  1.00  0.00     0.059 A 
HETATM   20  C   UNL     1      30.145  43.675  54.932  1.00  0.00    -0.032 A 
HETATM   21  C   UNL     1      30.299  42.658  53.834  1.00  0.00     0.050 C 
HETATM   22  C   UNL     1      30.976  43.577  56.056  1.00  0.00     0.028 A 
HETATM   23  C   UNL     1      30.853  44.511  57.070  1.00  0.00     0.117 A 
HETATM   24  N   UNL     1      29.970  45.525  57.042  1.00  0.00    -0.271 NA
HETATM   25  C   UNL     1      29.174  45.612  55.944  1.00  0.00     0.146 A 
ENDBRANCH   3  19
TORSDOF 6
ENDMDL
MODEL 5
REMARK VINA RESULT:      -7.9      3.580      7.312
REMARK  6 active torsions:
REMARK  status: ('A' for Active; 'I' for Inactive)
REMARK    1  A    between atoms: C_2  and  C_3 
REMARK    2  A    between atoms: C_3  and  O_4 
REMARK    3  A    between atoms: C_3  and  C_12 
REMARK    4  A    between atoms: O_4  and  C_5 
REMARK    5  A    between atoms: C_12  and  N_13 
REMARK       I    between atoms: N_13  and  C_14 
REMARK       I    between atoms: C_14  and  N_15 
REMARK    6  A    between atoms: N_15  and  C_16 
ROOT
HETATM    1  N   UNL     1      29.564  42.655  52.549  1.00  0.00    -0.340 N 
HETATM    2  C   UNL     1      29.545  42.751  53.926  1.00  0.00     0.320 C 
HETATM    3  N   UNL     1      30.456  43.686  54.368  1.00  0.00    -0.307 N 
HETATM    4  O   UNL     1      28.810  42.069  54.624  1.00  0.00    -0.247 OA
HETATM    5  H   UNL     1      30.125  43.307  52.026  1.00  0.00     0.164 HD
HETATM    6  H   UNL     1      30.980  44.159  53.653  1.00  0.00     0.170 HD
ENDROOT
BRANCH   1   7
HETATM    7  C   UNL     1      28.527  41.929  51.823  1.00  0.00     0.156 C 
BRANCH   7   8
HETATM    8  C   UNL     1      27.533  42.899  51.145  1.00  0.00     0.146 C 
BRANCH   8   9
HETATM    9  C   UNL     1      26.818  42.252  49.948  1.00  0.00     0.029 C 
HETATM   10  C   UNL     1      25.458  41.667  50.287  1.00  0.00     0.007 C 
ENDBRANCH   8   9
BRANCH   8  11
HETATM   11  O   UNL     1      26.544  43.249  52.124  1.00  0.00    -0.343 OA
BRANCH  11  12
HETATM   12  C   UNL     1      26.285  44.557  52.427  1.00  0.00     0.091 A 
HETATM   13  C   UNL     1      26.019  44.845  53.777  1.00  0.00     0.067 A 
HETATM   14 CL   UNL     1      25.973  43.597  54.974  1.00  0.00    -0.081 Cl
HETATM   15  C   UNL     1      25.765  46.155  54.194  1.00  0.00     0.026 A 
HETATM   16  C   UNL     1      25.783  47.196  53.269  1.00  0.00     0.002 A 
HETATM   17  C   UNL     1      26.052  46.925  51.931  1.00  0.00     0.003 A 
HETATM   18  C   UNL     1      26.302  45.613  51.510  1.00  0.00     0.038 A 
ENDBRANCH  11  12
ENDBRANCH   8  11
ENDBRANCH   7   8
ENDBRANCH   1   7
BRANCH   3  19
HETATM   19  C   UNL     1      30.696  44.086  55.703  1.00  0.00     0.059 A 
HETATM   20  C   UNL     1      30.069  45.248  56.196  1.00  0.00    -0.032 A 
HETATM   21  C   UNL     1      29.138  46.083  55.359  1.00  0.00     0.050 C 
HETATM   22  C   UNL     1      30.309  45.638  57.521  1.00  0.00     0.028 A 
HETATM   23  C   UNL     1      31.156  44.875  58.306  1.00  0.00     0.117 A 
HETATM   24  N   UNL     1      31.771  43.762  57.869  1.00  0.00    -0.271 NA
HETATM   25  C   UNL     1      31.526  43.391  56.585  1.00  0.00     0.146 A 
ENDBRANCH   3  19
TORSDOF 6
ENDMDL
MODEL 6
REMARK VINA RESULT:      -7.7      1.918      2.345
REMARK  6 active torsions:
REMARK  status: ('A' for Active; 'I' for Inactive)
REMARK    1  A    between atoms: C_2  and  C_3 
REMARK    2  A    between atoms: C_3  and  O_4 
REMARK    3  A    between atoms: C_3  and  C_12 
REMARK    4  A    between atoms: O_4  and  C_5 
REMARK    5  A    between atoms: C_12  and  N_13 
REMARK       I    between atoms: N_13  and  C_14 
REMARK       I    between atoms: C_14  and  N_15 
REMARK    6  A    between atoms: N_15  and  C_16 
ROOT
HETATM    1  N   UNL     1      24.884  45.088  51.488  1.00  0.00    -0.340 N 
HETATM    2  C   UNL     1      24.505  45.810  50.374  1.00  0.00     0.320 C 
HETATM    3  N   UNL     1      24.729  47.157  50.559  1.00  0.00    -0.307 N 
HETATM    4  O   UNL     1      24.027  45.285  49.379  1.00  0.00    -0.247 OA
HETATM    5  H   UNL     1      25.356  45.567  52.237  1.00  0.00     0.164 HD
HETATM    6  H   UNL     1      25.133  47.417  51.441  1.00  0.00     0.170 HD
ENDROOT
BRANCH   1   7
HETATM    7  C   UNL     1      24.985  43.633  51.452  1.00  0.00     0.156 C 
BRANCH   7   8
HETATM    8  C   UNL     1      26.449  43.177  51.254  1.00  0.00     0.146 C 
BRANCH   8   9
HETATM    9  C   UNL     1      26.804  43.000  49.770  1.00  0.00     0.029 C 
HETATM   10  C   UNL     1      27.374  41.633  49.433  1.00  0.00     0.007 C 
ENDBRANCH   8   9
BRANCH   8  11
HETATM   11  O   UNL     1      27.292  44.201  51.800  1.00  0.00    -0.343 OA
BRANCH  11  12
HETATM   12  C   UNL     1      28.293  43.894  52.679  1.00  0.00     0.091 A 
HETATM   13  C   UNL     1      28.236  44.522  53.936  1.00  0.00     0.067 A 
HETATM   14 CL   UNL     1      26.990  45.660  54.319  1.00  0.00    -0.081 Cl
HETATM   15  C   UNL     1      29.198  44.259  54.915  1.00  0.00     0.026 A 
HETATM   16  C   UNL     1      30.226  43.357  54.654  1.00  0.00     0.002 A 
HETATM   17  C   UNL     1      30.291  42.723  53.417  1.00  0.00     0.003 A 
HETATM   18  C   UNL     1      29.331  42.989  52.433  1.00  0.00     0.038 A 
ENDBRANCH  11  12
ENDBRANCH   8  11
ENDBRANCH   7   8
ENDBRANCH   1   7
BRANCH   3  19
HETATM   19  C   UNL     1      24.503  48.201  49.631  1.00  0.00     0.059 A 
HETATM   20  C   UNL     1      25.607  48.873  49.070  1.00  0.00    -0.032 A 
HETATM   21  C   UNL     1      27.029  48.518  49.409  1.00  0.00     0.050 C 
HETATM   22  C   UNL     1      25.376  49.904  48.149  1.00  0.00     0.028 A 
HETATM   23  C   UNL     1      24.073  50.236  47.821  1.00  0.00     0.117 A 
HETATM   24  N   UNL     1      22.997  49.617  48.337  1.00  0.00    -0.271 NA
HETATM   25  C   UNL     1      23.234  48.615  49.224  1.00  0.00     0.146 A 
ENDBRANCH   3  19
TORSDOF 6
ENDMDL
MODEL 7
REMARK VINA RESULT:      -7.4      3.043      5.104
REMARK  6 active torsions:
REMARK  status: ('A' for Active; 'I' for Inactive)
REMARK    1  A    between atoms: C_2  and  C_3 
REMARK    2  A    between atoms: C_3  and  O_4 
REMARK    3  A    between atoms: C_3  and  C_12 
REMARK    4  A    between atoms: O_4  and  C_5 
REMARK    5  A    between atoms: C_12  and  N_13 
REMARK       I    between atoms: N_13  and  C_14 
REMARK       I    between atoms: C_14  and  N_15 
REMARK    6  A    between atoms: N_15  and  C_16 
ROOT
HETATM    1  N   UNL     1      23.230  46.819  49.655  1.00  0.00    -0.340 N 
HETATM    2  C   UNL     1      22.489  47.637  48.826  1.00  0.00     0.320 C 
HETATM    3  N   UNL     1      21.609  48.409  49.554  1.00  0.00    -0.307 N 
HETATM    4  O   UNL     1      22.621  47.639  47.611  1.00  0.00    -0.247 OA
HETATM    5  H   UNL     1      23.141  46.930  50.651  1.00  0.00     0.164 HD
HETATM    6  H   UNL     1      21.635  48.282  50.550  1.00  0.00     0.170 HD
ENDROOT
BRANCH   1   7
HETATM    7  C   UNL     1      24.397  46.095  49.162  1.00  0.00     0.156 C 
BRANCH   7   8
HETATM    8  C   UNL     1      25.681  46.525  49.909  1.00  0.00     0.146 C 
BRANCH   8   9
HETATM    9  C   UNL     1      25.975  48.024  49.737  1.00  0.00     0.029 C 
HETATM   10  C   UNL     1      27.369  48.320  49.212  1.00  0.00     0.007 C 
ENDBRANCH   8   9
BRANCH   8  11
HETATM   11  O   UNL     1      25.471  46.264  51.304  1.00  0.00    -0.343 OA
BRANCH  11  12
HETATM   12  C   UNL     1      26.401  45.586  52.041  1.00  0.00     0.091 A 
HETATM   13  C   UNL     1      26.624  46.053  53.348  1.00  0.00     0.067 A 
HETATM   14 CL   UNL     1      25.800  47.444  53.962  1.00  0.00    -0.081 Cl
HETATM   15  C   UNL     1      27.538  45.415  54.191  1.00  0.00     0.026 A 
HETATM   16  C   UNL     1      28.234  44.295  53.744  1.00  0.00     0.002 A 
HETATM   17  C   UNL     1      28.017  43.818  52.454  1.00  0.00     0.003 A 
HETATM   18  C   UNL     1      27.106  44.459  51.605  1.00  0.00     0.038 A 
ENDBRANCH  11  12
ENDBRANCH   8  11
ENDBRANCH   7   8
ENDBRANCH   1   7
BRANCH   3  19
HETATM   19  C   UNL     1      20.716  49.389  49.061  1.00  0.00     0.059 A 
HETATM   20  C   UNL     1      21.176  50.709  48.880  1.00  0.00    -0.032 A 
HETATM   21  C   UNL     1      22.591  51.122  49.182  1.00  0.00     0.050 C 
HETATM   22  C   UNL     1      20.287  51.675  48.389  1.00  0.00     0.028 A 
HETATM   23  C   UNL     1      18.984  51.307  48.098  1.00  0.00     0.117 A 
HETATM   24  N   UNL     1      18.512  50.059  48.259  1.00  0.00    -0.271 NA
HETATM   25  C   UNL     1      19.385  49.130  48.731  1.00  0.00     0.146 A 
ENDBRANCH   3  19
TORSDOF 6
ENDMDL
MODEL 8
REMARK VINA RESULT:      -7.4      4.149      9.577
REMARK  6 active torsions:
REMARK  status: ('A' for Active; 'I' for Inactive)
REMARK    1  A    between atoms: C_2  and  C_3 
REMARK    2  A    between atoms: C_3  and  O_4 
REMARK    3  A    between atoms: C_3  and  C_12 
REMARK    4  A    between atoms: O_4  and  C_5 
REMARK    5  A    between atoms: C_12  and  N_13 
REMARK       I    between atoms: N_13  and  C_14 
REMARK       I    between atoms: C_14  and  N_15 
REMARK    6  A    between atoms: N_15  and  C_16 
ROOT
HETATM    1  N   UNL     1      23.537  47.893  49.974  1.00  0.00    -0.340 N 
HETATM    2  C   UNL     1      24.753  47.330  50.308  1.00  0.00     0.320 C 
HETATM    3  N   UNL     1      24.613  46.430  51.342  1.00  0.00    -0.307 N 
HETATM    4  O   UNL     1      25.795  47.627  49.742  1.00  0.00    -0.247 OA
HETATM    5  H   UNL     1      22.704  47.540  50.414  1.00  0.00     0.164 HD
HETATM    6  H   UNL     1      23.679  46.305  51.690  1.00  0.00     0.170 HD
ENDROOT
BRANCH   1   7
HETATM    7  C   UNL     1      23.372  48.679  48.756  1.00  0.00     0.156 C 
BRANCH   7   8
HETATM    8  C   UNL     1      21.944  48.531  48.182  1.00  0.00     0.146 C 
BRANCH   8   9
HETATM    9  C   UNL     1      21.660  47.101  47.699  1.00  0.00     0.029 C 
HETATM   10  C   UNL     1      20.514  46.421  48.429  1.00  0.00     0.007 C 
ENDBRANCH   8   9
BRANCH   8  11
HETATM   11  O   UNL     1      21.026  48.840  49.241  1.00  0.00    -0.343 OA
BRANCH  11  12
HETATM   12  C   UNL     1      20.243  49.960  49.190  1.00  0.00     0.091 A 
HETATM   13  C   UNL     1      19.096  49.958  50.002  1.00  0.00     0.067 A 
HETATM   14 CL   UNL     1      18.678  48.586  50.970  1.00  0.00    -0.081 Cl
HETATM   15  C   UNL     1      18.241  51.064  50.039  1.00  0.00     0.026 A 
HETATM   16  C   UNL     1      18.528  52.191  49.273  1.00  0.00     0.002 A 
HETATM   17  C   UNL     1      19.665  52.208  48.470  1.00  0.00     0.003 A 
HETATM   18  C   UNL     1      20.519  51.099  48.427  1.00  0.00     0.038 A 
ENDBRANCH  11  12
ENDBRANCH   8  11
ENDBRANCH   7   8
ENDBRANCH   1   7
BRANCH   3  19
HETATM   19  C   UNL     1      25.624  45.633  51.929  1.00  0.00     0.059 A 
HETATM   20  C   UNL     1      26.234  46.068  53.123  1.00  0.00    -0.032 A 
HETATM   21  C   UNL     1      25.848  47.349  53.811  1.00  0.00     0.050 C 
HETATM   22  C   UNL     1      27.233  45.273  53.701  1.00  0.00     0.028 A 
HETATM   23  C   UNL     1      27.593  44.087  53.084  1.00  0.00     0.117 A 
HETATM   24  N   UNL     1      27.033  43.643  51.946  1.00  0.00    -0.271 NA
HETATM   25  C   UNL     1      26.062  44.419  51.398  1.00  0.00     0.146 A 
ENDBRANCH   3  19
TORSDOF 6
ENDMDL
MODEL 9
REMARK VINA RESULT:      -7.3      6.223     10.708
REMARK  6 active torsions:
REMARK  status: ('A' for Active; 'I' for Inactive)
REMARK    1  A    between atoms: C_2  and  C_3 
REMARK    2  A    between atoms: C_3  and  O_4 
REMARK    3  A    between atoms: C_3  and  C_12 
REMARK    4  A    between atoms: O_4  and  C_5 
REMARK    5  A    between atoms: C_12  and  N_13 
REMARK       I    between atoms: N_13  and  C_14 
REMARK       I    between atoms: C_14  and  N_15 
REMARK    6  A    between atoms: N_15  and  C_16 
ROOT
HETATM    1  N   UNL     1      20.909  47.852  49.233  1.00  0.00    -0.340 N 
HETATM    2  C   UNL     1      22.145  47.927  48.622  1.00  0.00     0.320 C 
HETATM    3  N   UNL     1      23.069  48.528  49.450  1.00  0.00    -0.307 N 
HETATM    4  O   UNL     1      22.347  47.512  47.491  1.00  0.00    -0.247 OA
HETATM    5  H   UNL     1      20.828  48.127  50.198  1.00  0.00     0.164 HD
HETATM    6  H   UNL     1      22.730  48.809  50.353  1.00  0.00     0.170 HD
ENDROOT
BRANCH   1   7
HETATM    7  C   UNL     1      19.833  47.040  48.675  1.00  0.00     0.156 C 
BRANCH   7   8
HETATM    8  C   UNL     1      18.773  47.919  47.971  1.00  0.00     0.146 C 
BRANCH   8   9
HETATM    9  C   UNL     1      17.882  47.104  47.023  1.00  0.00     0.029 C 
HETATM   10  C   UNL     1      17.867  47.622  45.595  1.00  0.00     0.007 C 
ENDBRANCH   8   9
BRANCH   8  11
HETATM   11  O   UNL     1      17.942  48.486  48.995  1.00  0.00    -0.343 OA
BRANCH  11  12
HETATM   12  C   UNL     1      17.825  49.841  49.137  1.00  0.00     0.091 A 
HETATM   13  C   UNL     1      16.629  50.416  48.676  1.00  0.00     0.067 A 
HETATM   14 CL   UNL     1      15.399  49.459  47.923  1.00  0.00    -0.081 Cl
HETATM   15  C   UNL     1      16.400  51.790  48.796  1.00  0.00     0.026 A 
HETATM   16  C   UNL     1      17.361  52.606  49.388  1.00  0.00     0.002 A 
HETATM   17  C   UNL     1      18.547  52.047  49.855  1.00  0.00     0.003 A 
HETATM   18  C   UNL     1      18.780  50.672  49.731  1.00  0.00     0.038 A 
ENDBRANCH  11  12
ENDBRANCH   8  11
ENDBRANCH   7   8
ENDBRANCH   1   7
BRANCH   3  19
HETATM   19  C   UNL     1      24.441  48.747  49.189  1.00  0.00     0.059 A 
HETATM   20  C   UNL     1      25.402  47.987  49.886  1.00  0.00    -0.032 A 
HETATM   21  C   UNL     1      25.028  46.937  50.896  1.00  0.00     0.050 C 
HETATM   22  C   UNL     1      26.761  48.207  49.620  1.00  0.00     0.028 A 
HETATM   23  C   UNL     1      27.121  49.163  48.687  1.00  0.00     0.117 A 
HETATM   24  N   UNL     1      26.231  49.906  48.005  1.00  0.00    -0.271 NA
HETATM   25  C   UNL     1      24.917  49.680  48.266  1.00  0.00     0.146 A 
ENDBRANCH   3  19
TORSDOF 6
ENDMDL
MODEL 10
REMARK VINA RESULT:      -7.2      3.925      6.624
REMARK  6 active torsions:
REMARK  status: ('A' for Active; 'I' for Inactive)
REMARK    1  A    between atoms: C_2  and  C_3 
REMARK    2  A    between atoms: C_3  and  O_4 
REMARK    3  A    between atoms: C_3  and  C_12 
REMARK    4  A    between atoms: O_4  and  C_5 
REMARK    5  A    between atoms: C_12  and  N_13 
REMARK       I    between atoms: N_13  and  C_14 
REMARK       I    between atoms: C_14  and  N_15 
REMARK    6  A    between atoms: N_15  and  C_16 
ROOT
HETATM    1  N   UNL     1      26.795  43.263  50.850  1.00  0.00    -0.340 N 
HETATM    2  C   UNL     1      26.747  41.926  50.512  1.00  0.00     0.320 C 
HETATM    3  N   UNL     1      27.901  41.539  49.865  1.00  0.00    -0.307 N 
HETATM    4  O   UNL     1      25.784  41.216  50.762  1.00  0.00    -0.247 OA
HETATM    5  H   UNL     1      27.651  43.771  50.699  1.00  0.00     0.164 HD
HETATM    6  H   UNL     1      28.596  42.254  49.743  1.00  0.00     0.170 HD
ENDROOT
BRANCH   1   7
HETATM    7  C   UNL     1      25.817  43.853  51.758  1.00  0.00     0.156 C 
BRANCH   7   8
HETATM    8  C   UNL     1      26.505  44.700  52.853  1.00  0.00     0.146 C 
BRANCH   8   9
HETATM    9  C   UNL     1      25.548  45.726  53.478  1.00  0.00     0.029 C 
HETATM   10  C   UNL     1      26.015  47.165  53.343  1.00  0.00     0.007 C 
ENDBRANCH   8   9
BRANCH   8  11
HETATM   11  O   UNL     1      26.935  43.797  53.882  1.00  0.00    -0.343 OA
BRANCH  11  12
HETATM   12  C   UNL     1      28.140  43.963  54.506  1.00  0.00     0.091 A 
HETATM   13  C   UNL     1      29.061  42.909  54.376  1.00  0.00     0.067 A 
HETATM   14 CL   UNL     1      28.661  41.462  53.516  1.00  0.00    -0.081 Cl
HETATM   15  C   UNL     1      30.330  42.990  54.957  1.00  0.00     0.026 A 
HETATM   16  C   UNL     1      30.699  44.129  55.667  1.00  0.00     0.002 A 
HETATM   17  C   UNL     1      29.799  45.183  55.797  1.00  0.00     0.003 A 
HETATM   18  C   UNL     1      28.525  45.102  55.220  1.00  0.00     0.038 A 
ENDBRANCH  11  12
ENDBRANCH   8  11
ENDBRANCH   7   8
ENDBRANCH   1   7
BRANCH   3  19
HETATM   19  C   UNL     1      28.233  40.244  49.402  1.00  0.00     0.059 A 
HETATM   20  C   UNL     1      28.136  39.962  48.025  1.00  0.00    -0.032 A 
HETATM   21  C   UNL     1      27.700  40.988  47.016  1.00  0.00     0.050 C 
HETATM   22  C   UNL     1      28.469  38.677  47.572  1.00  0.00     0.028 A 
HETATM   23  C   UNL     1      28.879  37.724  48.488  1.00  0.00     0.117 A 
HETATM   24  N   UNL     1      28.983  37.959  49.808  1.00  0.00    -0.271 NA
HETATM   25  C   UNL     1      28.663  39.209  50.234  1.00  0.00     0.146 A 
ENDBRANCH   3  19
TORSDOF 6
ENDMDL
