MODEL 1
REMARK VINA RESULT:     -10.8      0.000      0.000
REMARK  5 active torsions:
REMARK  status: ('A' for Active; 'I' for Inactive)
REMARK    1  A    between atoms: C_11  and  C_12 
REMARK    2  A    between atoms: C_12  and  S_13 
REMARK    3  A    between atoms: S_13  and  C_14 
REMARK    4  A    between atoms: C_16  and  N_17 
REMARK    5  A    between atoms: N_17  and  C_18 
ROOT
HETATM    1  C   UNL     1      25.438  45.466  52.120  1.00  0.00     0.121 C 
ENDROOT
BRANCH   1   2
HETATM    2  C   UNL     1      26.151  46.046  53.318  1.00  0.00    -0.029 A 
HETATM    3  C   UNL     1      27.371  45.354  53.874  1.00  0.00     0.016 A 
HETATM    4  C   UNL     1      27.978  44.106  53.425  1.00  0.00    -0.012 A 
HETATM    5  C   UNL     1      27.992  46.008  54.958  1.00  0.00     0.091 A 
HETATM    6  C   UNL     1      29.161  43.648  54.091  1.00  0.00    -0.025 A 
HETATM    7  C   UNL     1      27.541  43.241  52.376  1.00  0.00     0.013 A 
HETATM    8  C   UNL     1      29.814  42.460  53.715  1.00  0.00     0.012 A 
HETATM    9  C   UNL     1      29.718  44.362  55.151  1.00  0.00     0.015 A 
HETATM   10  C   UNL     1      29.342  41.668  52.679  1.00  0.00     0.001 A 
HETATM   11  C   UNL     1      28.201  42.058  52.010  1.00  0.00     0.001 A 
HETATM   12  C   UNL     1      29.137  45.536  55.590  1.00  0.00     0.039 A 
HETATM   13  O   UNL     1      27.515  47.209  55.523  1.00  0.00    -0.275 OA
HETATM   14  C   UNL     1      26.386  47.825  55.051  1.00  0.00     0.288 A 
HETATM   15  O   UNL     1      25.940  48.857  55.536  1.00  0.00    -0.260 OA
HETATM   16  C   UNL     1      25.737  47.183  53.908  1.00  0.00     0.091 A 
ENDBRANCH   1   2
BRANCH   1  17
HETATM   17  S   UNL     1      26.030  45.914  50.460  1.00  0.00    -0.096 SA
BRANCH  17  18
HETATM   18  C   UNL     1      24.742  47.002  49.983  1.00  0.00     0.160 A 
HETATM   19  S   UNL     1      23.345  46.497  49.139  1.00  0.00    -0.022 SA
HETATM   20  C   UNL     1      22.788  48.136  49.209  1.00  0.00     0.195 A 
HETATM   21  N   UNL     1      23.645  48.934  49.813  1.00  0.00    -0.123 NA
HETATM   22  N   UNL     1      24.773  48.285  50.260  1.00  0.00    -0.133 NA
BRANCH  20  23
HETATM   23  N   UNL     1      21.586  48.451  48.674  1.00  0.00    -0.331 N 
HETATM   24  H   UNL     1      21.153  47.777  48.050  1.00  0.00     0.168 HD
BRANCH  23  25
HETATM   25  C   UNL     1      20.779  49.587  48.896  1.00  0.00     0.073 A 
HETATM   26  C   UNL     1      19.709  49.474  49.802  1.00  0.00     0.143 A 
HETATM   27  F   UNL     1      19.499  48.299  50.418  1.00  0.00    -0.204 F 
HETATM   28  C   UNL     1      18.856  50.539  50.087  1.00  0.00     0.044 A 
HETATM   29  C   UNL     1      19.061  51.764  49.459  1.00  0.00     0.003 A 
HETATM   30  C   UNL     1      20.112  51.906  48.555  1.00  0.00     0.002 A 
HETATM   31  C   UNL     1      20.962  50.826  48.275  1.00  0.00     0.033 A 
ENDBRANCH  23  25
ENDBRANCH  20  23
ENDBRANCH  17  18
ENDBRANCH   1  17
TORSDOF 5
ENDMDL
MODEL 2
REMARK VINA RESULT:     -10.2      1.835      2.271
REMARK  5 active torsions:
REMARK  status: ('A' for Active; 'I' for Inactive)
REMARK    1  A    between atoms: C_11  and  C_12 
REMARK    2  A    between atoms: C_12  and  S_13 
REMARK    3  A    between atoms: S_13  and  C_14 
REMARK    4  A    between atoms: C_16  and  N_17 
REMARK    5  A    between atoms: N_17  and  C_18 
ROOT
HETATM    1  C   UNL     1      26.449  45.486  52.055  1.00  0.00     0.121 C 
ENDROOT
BRANCH   1   2
HETATM    2  C   UNL     1      26.702  46.190  53.367  1.00  0.00    -0.029 A 
HETATM    3  C   UNL     1      27.811  45.715  54.273  1.00  0.00     0.016 A 
HETATM    4  C   UNL     1      28.704  44.579  54.080  1.00  0.00    -0.012 A 
HETATM    5  C   UNL     1      27.997  46.476  55.446  1.00  0.00     0.091 A 
HETATM    6  C   UNL     1      29.711  44.330  55.068  1.00  0.00    -0.025 A 
HETATM    7  C   UNL     1      28.716  43.640  53.002  1.00  0.00     0.013 A 
HETATM    8  C   UNL     1      30.619  43.261  54.953  1.00  0.00     0.012 A 
HETATM    9  C   UNL     1      29.834  45.139  56.197  1.00  0.00     0.015 A 
HETATM   10  C   UNL     1      30.583  42.390  53.875  1.00  0.00     0.001 A 
HETATM   11  C   UNL     1      29.627  42.579  52.898  1.00  0.00     0.001 A 
HETATM   12  C   UNL     1      28.980  46.206  56.393  1.00  0.00     0.039 A 
HETATM   13  O   UNL     1      27.201  47.588  55.790  1.00  0.00    -0.275 OA
HETATM   14  C   UNL     1      26.167  48.004  54.993  1.00  0.00     0.288 A 
HETATM   15  O   UNL     1      25.450  48.954  55.279  1.00  0.00    -0.260 OA
HETATM   16  C   UNL     1      25.969  47.251  53.756  1.00  0.00     0.091 A 
ENDBRANCH   1   2
BRANCH   1  17
HETATM   17  S   UNL     1      25.088  44.283  51.968  1.00  0.00    -0.096 SA
BRANCH  17  18
HETATM   18  C   UNL     1      24.156  45.004  50.672  1.00  0.00     0.160 A 
HETATM   19  S   UNL     1      24.378  46.608  50.129  1.00  0.00    -0.022 SA
HETATM   20  C   UNL     1      23.145  46.312  48.948  1.00  0.00     0.195 A 
HETATM   21  N   UNL     1      22.646  45.095  49.034  1.00  0.00    -0.123 NA
HETATM   22  N   UNL     1      23.224  44.338  50.027  1.00  0.00    -0.133 NA
BRANCH  20  23
HETATM   23  N   UNL     1      22.811  47.291  48.078  1.00  0.00    -0.331 N 
HETATM   24  H   UNL     1      22.925  47.105  47.086  1.00  0.00     0.168 HD
BRANCH  23  25
HETATM   25  C   UNL     1      22.255  48.563  48.333  1.00  0.00     0.073 A 
HETATM   26  C   UNL     1      23.072  49.694  48.153  1.00  0.00     0.143 A 
HETATM   27  F   UNL     1      24.340  49.522  47.745  1.00  0.00    -0.204 F 
HETATM   28  C   UNL     1      22.613  50.990  48.380  1.00  0.00     0.044 A 
HETATM   29  C   UNL     1      21.302  51.186  48.800  1.00  0.00     0.003 A 
HETATM   30  C   UNL     1      20.469  50.085  48.990  1.00  0.00     0.002 A 
HETATM   31  C   UNL     1      20.942  48.785  48.760  1.00  0.00     0.033 A 
ENDBRANCH  23  25
ENDBRANCH  20  23
ENDBRANCH  17  18
ENDBRANCH   1  17
TORSDOF 5
ENDMDL
MODEL 3
REMARK VINA RESULT:     -10.2      2.384      3.868
REMARK  5 active torsions:
REMARK  status: ('A' for Active; 'I' for Inactive)
REMARK    1  A    between atoms: C_11  and  C_12 
REMARK    2  A    between atoms: C_12  and  S_13 
REMARK    3  A    between atoms: S_13  and  C_14 
REMARK    4  A    between atoms: C_16  and  N_17 
REMARK    5  A    between atoms: N_17  and  C_18 
ROOT
HETATM    1  C   UNL     1      25.621  43.989  51.860  1.00  0.00     0.121 C 
ENDROOT
BRANCH   1   2
HETATM    2  C   UNL     1      26.863  43.168  52.110  1.00  0.00    -0.029 A 
HETATM    3  C   UNL     1      27.855  43.605  53.161  1.00  0.00     0.016 A 
HETATM    4  C   UNL     1      27.810  44.800  53.995  1.00  0.00    -0.012 A 
HETATM    5  C   UNL     1      28.951  42.738  53.350  1.00  0.00     0.091 A 
HETATM    6  C   UNL     1      28.856  44.998  54.954  1.00  0.00    -0.025 A 
HETATM    7  C   UNL     1      26.834  45.843  53.989  1.00  0.00     0.013 A 
HETATM    8  C   UNL     1      28.884  46.119  55.804  1.00  0.00     0.012 A 
HETATM    9  C   UNL     1      29.901  44.085  55.085  1.00  0.00     0.015 A 
HETATM   10  C   UNL     1      27.898  47.093  55.754  1.00  0.00     0.001 A 
HETATM   11  C   UNL     1      26.872  46.956  54.842  1.00  0.00     0.001 A 
HETATM   12  C   UNL     1      29.956  42.960  54.286  1.00  0.00     0.039 A 
HETATM   13  O   UNL     1      29.150  41.557  52.608  1.00  0.00    -0.275 OA
HETATM   14  C   UNL     1      28.277  41.171  51.624  1.00  0.00     0.288 A 
HETATM   15  O   UNL     1      28.438  40.160  50.952  1.00  0.00    -0.260 OA
HETATM   16  C   UNL     1      27.115  42.036  51.425  1.00  0.00     0.091 A 
ENDBRANCH   1   2
BRANCH   1  17
HETATM   17  S   UNL     1      24.792  43.835  50.249  1.00  0.00    -0.096 SA
BRANCH  17  18
HETATM   18  C   UNL     1      24.354  45.512  49.994  1.00  0.00     0.160 A 
HETATM   19  S   UNL     1      23.195  46.020  48.847  1.00  0.00    -0.022 SA
HETATM   20  C   UNL     1      23.465  47.644  49.387  1.00  0.00     0.195 A 
HETATM   21  N   UNL     1      24.378  47.715  50.336  1.00  0.00    -0.123 NA
HETATM   22  N   UNL     1      24.894  46.489  50.688  1.00  0.00    -0.133 NA
BRANCH  20  23
HETATM   23  N   UNL     1      22.760  48.654  48.831  1.00  0.00    -0.331 N 
HETATM   24  H   UNL     1      23.117  49.067  47.974  1.00  0.00     0.168 HD
BRANCH  23  25
HETATM   25  C   UNL     1      21.529  49.214  49.233  1.00  0.00     0.073 A 
HETATM   26  C   UNL     1      21.512  50.560  49.641  1.00  0.00     0.143 A 
HETATM   27  F   UNL     1      22.660  51.258  49.628  1.00  0.00    -0.204 F 
HETATM   28  C   UNL     1      20.346  51.200  50.056  1.00  0.00     0.044 A 
HETATM   29  C   UNL     1      19.148  50.493  50.073  1.00  0.00     0.003 A 
HETATM   30  C   UNL     1      19.133  49.156  49.677  1.00  0.00     0.002 A 
HETATM   31  C   UNL     1      20.313  48.523  49.263  1.00  0.00     0.033 A 
ENDBRANCH  23  25
ENDBRANCH  20  23
ENDBRANCH  17  18
ENDBRANCH   1  17
TORSDOF 5
ENDMDL
MODEL 4
REMARK VINA RESULT:      -9.8      3.474      9.461
REMARK  5 active torsions:
REMARK  status: ('A' for Active; 'I' for Inactive)
REMARK    1  A    between atoms: C_11  and  C_12 
REMARK    2  A    between atoms: C_12  and  S_13 
REMARK    3  A    between atoms: S_13  and  C_14 
REMARK    4  A    between atoms: C_16  and  N_17 
REMARK    5  A    between atoms: N_17  and  C_18 
ROOT
HETATM    1  C   UNL     1      24.038  46.173  49.774  1.00  0.00     0.121 C 
ENDROOT
BRANCH   1   2
HETATM    2  C   UNL     1      24.686  47.470  49.352  1.00  0.00    -0.029 A 
HETATM    3  C   UNL     1      23.843  48.573  48.760  1.00  0.00     0.016 A 
HETATM    4  C   UNL     1      22.412  48.557  48.478  1.00  0.00    -0.012 A 
HETATM    5  C   UNL     1      24.538  49.761  48.451  1.00  0.00     0.091 A 
HETATM    6  C   UNL     1      21.813  49.740  47.935  1.00  0.00    -0.025 A 
HETATM    7  C   UNL     1      21.488  47.485  48.671  1.00  0.00     0.013 A 
HETATM    8  C   UNL     1      20.439  49.812  47.644  1.00  0.00     0.012 A 
HETATM    9  C   UNL     1      22.573  50.879  47.668  1.00  0.00     0.015 A 
HETATM   10  C   UNL     1      19.593  48.736  47.864  1.00  0.00     0.001 A 
HETATM   11  C   UNL     1      20.119  47.568  48.377  1.00  0.00     0.001 A 
HETATM   12  C   UNL     1      23.931  50.893  47.918  1.00  0.00     0.039 A 
HETATM   13  O   UNL     1      25.925  49.927  48.642  1.00  0.00    -0.275 OA
HETATM   14  C   UNL     1      26.706  48.918  49.142  1.00  0.00     0.288 A 
HETATM   15  O   UNL     1      27.915  49.030  49.300  1.00  0.00    -0.260 OA
HETATM   16  C   UNL     1      26.007  47.684  49.499  1.00  0.00     0.091 A 
ENDBRANCH   1   2
BRANCH   1  17
HETATM   17  S   UNL     1      24.965  44.626  49.538  1.00  0.00    -0.096 SA
BRANCH  17  18
HETATM   18  C   UNL     1      25.332  44.256  51.210  1.00  0.00     0.160 A 
HETATM   19  S   UNL     1      26.759  43.461  51.708  1.00  0.00    -0.022 SA
HETATM   20  C   UNL     1      26.204  43.624  53.341  1.00  0.00     0.195 A 
HETATM   21  N   UNL     1      25.029  44.217  53.418  1.00  0.00    -0.123 NA
HETATM   22  N   UNL     1      24.522  44.582  52.192  1.00  0.00    -0.133 NA
BRANCH  20  23
HETATM   23  N   UNL     1      26.973  43.161  54.353  1.00  0.00    -0.331 N 
HETATM   24  H   UNL     1      26.614  42.389  54.907  1.00  0.00     0.168 HD
BRANCH  23  25
HETATM   25  C   UNL     1      28.270  43.555  54.743  1.00  0.00     0.073 A 
HETATM   26  C   UNL     1      28.432  44.830  55.317  1.00  0.00     0.143 A 
HETATM   27  F   UNL     1      27.353  45.615  55.473  1.00  0.00    -0.204 F 
HETATM   28  C   UNL     1      29.672  45.309  55.733  1.00  0.00     0.044 A 
HETATM   29  C   UNL     1      30.799  44.507  55.582  1.00  0.00     0.003 A 
HETATM   30  C   UNL     1      30.671  43.241  55.015  1.00  0.00     0.002 A 
HETATM   31  C   UNL     1      29.418  42.770  54.598  1.00  0.00     0.033 A 
ENDBRANCH  23  25
ENDBRANCH  20  23
ENDBRANCH  17  18
ENDBRANCH   1  17
TORSDOF 5
ENDMDL
MODEL 5
REMARK VINA RESULT:      -9.6      4.893      7.270
REMARK  5 active torsions:
REMARK  status: ('A' for Active; 'I' for Inactive)
REMARK    1  A    between atoms: C_11  and  C_12 
REMARK    2  A    between atoms: C_12  and  S_13 
REMARK    3  A    between atoms: S_13  and  C_14 
REMARK    4  A    between atoms: C_16  and  N_17 
REMARK    5  A    between atoms: N_17  and  C_18 
ROOT
HETATM    1  C   UNL     1      25.416  45.401  52.871  1.00  0.00     0.121 C 
ENDROOT
BRANCH   1   2
HETATM    2  C   UNL     1      26.263  46.083  53.919  1.00  0.00    -0.029 A 
HETATM    3  C   UNL     1      27.551  45.445  54.377  1.00  0.00     0.016 A 
HETATM    4  C   UNL     1      28.116  44.165  53.964  1.00  0.00    -0.012 A 
HETATM    5  C   UNL     1      28.291  46.192  55.317  1.00  0.00     0.091 A 
HETATM    6  C   UNL     1      29.377  43.770  54.516  1.00  0.00    -0.025 A 
HETATM    7  C   UNL     1      27.565  43.212  53.054  1.00  0.00     0.013 A 
HETATM    8  C   UNL     1      29.996  42.556  54.164  1.00  0.00     0.012 A 
HETATM    9  C   UNL     1      30.050  44.574  55.435  1.00  0.00     0.015 A 
HETATM   10  C   UNL     1      29.412  41.677  53.265  1.00  0.00     0.001 A 
HETATM   11  C   UNL     1      28.192  42.005  52.710  1.00  0.00     0.001 A 
HETATM   12  C   UNL     1      29.512  45.779  55.841  1.00  0.00     0.039 A 
HETATM   13  O   UNL     1      27.870  47.435  55.833  1.00  0.00    -0.275 OA
HETATM   14  C   UNL     1      26.683  48.004  55.453  1.00  0.00     0.288 A 
HETATM   15  O   UNL     1      26.286  49.073  55.900  1.00  0.00    -0.260 OA
HETATM   16  C   UNL     1      25.908  47.265  54.457  1.00  0.00     0.091 A 
ENDBRANCH   1   2
BRANCH   1  17
HETATM   17  S   UNL     1      25.560  45.955  51.146  1.00  0.00    -0.096 SA
BRANCH  17  18
HETATM   18  C   UNL     1      25.919  44.420  50.383  1.00  0.00     0.160 A 
HETATM   19  S   UNL     1      24.938  43.031  50.552  1.00  0.00    -0.022 SA
HETATM   20  C   UNL     1      26.034  42.207  49.493  1.00  0.00     0.195 A 
HETATM   21  N   UNL     1      27.034  42.972  49.107  1.00  0.00    -0.123 NA
HETATM   22  N   UNL     1      26.973  44.248  49.618  1.00  0.00    -0.133 NA
BRANCH  20  23
HETATM   23  N   UNL     1      25.792  40.918  49.161  1.00  0.00    -0.331 N 
HETATM   24  H   UNL     1      24.824  40.628  49.057  1.00  0.00     0.168 HD
BRANCH  23  25
HETATM   25  C   UNL     1      26.705  39.883  48.869  1.00  0.00     0.073 A 
HETATM   26  C   UNL     1      26.777  39.414  47.545  1.00  0.00     0.143 A 
HETATM   27  F   UNL     1      25.980  39.967  46.615  1.00  0.00    -0.204 F 
HETATM   28  C   UNL     1      27.647  38.396  47.160  1.00  0.00     0.044 A 
HETATM   29  C   UNL     1      28.480  37.815  48.110  1.00  0.00     0.003 A 
HETATM   30  C   UNL     1      28.431  38.257  49.431  1.00  0.00     0.002 A 
HETATM   31  C   UNL     1      27.550  39.280  49.807  1.00  0.00     0.033 A 
ENDBRANCH  23  25
ENDBRANCH  20  23
ENDBRANCH  17  18
ENDBRANCH   1  17
TORSDOF 5
ENDMDL
MODEL 6
REMARK VINA RESULT:      -9.6      5.665      9.299
REMARK  5 active torsions:
REMARK  status: ('A' for Active; 'I' for Inactive)
REMARK    1  A    between atoms: C_11  and  C_12 
REMARK    2  A    between atoms: C_12  and  S_13 
REMARK    3  A    between atoms: S_13  and  C_14 
REMARK    4  A    between atoms: C_16  and  N_17 
REMARK    5  A    between atoms: N_17  and  C_18 
ROOT
HETATM    1  C   UNL     1      25.653  41.976  51.324  1.00  0.00     0.121 C 
ENDROOT
BRANCH   1   2
HETATM    2  C   UNL     1      25.065  42.972  50.354  1.00  0.00    -0.029 A 
HETATM    3  C   UNL     1      25.024  44.437  50.714  1.00  0.00     0.016 A 
HETATM    4  C   UNL     1      25.455  45.069  51.956  1.00  0.00    -0.012 A 
HETATM    5  C   UNL     1      24.505  45.288  49.715  1.00  0.00     0.091 A 
HETATM    6  C   UNL     1      25.346  46.494  52.067  1.00  0.00    -0.025 A 
HETATM    7  C   UNL     1      25.989  44.444  53.124  1.00  0.00     0.013 A 
HETATM    8  C   UNL     1      25.748  47.183  53.226  1.00  0.00     0.012 A 
HETATM    9  C   UNL     1      24.830  47.264  51.025  1.00  0.00     0.015 A 
HETATM   10  C   UNL     1      26.269  46.515  54.324  1.00  0.00     0.001 A 
HETATM   11  C   UNL     1      26.387  45.142  54.274  1.00  0.00     0.001 A 
HETATM   12  C   UNL     1      24.406  46.668  49.854  1.00  0.00     0.039 A 
HETATM   13  O   UNL     1      24.025  44.830  48.472  1.00  0.00    -0.275 OA
HETATM   14  C   UNL     1      24.022  43.498  48.150  1.00  0.00     0.288 A 
HETATM   15  O   UNL     1      23.594  43.073  47.085  1.00  0.00    -0.260 OA
HETATM   16  C   UNL     1      24.581  42.595  49.156  1.00  0.00     0.091 A 
ENDBRANCH   1   2
BRANCH   1  17
HETATM   17  S   UNL     1      27.271  41.242  50.937  1.00  0.00    -0.096 SA
BRANCH  17  18
HETATM   18  C   UNL     1      28.179  41.808  52.323  1.00  0.00     0.160 A 
HETATM   19  S   UNL     1      29.386  43.013  52.232  1.00  0.00    -0.022 SA
HETATM   20  C   UNL     1      29.577  42.862  53.947  1.00  0.00     0.195 A 
HETATM   21  N   UNL     1      28.781  41.948  54.465  1.00  0.00    -0.123 NA
HETATM   22  N   UNL     1      27.974  41.337  53.532  1.00  0.00    -0.133 NA
BRANCH  20  23
HETATM   23  N   UNL     1      30.474  43.648  54.586  1.00  0.00    -0.331 N 
HETATM   24  H   UNL     1      31.373  43.803  54.140  1.00  0.00     0.168 HD
BRANCH  23  25
HETATM   25  C   UNL     1      30.335  44.361  55.795  1.00  0.00     0.073 A 
HETATM   26  C   UNL     1      31.155  43.998  56.879  1.00  0.00     0.143 A 
HETATM   27  F   UNL     1      32.035  42.996  56.721  1.00  0.00    -0.204 F 
HETATM   28  C   UNL     1      31.091  44.643  58.112  1.00  0.00     0.044 A 
HETATM   29  C   UNL     1      30.188  45.686  58.292  1.00  0.00     0.003 A 
HETATM   30  C   UNL     1      29.359  46.067  57.237  1.00  0.00     0.002 A 
HETATM   31  C   UNL     1      29.431  45.409  56.001  1.00  0.00     0.033 A 
ENDBRANCH  23  25
ENDBRANCH  20  23
ENDBRANCH  17  18
ENDBRANCH   1  17
TORSDOF 5
ENDMDL
MODEL 7
REMARK VINA RESULT:      -9.4      5.570      8.547
REMARK  5 active torsions:
REMARK  status: ('A' for Active; 'I' for Inactive)
REMARK    1  A    between atoms: C_11  and  C_12 
REMARK    2  A    between atoms: C_12  and  S_13 
REMARK    3  A    between atoms: S_13  and  C_14 
REMARK    4  A    between atoms: C_16  and  N_17 
REMARK    5  A    between atoms: N_17  and  C_18 
ROOT
HETATM    1  C   UNL     1      29.326  42.592  53.009  1.00  0.00     0.121 C 
ENDROOT
BRANCH   1   2
HETATM    2  C   UNL     1      29.641  43.446  54.214  1.00  0.00    -0.029 A 
HETATM    3  C   UNL     1      28.811  44.672  54.505  1.00  0.00     0.016 A 
HETATM    4  C   UNL     1      27.706  45.214  53.723  1.00  0.00    -0.012 A 
HETATM    5  C   UNL     1      29.155  45.366  55.684  1.00  0.00     0.091 A 
HETATM    6  C   UNL     1      27.039  46.385  54.210  1.00  0.00    -0.025 A 
HETATM    7  C   UNL     1      27.175  44.725  52.489  1.00  0.00     0.013 A 
HETATM    8  C   UNL     1      25.958  46.966  53.522  1.00  0.00     0.012 A 
HETATM    9  C   UNL     1      27.437  47.005  55.393  1.00  0.00     0.015 A 
HETATM   10  C   UNL     1      25.485  46.435  52.331  1.00  0.00     0.001 A 
HETATM   11  C   UNL     1      26.097  45.313  51.812  1.00  0.00     0.001 A 
HETATM   12  C   UNL     1      28.493  46.505  56.129  1.00  0.00     0.039 A 
HETATM   13  O   UNL     1      30.212  44.984  56.534  1.00  0.00    -0.275 OA
HETATM   14  C   UNL     1      30.997  43.895  56.259  1.00  0.00     0.288 A 
HETATM   15  O   UNL     1      31.933  43.554  56.971  1.00  0.00    -0.260 OA
HETATM   16  C   UNL     1      30.645  43.139  55.057  1.00  0.00     0.091 A 
ENDBRANCH   1   2
BRANCH   1  17
HETATM   17  S   UNL     1      28.134  41.233  53.200  1.00  0.00    -0.096 SA
BRANCH  17  18
HETATM   18  C   UNL     1      27.950  40.779  51.518  1.00  0.00     0.160 A 
HETATM   19  S   UNL     1      26.690  41.355  50.519  1.00  0.00    -0.022 SA
HETATM   20  C   UNL     1      27.388  40.443  49.221  1.00  0.00     0.195 A 
HETATM   21  N   UNL     1      28.461  39.775  49.595  1.00  0.00    -0.123 NA
HETATM   22  N   UNL     1      28.787  39.964  50.918  1.00  0.00    -0.133 NA
BRANCH  20  23
HETATM   23  N   UNL     1      26.815  40.487  47.997  1.00  0.00    -0.331 N 
HETATM   24  H   UNL     1      25.869  40.849  47.928  1.00  0.00     0.168 HD
BRANCH  23  25
HETATM   25  C   UNL     1      27.363  40.148  46.741  1.00  0.00     0.073 A 
HETATM   26  C   UNL     1      27.260  38.812  46.310  1.00  0.00     0.143 A 
HETATM   27  F   UNL     1      26.645  37.918  47.103  1.00  0.00    -0.204 F 
HETATM   28  C   UNL     1      27.769  38.381  45.087  1.00  0.00     0.044 A 
HETATM   29  C   UNL     1      28.405  39.295  44.253  1.00  0.00     0.003 A 
HETATM   30  C   UNL     1      28.525  40.624  44.653  1.00  0.00     0.002 A 
HETATM   31  C   UNL     1      28.010  41.046  45.887  1.00  0.00     0.033 A 
ENDBRANCH  23  25
ENDBRANCH  20  23
ENDBRANCH  17  18
ENDBRANCH   1  17
TORSDOF 5
ENDMDL
MODEL 8
REMARK VINA RESULT:      -9.4      4.449      9.145
REMARK  5 active torsions:
REMARK  status: ('A' for Active; 'I' for Inactive)
REMARK    1  A    between atoms: C_11  and  C_12 
REMARK    2  A    between atoms: C_12  and  S_13 
REMARK    3  A    between atoms: S_13  and  C_14 
REMARK    4  A    between atoms: C_16  and  N_17 
REMARK    5  A    between atoms: N_17  and  C_18 
ROOT
HETATM    1  C   UNL     1      23.517  45.753  49.681  1.00  0.00     0.121 C 
ENDROOT
BRANCH   1   2
HETATM    2  C   UNL     1      22.747  46.894  49.058  1.00  0.00    -0.029 A 
HETATM    3  C   UNL     1      23.466  48.164  48.674  1.00  0.00     0.016 A 
HETATM    4  C   UNL     1      24.874  48.492  48.864  1.00  0.00    -0.012 A 
HETATM    5  C   UNL     1      22.664  49.143  48.050  1.00  0.00     0.091 A 
HETATM    6  C   UNL     1      25.347  49.759  48.391  1.00  0.00    -0.025 A 
HETATM    7  C   UNL     1      25.888  47.698  49.483  1.00  0.00     0.013 A 
HETATM    8  C   UNL     1      26.691  50.149  48.527  1.00  0.00     0.012 A 
HETATM    9  C   UNL     1      24.488  50.668  47.775  1.00  0.00     0.015 A 
HETATM   10  C   UNL     1      27.629  49.326  49.130  1.00  0.00     0.001 A 
HETATM   11  C   UNL     1      27.226  48.098  49.612  1.00  0.00     0.001 A 
HETATM   12  C   UNL     1      23.150  50.368  47.606  1.00  0.00     0.039 A 
HETATM   13  O   UNL     1      21.283  48.988  47.816  1.00  0.00    -0.275 OA
HETATM   14  C   UNL     1      20.613  47.855  48.196  1.00  0.00     0.288 A 
HETATM   15  O   UNL     1      19.411  47.704  48.022  1.00  0.00    -0.260 OA
HETATM   16  C   UNL     1      21.425  46.810  48.820  1.00  0.00     0.091 A 
ENDBRANCH   1   2
BRANCH   1  17
HETATM   17  S   UNL     1      24.141  44.435  48.595  1.00  0.00    -0.096 SA
BRANCH  17  18
HETATM   18  C   UNL     1      25.336  43.729  49.663  1.00  0.00     0.160 A 
HETATM   19  S   UNL     1      25.140  43.622  51.357  1.00  0.00    -0.022 SA
HETATM   20  C   UNL     1      26.676  42.822  51.419  1.00  0.00     0.195 A 
HETATM   21  N   UNL     1      27.232  42.704  50.230  1.00  0.00    -0.123 NA
HETATM   22  N   UNL     1      26.464  43.227  49.215  1.00  0.00    -0.133 NA
BRANCH  20  23
HETATM   23  N   UNL     1      27.158  42.402  52.611  1.00  0.00    -0.331 N 
HETATM   24  H   UNL     1      26.907  41.469  52.923  1.00  0.00     0.168 HD
BRANCH  23  25
HETATM   25  C   UNL     1      28.034  43.057  53.502  1.00  0.00     0.073 A 
HETATM   26  C   UNL     1      29.330  42.535  53.664  1.00  0.00     0.143 A 
HETATM   27  F   UNL     1      29.682  41.441  52.967  1.00  0.00    -0.204 F 
HETATM   28  C   UNL     1      30.266  43.111  54.520  1.00  0.00     0.044 A 
HETATM   29  C   UNL     1      29.918  44.245  55.248  1.00  0.00     0.003 A 
HETATM   30  C   UNL     1      28.641  44.785  55.110  1.00  0.00     0.002 A 
HETATM   31  C   UNL     1      27.707  44.195  54.247  1.00  0.00     0.033 A 
ENDBRANCH  23  25
ENDBRANCH  20  23
ENDBRANCH  17  18
ENDBRANCH   1  17
TORSDOF 5
ENDMDL
MODEL 9
REMARK VINA RESULT:      -9.2      5.920      9.522
REMARK  5 active torsions:
REMARK  status: ('A' for Active; 'I' for Inactive)
REMARK    1  A    between atoms: C_11  and  C_12 
REMARK    2  A    between atoms: C_12  and  S_13 
REMARK    3  A    between atoms: S_13  and  C_14 
REMARK    4  A    between atoms: C_16  and  N_17 
REMARK    5  A    between atoms: N_17  and  C_18 
ROOT
HETATM    1  C   UNL     1      29.564  42.601  53.191  1.00  0.00     0.121 C 
ENDROOT
BRANCH   1   2
HETATM    2  C   UNL     1      29.832  43.427  54.427  1.00  0.00    -0.029 A 
HETATM    3  C   UNL     1      28.987  44.643  54.715  1.00  0.00     0.016 A 
HETATM    4  C   UNL     1      27.909  45.200  53.906  1.00  0.00    -0.012 A 
HETATM    5  C   UNL     1      29.285  45.310  55.922  1.00  0.00     0.091 A 
HETATM    6  C   UNL     1      27.220  46.357  54.396  1.00  0.00    -0.025 A 
HETATM    7  C   UNL     1      27.426  44.738  52.643  1.00  0.00     0.013 A 
HETATM    8  C   UNL     1      26.163  46.951  53.682  1.00  0.00     0.012 A 
HETATM    9  C   UNL     1      27.572  46.951  55.607  1.00  0.00     0.015 A 
HETATM   10  C   UNL     1      25.735  46.447  52.463  1.00  0.00     0.001 A 
HETATM   11  C   UNL     1      26.370  45.339  51.941  1.00  0.00     0.001 A 
HETATM   12  C   UNL     1      28.602  46.437  56.369  1.00  0.00     0.039 A 
HETATM   13  O   UNL     1      30.312  44.911  56.801  1.00  0.00    -0.275 OA
HETATM   14  C   UNL     1      31.111  43.832  56.530  1.00  0.00     0.288 A 
HETATM   15  O   UNL     1      32.021  43.477  57.267  1.00  0.00    -0.260 OA
HETATM   16  C   UNL     1      30.805  43.104  55.299  1.00  0.00     0.091 A 
ENDBRANCH   1   2
BRANCH   1  17
HETATM   17  S   UNL     1      28.404  41.206  53.317  1.00  0.00    -0.096 SA
BRANCH  17  18
HETATM   18  C   UNL     1      28.454  40.645  51.659  1.00  0.00     0.160 A 
HETATM   19  S   UNL     1      29.090  39.128  51.196  1.00  0.00    -0.022 SA
HETATM   20  C   UNL     1      28.660  39.518  49.564  1.00  0.00     0.195 A 
HETATM   21  N   UNL     1      28.110  40.711  49.458  1.00  0.00    -0.123 NA
HETATM   22  N   UNL     1      27.991  41.365  50.663  1.00  0.00    -0.133 NA
BRANCH  20  23
HETATM   23  N   UNL     1      28.903  38.621  48.581  1.00  0.00    -0.331 N 
HETATM   24  H   UNL     1      29.833  38.605  48.173  1.00  0.00     0.168 HD
BRANCH  23  25
HETATM   25  C   UNL     1      28.057  37.626  48.049  1.00  0.00     0.073 A 
HETATM   26  C   UNL     1      28.341  37.130  46.763  1.00  0.00     0.143 A 
HETATM   27  F   UNL     1      29.400  37.618  46.097  1.00  0.00    -0.204 F 
HETATM   28  C   UNL     1      27.563  36.148  46.153  1.00  0.00     0.044 A 
HETATM   29  C   UNL     1      26.463  35.630  46.830  1.00  0.00     0.003 A 
HETATM   30  C   UNL     1      26.155  36.102  48.105  1.00  0.00     0.002 A 
HETATM   31  C   UNL     1      26.944  37.092  48.707  1.00  0.00     0.033 A 
ENDBRANCH  23  25
ENDBRANCH  20  23
ENDBRANCH  17  18
ENDBRANCH   1  17
TORSDOF 5
ENDMDL
MODEL 10
REMARK VINA RESULT:      -9.0      4.058      9.807
REMARK  5 active torsions:
REMARK  status: ('A' for Active; 'I' for Inactive)
REMARK    1  A    between atoms: C_11  and  C_12 
REMARK    2  A    between atoms: C_12  and  S_13 
REMARK    3  A    between atoms: S_13  and  C_14 
REMARK    4  A    between atoms: C_16  and  N_17 
REMARK    5  A    between atoms: N_17  and  C_18 
ROOT
HETATM    1  C   UNL     1      23.025  45.823  47.984  1.00  0.00     0.121 C 
ENDROOT
BRANCH   1   2
HETATM    2  C   UNL     1      21.538  46.086  47.964  1.00  0.00    -0.029 A 
HETATM    3  C   UNL     1      21.024  47.500  48.072  1.00  0.00     0.016 A 
HETATM    4  C   UNL     1      21.795  48.726  48.246  1.00  0.00    -0.012 A 
HETATM    5  C   UNL     1      19.622  47.638  47.989  1.00  0.00     0.091 A 
HETATM    6  C   UNL     1      21.089  49.972  48.296  1.00  0.00    -0.025 A 
HETATM    7  C   UNL     1      23.210  48.865  48.382  1.00  0.00     0.013 A 
HETATM    8  C   UNL     1      21.757  51.200  48.452  1.00  0.00     0.012 A 
HETATM    9  C   UNL     1      19.699  50.021  48.195  1.00  0.00     0.015 A 
HETATM   10  C   UNL     1      23.137  51.266  48.569  1.00  0.00     0.001 A 
HETATM   11  C   UNL     1      23.866  50.095  48.537  1.00  0.00     0.001 A 
HETATM   12  C   UNL     1      18.963  48.862  48.047  1.00  0.00     0.039 A 
HETATM   13  O   UNL     1      18.738  46.551  47.844  1.00  0.00    -0.275 OA
HETATM   14  C   UNL     1      19.192  45.259  47.785  1.00  0.00     0.288 A 
HETATM   15  O   UNL     1      18.443  44.296  47.679  1.00  0.00    -0.260 OA
HETATM   16  C   UNL     1      20.643  45.088  47.840  1.00  0.00     0.091 A 
ENDBRANCH   1   2
BRANCH   1  17
HETATM   17  S   UNL     1      23.599  44.122  48.270  1.00  0.00    -0.096 SA
BRANCH  17  18
HETATM   18  C   UNL     1      24.178  44.290  49.915  1.00  0.00     0.160 A 
HETATM   19  S   UNL     1      24.625  42.967  50.898  1.00  0.00    -0.022 SA
HETATM   20  C   UNL     1      25.036  44.106  52.136  1.00  0.00     0.195 A 
HETATM   21  N   UNL     1      24.807  45.352  51.771  1.00  0.00    -0.123 NA
HETATM   22  N   UNL     1      24.312  45.463  50.492  1.00  0.00    -0.133 NA
BRANCH  20  23
HETATM   23  N   UNL     1      25.532  43.659  53.312  1.00  0.00    -0.331 N 
HETATM   24  H   UNL     1      24.901  43.166  53.937  1.00  0.00     0.168 HD
BRANCH  23  25
HETATM   25  C   UNL     1      26.852  43.719  53.806  1.00  0.00     0.073 A 
HETATM   26  C   UNL     1      27.244  44.869  54.514  1.00  0.00     0.143 A 
HETATM   27  F   UNL     1      26.353  45.858  54.694  1.00  0.00    -0.204 F 
HETATM   28  C   UNL     1      28.525  45.021  55.040  1.00  0.00     0.044 A 
HETATM   29  C   UNL     1      29.460  44.006  54.865  1.00  0.00     0.003 A 
HETATM   30  C   UNL     1      29.102  42.855  54.166  1.00  0.00     0.002 A 
HETATM   31  C   UNL     1      27.810  42.714  53.640  1.00  0.00     0.033 A 
ENDBRANCH  23  25
ENDBRANCH  20  23
ENDBRANCH  17  18
ENDBRANCH   1  17
TORSDOF 5
ENDMDL
