MODEL 1
REMARK VINA RESULT:      -9.4      0.000      0.000
REMARK  7 active torsions:
REMARK  status: ('A' for Active; 'I' for Inactive)
REMARK    1  A    between atoms: C_2  and  N_3 
REMARK    2  A    between atoms: N_3  and  C_4 
REMARK    3  A    between atoms: C_4  and  N_5 
REMARK    4  A    between atoms: N_5  and  N_6 
REMARK    5  A    between atoms: N_6  and  C_7 
REMARK    6  A    between atoms: N_8  and  C_9 
REMARK    7  A    between atoms: C_10  and  O_11 
ROOT
HETATM    1  C   UNL     1      25.774  42.292  50.965  1.00  0.00     0.729 C 
HETATM    2  N   UNL     1      25.075  42.785  49.872  1.00  0.00    -0.105 N 
HETATM    3  C   UNL     1      25.120  44.137  49.571  1.00  0.00     0.276 C 
HETATM    4  O   UNL     1      24.952  44.590  48.437  1.00  0.00    -0.266 OA
HETATM    5  C   UNL     1      25.511  45.044  50.685  1.00  0.00     0.050 C 
HETATM    6  C   UNL     1      26.133  44.444  51.720  1.00  0.00     0.099 C 
HETATM    7  C   UNL     1      26.679  45.291  52.815  1.00  0.00     0.000 A 
HETATM    8  C   UNL     1      26.273  46.627  52.943  1.00  0.00    -0.044 A 
HETATM    9  C   UNL     1      26.766  47.422  53.990  1.00  0.00     0.008 A 
HETATM   10  C   UNL     1      27.680  46.899  54.900  1.00  0.00     0.001 A 
HETATM   11  C   UNL     1      28.099  45.578  54.777  1.00  0.00     0.001 A 
HETATM   12  C   UNL     1      27.599  44.781  53.744  1.00  0.00     0.014 A 
HETATM   13  C   UNL     1      25.238  47.177  52.001  1.00  0.00     0.054 C 
HETATM   14  C   UNL     1      25.297  46.565  50.565  1.00  0.00    -0.002 C 
HETATM   15  C   UNL     1      26.488  47.158  49.757  1.00  0.00     0.015 C 
HETATM   16  C   UNL     1      26.351  48.649  49.439  1.00  0.00     0.001 C 
HETATM   17  C   UNL     1      25.020  48.972  48.773  1.00  0.00     0.000 C 
HETATM   18  C   UNL     1      23.836  48.463  49.589  1.00  0.00     0.001 C 
HETATM   19  C   UNL     1      23.956  46.961  49.870  1.00  0.00     0.015 C 
HETATM   20  N   UNL     1      26.327  43.091  51.836  1.00  0.00    -0.061 NA
ENDROOT
BRANCH   1  21
HETATM   21  N   UNL     1      25.872  40.921  51.142  1.00  0.00    -0.127 N 
HETATM   22  H   UNL     1      24.999  40.417  51.304  1.00  0.00     0.205 HD
BRANCH  21  23
HETATM   23  N   UNL     1      26.944  40.460  51.923  1.00  0.00    -0.262 N 
HETATM   24  H   UNL     1      26.651  39.832  52.669  1.00  0.00     0.190 HD
BRANCH  23  25
HETATM   25  C   UNL     1      28.192  40.351  51.367  1.00  0.00     0.186 C 
HETATM   26  S   UNL     1      28.616  39.283  50.148  1.00  0.00    -0.040 SA
BRANCH  25  27
HETATM   27  N   UNL     1      29.137  41.230  51.808  1.00  0.00    -0.366 N 
HETATM   28  H   UNL     1      29.590  41.747  51.062  1.00  0.00     0.161 HD
BRANCH  27  29
HETATM   29  C   UNL     1      29.329  41.724  53.161  1.00  0.00     0.117 C 
HETATM   30  C   UNL     1      30.417  42.782  53.223  1.00  0.00     0.026 C 
ENDBRANCH  27  29
ENDBRANCH  25  27
ENDBRANCH  23  25
ENDBRANCH  21  23
ENDBRANCH   1  21
BRANCH   2  31
HETATM   31  C   UNL     1      24.524  41.920  48.877  1.00  0.00     0.094 A 
HETATM   32  C   UNL     1      25.382  41.253  47.978  1.00  0.00     0.096 A 
HETATM   33  C   UNL     1      24.829  40.416  47.004  1.00  0.00     0.039 A 
HETATM   34  C   UNL     1      23.443  40.241  46.924  1.00  0.00     0.003 A 
HETATM   35  C   UNL     1      22.598  40.900  47.814  1.00  0.00     0.002 A 
HETATM   36  C   UNL     1      23.134  41.737  48.789  1.00  0.00     0.034 A 
BRANCH  32  37
HETATM   37  O   UNL     1      26.719  41.539  48.095  1.00  0.00    -0.354 OA
HETATM   38  C   UNL     1      27.585  41.046  47.080  1.00  0.00     0.210 C 
ENDBRANCH  32  37
ENDBRANCH   2  31
TORSDOF 7
ENDMDL
MODEL 2
REMARK VINA RESULT:      -9.0      1.174      2.063
REMARK  7 active torsions:
REMARK  status: ('A' for Active; 'I' for Inactive)
REMARK    1  A    between atoms: C_2  and  N_3 
REMARK    2  A    between atoms: N_3  and  C_4 
REMARK    3  A    between atoms: C_4  and  N_5 
REMARK    4  A    between atoms: N_5  and  N_6 
REMARK    5  A    between atoms: N_6  and  C_7 
REMARK    6  A    between atoms: N_8  and  C_9 
REMARK    7  A    between atoms: C_10  and  O_11 
ROOT
HETATM    1  C   UNL     1      26.032  42.147  50.948  1.00  0.00     0.729 C 
HETATM    2  N   UNL     1      25.309  42.651  49.875  1.00  0.00    -0.105 N 
HETATM    3  C   UNL     1      25.316  44.012  49.611  1.00  0.00     0.276 C 
HETATM    4  O   UNL     1      25.124  44.490  48.493  1.00  0.00    -0.266 OA
HETATM    5  C   UNL     1      25.694  44.898  50.747  1.00  0.00     0.050 C 
HETATM    6  C   UNL     1      26.342  44.286  51.758  1.00  0.00     0.099 C 
HETATM    7  C   UNL     1      26.877  45.117  52.871  1.00  0.00     0.000 A 
HETATM    8  C   UNL     1      26.438  46.438  53.040  1.00  0.00    -0.044 A 
HETATM    9  C   UNL     1      26.921  47.216  54.103  1.00  0.00     0.008 A 
HETATM   10  C   UNL     1      27.858  46.692  54.990  1.00  0.00     0.001 A 
HETATM   11  C   UNL     1      28.310  45.387  54.827  1.00  0.00     0.001 A 
HETATM   12  C   UNL     1      27.821  44.606  53.776  1.00  0.00     0.014 A 
HETATM   13  C   UNL     1      25.379  46.985  52.124  1.00  0.00     0.054 C 
HETATM   14  C   UNL     1      25.439  46.415  50.671  1.00  0.00    -0.002 C 
HETATM   15  C   UNL     1      26.605  47.061  49.868  1.00  0.00     0.015 C 
HETATM   16  C   UNL     1      26.427  48.556  49.593  1.00  0.00     0.001 C 
HETATM   17  C   UNL     1      25.080  48.862  48.949  1.00  0.00     0.000 C 
HETATM   18  C   UNL     1      23.918  48.299  49.762  1.00  0.00     0.001 C 
HETATM   19  C   UNL     1      24.081  46.794  50.000  1.00  0.00     0.015 C 
HETATM   20  N   UNL     1      26.573  42.935  51.835  1.00  0.00    -0.061 NA
ENDROOT
BRANCH   1  21
HETATM   21  N   UNL     1      26.167  40.774  51.086  1.00  0.00    -0.127 N 
HETATM   22  H   UNL     1      25.602  40.329  51.810  1.00  0.00     0.205 HD
BRANCH  21  23
HETATM   23  N   UNL     1      27.468  40.255  50.985  1.00  0.00    -0.262 N 
HETATM   24  H   UNL     1      28.054  40.490  51.784  1.00  0.00     0.190 HD
BRANCH  23  25
HETATM   25  C   UNL     1      27.687  39.103  50.273  1.00  0.00     0.186 C 
HETATM   26  S   UNL     1      29.192  38.502  49.850  1.00  0.00    -0.040 SA
BRANCH  25  27
HETATM   27  N   UNL     1      26.586  38.369  49.945  1.00  0.00    -0.366 N 
HETATM   28  H   UNL     1      25.750  38.927  49.811  1.00  0.00     0.161 HD
BRANCH  27  29
HETATM   29  C   UNL     1      26.543  36.997  49.468  1.00  0.00     0.117 C 
HETATM   30  C   UNL     1      26.167  36.924  47.998  1.00  0.00     0.026 C 
ENDBRANCH  27  29
ENDBRANCH  25  27
ENDBRANCH  23  25
ENDBRANCH  21  23
ENDBRANCH   1  21
BRANCH   2  31
HETATM   31  C   UNL     1      24.770  41.799  48.863  1.00  0.00     0.094 A 
HETATM   32  C   UNL     1      25.635  41.188  47.931  1.00  0.00     0.096 A 
HETATM   33  C   UNL     1      25.094  40.364  46.940  1.00  0.00     0.039 A 
HETATM   34  C   UNL     1      23.713  40.147  46.875  1.00  0.00     0.003 A 
HETATM   35  C   UNL     1      22.862  40.750  47.797  1.00  0.00     0.002 A 
HETATM   36  C   UNL     1      23.386  41.574  48.789  1.00  0.00     0.034 A 
BRANCH  32  37
HETATM   37  O   UNL     1      26.964  41.513  48.037  1.00  0.00    -0.354 OA
HETATM   38  C   UNL     1      27.863  40.898  47.123  1.00  0.00     0.210 C 
ENDBRANCH  32  37
ENDBRANCH   2  31
TORSDOF 7
ENDMDL
MODEL 3
REMARK VINA RESULT:      -8.2      1.284      2.181
REMARK  7 active torsions:
REMARK  status: ('A' for Active; 'I' for Inactive)
REMARK    1  A    between atoms: C_2  and  N_3 
REMARK    2  A    between atoms: N_3  and  C_4 
REMARK    3  A    between atoms: C_4  and  N_5 
REMARK    4  A    between atoms: N_5  and  N_6 
REMARK    5  A    between atoms: N_6  and  C_7 
REMARK    6  A    between atoms: N_8  and  C_9 
REMARK    7  A    between atoms: C_10  and  O_11 
ROOT
HETATM    1  C   UNL     1      25.876  42.332  51.008  1.00  0.00     0.729 C 
HETATM    2  N   UNL     1      25.223  42.864  49.905  1.00  0.00    -0.105 N 
HETATM    3  C   UNL     1      25.326  44.218  49.623  1.00  0.00     0.276 C 
HETATM    4  O   UNL     1      25.202  44.691  48.493  1.00  0.00    -0.266 OA
HETATM    5  C   UNL     1      25.723  45.095  50.759  1.00  0.00     0.050 C 
HETATM    6  C   UNL     1      26.297  44.459  51.800  1.00  0.00     0.099 C 
HETATM    7  C   UNL     1      26.847  45.271  52.919  1.00  0.00     0.000 A 
HETATM    8  C   UNL     1      26.488  46.620  53.056  1.00  0.00    -0.044 A 
HETATM    9  C   UNL     1      26.985  47.382  54.125  1.00  0.00     0.008 A 
HETATM   10  C   UNL     1      27.856  46.813  55.050  1.00  0.00     0.001 A 
HETATM   11  C   UNL     1      28.229  45.479  54.919  1.00  0.00     0.001 A 
HETATM   12  C   UNL     1      27.725  44.715  53.863  1.00  0.00     0.014 A 
HETATM   13  C   UNL     1      25.498  47.219  52.097  1.00  0.00     0.054 C 
HETATM   14  C   UNL     1      25.568  46.625  50.655  1.00  0.00    -0.002 C 
HETATM   15  C   UNL     1      26.800  47.183  49.884  1.00  0.00     0.015 C 
HETATM   16  C   UNL     1      26.727  48.682  49.583  1.00  0.00     0.001 C 
HETATM   17  C   UNL     1      25.425  49.063  48.890  1.00  0.00     0.000 C 
HETATM   18  C   UNL     1      24.203  48.588  49.670  1.00  0.00     0.001 C 
HETATM   19  C   UNL     1      24.261  47.079  49.934  1.00  0.00     0.015 C 
HETATM   20  N   UNL     1      26.438  43.098  51.903  1.00  0.00    -0.061 NA
ENDROOT
BRANCH   1  21
HETATM   21  N   UNL     1      25.918  40.956  51.169  1.00  0.00    -0.127 N 
HETATM   22  H   UNL     1      25.241  40.549  51.814  1.00  0.00     0.205 HD
BRANCH  21  23
HETATM   23  N   UNL     1      27.191  40.367  51.241  1.00  0.00    -0.262 N 
HETATM   24  H   UNL     1      27.510  40.224  52.197  1.00  0.00     0.190 HD
BRANCH  23  25
HETATM   25  C   UNL     1      27.617  39.542  50.231  1.00  0.00     0.186 C 
HETATM   26  S   UNL     1      26.731  38.281  49.576  1.00  0.00    -0.040 SA
BRANCH  25  27
HETATM   27  N   UNL     1      28.835  39.822  49.686  1.00  0.00    -0.366 N 
HETATM   28  H   UNL     1      29.284  40.637  50.090  1.00  0.00     0.161 HD
BRANCH  27  29
HETATM   29  C   UNL     1      29.666  38.951  48.872  1.00  0.00     0.117 C 
HETATM   30  C   UNL     1      30.505  38.016  49.726  1.00  0.00     0.026 C 
ENDBRANCH  27  29
ENDBRANCH  25  27
ENDBRANCH  23  25
ENDBRANCH  21  23
ENDBRANCH   1  21
BRANCH   2  31
HETATM   31  C   UNL     1      24.664  42.033  48.886  1.00  0.00     0.094 A 
HETATM   32  C   UNL     1      23.265  41.882  48.797  1.00  0.00     0.096 A 
HETATM   33  C   UNL     1      22.732  41.059  47.801  1.00  0.00     0.039 A 
HETATM   34  C   UNL     1      23.576  40.395  46.903  1.00  0.00     0.003 A 
HETATM   35  C   UNL     1      24.958  40.546  46.993  1.00  0.00     0.002 A 
HETATM   36  C   UNL     1      25.503  41.363  47.980  1.00  0.00     0.034 A 
BRANCH  32  37
HETATM   37  O   UNL     1      22.525  42.521  49.760  1.00  0.00    -0.354 OA
HETATM   38  C   UNL     1      21.993  43.799  49.437  1.00  0.00     0.210 C 
ENDBRANCH  32  37
ENDBRANCH   2  31
TORSDOF 7
ENDMDL
MODEL 4
REMARK VINA RESULT:      -7.9     11.269     13.705
REMARK  7 active torsions:
REMARK  status: ('A' for Active; 'I' for Inactive)
REMARK    1  A    between atoms: C_2  and  N_3 
REMARK    2  A    between atoms: N_3  and  C_4 
REMARK    3  A    between atoms: C_4  and  N_5 
REMARK    4  A    between atoms: N_5  and  N_6 
REMARK    5  A    between atoms: N_6  and  C_7 
REMARK    6  A    between atoms: N_8  and  C_9 
REMARK    7  A    between atoms: C_10  and  O_11 
ROOT
HETATM    1  C   UNL     1      26.926  49.595  38.237  1.00  0.00     0.729 C 
HETATM    2  N   UNL     1      27.398  48.319  38.509  1.00  0.00    -0.105 N 
HETATM    3  C   UNL     1      28.411  48.136  39.437  1.00  0.00     0.276 C 
HETATM    4  O   UNL     1      28.573  47.094  40.074  1.00  0.00    -0.266 OA
HETATM    5  C   UNL     1      29.253  49.329  39.732  1.00  0.00     0.050 C 
HETATM    6  C   UNL     1      28.715  50.511  39.371  1.00  0.00     0.099 C 
HETATM    7  C   UNL     1      29.425  51.764  39.748  1.00  0.00     0.000 A 
HETATM    8  C   UNL     1      30.764  51.719  40.164  1.00  0.00    -0.044 A 
HETATM    9  C   UNL     1      31.444  52.901  40.497  1.00  0.00     0.008 A 
HETATM   10  C   UNL     1      30.790  54.129  40.438  1.00  0.00     0.001 A 
HETATM   11  C   UNL     1      29.459  54.186  40.038  1.00  0.00     0.001 A 
HETATM   12  C   UNL     1      28.784  53.012  39.694  1.00  0.00     0.014 A 
HETATM   13  C   UNL     1      31.491  50.404  40.167  1.00  0.00     0.054 C 
HETATM   14  C   UNL     1      30.583  49.176  40.495  1.00  0.00    -0.002 C 
HETATM   15  C   UNL     1      30.262  49.113  42.016  1.00  0.00     0.015 C 
HETATM   16  C   UNL     1      31.476  48.828  42.904  1.00  0.00     0.001 C 
HETATM   17  C   UNL     1      32.238  47.589  42.450  1.00  0.00     0.000 C 
HETATM   18  C   UNL     1      32.626  47.666  40.977  1.00  0.00     0.001 C 
HETATM   19  C   UNL     1      31.402  47.910  40.089  1.00  0.00     0.015 C 
HETATM   20  N   UNL     1      27.533  50.657  38.690  1.00  0.00    -0.061 NA
ENDROOT
BRANCH   1  21
HETATM   21  N   UNL     1      25.793  49.743  37.452  1.00  0.00    -0.127 N 
HETATM   22  H   UNL     1      25.944  49.928  36.459  1.00  0.00     0.205 HD
BRANCH  21  23
HETATM   23  N   UNL     1      24.732  50.476  38.007  1.00  0.00    -0.262 N 
HETATM   24  H   UNL     1      24.731  51.454  37.723  1.00  0.00     0.190 HD
BRANCH  23  25
HETATM   25  C   UNL     1      23.559  49.840  38.324  1.00  0.00     0.186 C 
HETATM   26  S   UNL     1      22.618  48.961  37.253  1.00  0.00    -0.040 SA
BRANCH  25  27
HETATM   27  N   UNL     1      23.173  49.883  39.631  1.00  0.00    -0.366 N 
HETATM   28  H   UNL     1      23.939  50.051  40.275  1.00  0.00     0.161 HD
BRANCH  27  29
HETATM   29  C   UNL     1      21.827  50.039  40.156  1.00  0.00     0.117 C 
HETATM   30  C   UNL     1      21.438  51.502  40.280  1.00  0.00     0.026 C 
ENDBRANCH  27  29
ENDBRANCH  25  27
ENDBRANCH  23  25
ENDBRANCH  21  23
ENDBRANCH   1  21
BRANCH   2  31
HETATM   31  C   UNL     1      26.703  47.149  38.073  1.00  0.00     0.094 A 
HETATM   32  C   UNL     1      25.500  46.775  38.706  1.00  0.00     0.096 A 
HETATM   33  C   UNL     1      24.834  45.624  38.276  1.00  0.00     0.039 A 
HETATM   34  C   UNL     1      25.353  44.854  37.229  1.00  0.00     0.003 A 
HETATM   35  C   UNL     1      26.541  45.226  36.605  1.00  0.00     0.002 A 
HETATM   36  C   UNL     1      27.216  46.370  37.023  1.00  0.00     0.034 A 
BRANCH  32  37
HETATM   37  O   UNL     1      25.105  47.556  39.764  1.00  0.00    -0.354 OA
HETATM   38  C   UNL     1      25.112  46.962  41.055  1.00  0.00     0.210 C 
ENDBRANCH  32  37
ENDBRANCH   2  31
TORSDOF 7
ENDMDL
MODEL 5
REMARK VINA RESULT:      -7.9      6.010      9.794
REMARK  7 active torsions:
REMARK  status: ('A' for Active; 'I' for Inactive)
REMARK    1  A    between atoms: C_2  and  N_3 
REMARK    2  A    between atoms: N_3  and  C_4 
REMARK    3  A    between atoms: C_4  and  N_5 
REMARK    4  A    between atoms: N_5  and  N_6 
REMARK    5  A    between atoms: N_6  and  C_7 
REMARK    6  A    between atoms: N_8  and  C_9 
REMARK    7  A    between atoms: C_10  and  O_11 
ROOT
HETATM    1  C   UNL     1      20.888  47.828  48.628  1.00  0.00     0.729 C 
HETATM    2  N   UNL     1      19.803  48.447  48.024  1.00  0.00    -0.105 N 
HETATM    3  C   UNL     1      18.953  47.717  47.208  1.00  0.00     0.276 C 
HETATM    4  O   UNL     1      17.772  48.012  47.016  1.00  0.00    -0.266 OA
HETATM    5  C   UNL     1      19.507  46.454  46.646  1.00  0.00     0.050 C 
HETATM    6  C   UNL     1      20.597  45.977  47.280  1.00  0.00     0.099 C 
HETATM    7  C   UNL     1      21.137  44.651  46.873  1.00  0.00     0.000 A 
HETATM    8  C   UNL     1      20.743  44.071  45.658  1.00  0.00    -0.044 A 
HETATM    9  C   UNL     1      21.269  42.832  45.259  1.00  0.00     0.008 A 
HETATM   10  C   UNL     1      22.173  42.156  46.074  1.00  0.00     0.001 A 
HETATM   11  C   UNL     1      22.564  42.716  47.286  1.00  0.00     0.001 A 
HETATM   12  C   UNL     1      22.051  43.955  47.680  1.00  0.00     0.014 A 
HETATM   13  C   UNL     1      19.817  44.827  44.747  1.00  0.00     0.054 C 
HETATM   14  C   UNL     1      18.785  45.729  45.495  1.00  0.00    -0.002 C 
HETATM   15  C   UNL     1      17.639  44.873  46.108  1.00  0.00     0.015 C 
HETATM   16  C   UNL     1      16.741  44.191  45.072  1.00  0.00     0.001 C 
HETATM   17  C   UNL     1      16.201  45.178  44.045  1.00  0.00     0.000 C 
HETATM   18  C   UNL     1      17.317  45.977  43.380  1.00  0.00     0.001 C 
HETATM   19  C   UNL     1      18.189  46.690  44.419  1.00  0.00     0.015 C 
HETATM   20  N   UNL     1      21.248  46.616  48.305  1.00  0.00    -0.061 NA
ENDROOT
BRANCH   1  21
HETATM   21  N   UNL     1      21.615  48.520  49.584  1.00  0.00    -0.127 N 
HETATM   22  H   UNL     1      21.378  49.503  49.717  1.00  0.00     0.205 HD
BRANCH  21  23
HETATM   23  N   UNL     1      22.994  48.259  49.640  1.00  0.00    -0.262 N 
HETATM   24  H   UNL     1      23.207  47.272  49.772  1.00  0.00     0.190 HD
BRANCH  23  25
HETATM   25  C   UNL     1      23.869  49.080  48.976  1.00  0.00     0.186 C 
HETATM   26  S   UNL     1      23.442  50.454  48.118  1.00  0.00    -0.040 SA
BRANCH  25  27
HETATM   27  N   UNL     1      25.194  48.777  49.084  1.00  0.00    -0.366 N 
HETATM   28  H   UNL     1      25.369  47.824  49.381  1.00  0.00     0.161 HD
BRANCH  27  29
HETATM   29  C   UNL     1      26.321  49.513  48.538  1.00  0.00     0.117 C 
HETATM   30  C   UNL     1      27.640  49.032  49.118  1.00  0.00     0.026 C 
ENDBRANCH  27  29
ENDBRANCH  25  27
ENDBRANCH  23  25
ENDBRANCH  21  23
ENDBRANCH   1  21
BRANCH   2  31
HETATM   31  C   UNL     1      19.362  49.747  48.419  1.00  0.00     0.094 A 
HETATM   32  C   UNL     1      18.583  49.896  49.585  1.00  0.00     0.096 A 
HETATM   33  C   UNL     1      18.150  51.173  49.956  1.00  0.00     0.039 A 
HETATM   34  C   UNL     1      18.487  52.288  49.181  1.00  0.00     0.003 A 
HETATM   35  C   UNL     1      19.257  52.138  48.030  1.00  0.00     0.002 A 
HETATM   36  C   UNL     1      19.695  50.873  47.648  1.00  0.00     0.034 A 
BRANCH  32  37
HETATM   37  O   UNL     1      18.250  48.738  50.242  1.00  0.00    -0.354 OA
HETATM   38  C   UNL     1      18.604  48.640  51.616  1.00  0.00     0.210 C 
ENDBRANCH  32  37
ENDBRANCH   2  31
TORSDOF 7
ENDMDL
MODEL 6
REMARK VINA RESULT:      -7.7      4.632      8.896
REMARK  7 active torsions:
REMARK  status: ('A' for Active; 'I' for Inactive)
REMARK    1  A    between atoms: C_2  and  N_3 
REMARK    2  A    between atoms: N_3  and  C_4 
REMARK    3  A    between atoms: C_4  and  N_5 
REMARK    4  A    between atoms: N_5  and  N_6 
REMARK    5  A    between atoms: N_6  and  C_7 
REMARK    6  A    between atoms: N_8  and  C_9 
REMARK    7  A    between atoms: C_10  and  O_11 
ROOT
HETATM    1  C   UNL     1      21.934  46.539  47.314  1.00  0.00     0.729 C 
HETATM    2  N   UNL     1      22.421  47.283  48.380  1.00  0.00    -0.105 N 
HETATM    3  C   UNL     1      23.481  46.804  49.134  1.00  0.00     0.276 C 
HETATM    4  O   UNL     1      24.259  47.530  49.754  1.00  0.00    -0.266 OA
HETATM    5  C   UNL     1      23.722  45.336  49.069  1.00  0.00     0.050 C 
HETATM    6  C   UNL     1      23.152  44.709  48.021  1.00  0.00     0.099 C 
HETATM    7  C   UNL     1      23.451  43.268  47.801  1.00  0.00     0.000 A 
HETATM    8  C   UNL     1      24.028  42.502  48.824  1.00  0.00    -0.044 A 
HETATM    9  C   UNL     1      24.288  41.137  48.629  1.00  0.00     0.008 A 
HETATM   10  C   UNL     1      23.996  40.532  47.410  1.00  0.00     0.001 A 
HETATM   11  C   UNL     1      23.434  41.283  46.383  1.00  0.00     0.001 A 
HETATM   12  C   UNL     1      23.162  42.640  46.579  1.00  0.00     0.014 A 
HETATM   13  C   UNL     1      24.285  43.136  50.163  1.00  0.00     0.054 C 
HETATM   14  C   UNL     1      24.653  44.653  50.088  1.00  0.00    -0.002 C 
HETATM   15  C   UNL     1      26.120  44.845  49.606  1.00  0.00     0.015 C 
HETATM   16  C   UNL     1      27.178  44.332  50.587  1.00  0.00     0.001 C 
HETATM   17  C   UNL     1      26.980  44.897  51.988  1.00  0.00     0.000 C 
HETATM   18  C   UNL     1      25.567  44.653  52.508  1.00  0.00     0.001 C 
HETATM   19  C   UNL     1      24.513  45.205  51.541  1.00  0.00     0.015 C 
HETATM   20  N   UNL     1      22.320  45.309  47.109  1.00  0.00    -0.061 NA
ENDROOT
BRANCH   1  21
HETATM   21  N   UNL     1      21.006  47.111  46.459  1.00  0.00    -0.127 N 
HETATM   22  H   UNL     1      21.098  48.112  46.285  1.00  0.00     0.205 HD
BRANCH  21  23
HETATM   23  N   UNL     1      19.675  46.682  46.593  1.00  0.00    -0.262 N 
HETATM   24  H   UNL     1      19.513  46.148  47.445  1.00  0.00     0.190 HD
BRANCH  23  25
HETATM   25  C   UNL     1      18.664  47.413  46.024  1.00  0.00     0.186 C 
HETATM   26  S   UNL     1      18.075  47.201  44.471  1.00  0.00    -0.040 SA
BRANCH  25  27
HETATM   27  N   UNL     1      18.059  48.341  46.819  1.00  0.00    -0.366 N 
HETATM   28  H   UNL     1      18.028  48.079  47.798  1.00  0.00     0.161 HD
BRANCH  27  29
HETATM   29  C   UNL     1      17.764  49.728  46.501  1.00  0.00     0.117 C 
HETATM   30  C   UNL     1      19.008  50.481  46.064  1.00  0.00     0.026 C 
ENDBRANCH  27  29
ENDBRANCH  25  27
ENDBRANCH  23  25
ENDBRANCH  21  23
ENDBRANCH   1  21
BRANCH   2  31
HETATM   31  C   UNL     1      22.056  48.650  48.573  1.00  0.00     0.094 A 
HETATM   32  C   UNL     1      20.810  48.965  49.155  1.00  0.00     0.096 A 
HETATM   33  C   UNL     1      20.462  50.308  49.330  1.00  0.00     0.039 A 
HETATM   34  C   UNL     1      21.337  51.325  48.935  1.00  0.00     0.003 A 
HETATM   35  C   UNL     1      22.567  51.011  48.361  1.00  0.00     0.002 A 
HETATM   36  C   UNL     1      22.928  49.679  48.180  1.00  0.00     0.034 A 
BRANCH  32  37
HETATM   37  O   UNL     1      19.995  47.902  49.450  1.00  0.00    -0.354 OA
HETATM   38  C   UNL     1      18.822  48.166  50.210  1.00  0.00     0.210 C 
ENDBRANCH  32  37
ENDBRANCH   2  31
TORSDOF 7
ENDMDL
MODEL 7
REMARK VINA RESULT:      -7.6      3.909      7.671
REMARK  7 active torsions:
REMARK  status: ('A' for Active; 'I' for Inactive)
REMARK    1  A    between atoms: C_2  and  N_3 
REMARK    2  A    between atoms: N_3  and  C_4 
REMARK    3  A    between atoms: C_4  and  N_5 
REMARK    4  A    between atoms: N_5  and  N_6 
REMARK    5  A    between atoms: N_6  and  C_7 
REMARK    6  A    between atoms: N_8  and  C_9 
REMARK    7  A    between atoms: C_10  and  O_11 
ROOT
HETATM    1  C   UNL     1      23.153  46.810  49.140  1.00  0.00     0.729 C 
HETATM    2  N   UNL     1      22.255  47.439  48.289  1.00  0.00    -0.105 N 
HETATM    3  C   UNL     1      21.569  46.702  47.336  1.00  0.00     0.276 C 
HETATM    4  O   UNL     1      20.473  47.029  46.879  1.00  0.00    -0.266 OA
HETATM    5  C   UNL     1      22.173  45.394  46.959  1.00  0.00     0.050 C 
HETATM    6  C   UNL     1      23.076  44.908  47.834  1.00  0.00     0.099 C 
HETATM    7  C   UNL     1      23.630  43.546  47.608  1.00  0.00     0.000 A 
HETATM    8  C   UNL     1      23.482  42.922  46.360  1.00  0.00    -0.044 A 
HETATM    9  C   UNL     1      24.025  41.647  46.135  1.00  0.00     0.008 A 
HETATM   10  C   UNL     1      24.699  40.979  47.153  1.00  0.00     0.001 A 
HETATM   11  C   UNL     1      24.842  41.582  48.399  1.00  0.00     0.001 A 
HETATM   12  C   UNL     1      24.314  42.856  48.621  1.00  0.00     0.014 A 
HETATM   13  C   UNL     1      22.812  43.666  45.239  1.00  0.00     0.054 C 
HETATM   14  C   UNL     1      21.685  44.641  45.707  1.00  0.00    -0.002 C 
HETATM   15  C   UNL     1      20.395  43.857  46.088  1.00  0.00     0.015 C 
HETATM   16  C   UNL     1      19.712  43.159  44.909  1.00  0.00     0.001 C 
HETATM   17  C   UNL     1      19.454  44.115  43.750  1.00  0.00     0.000 C 
HETATM   18  C   UNL     1      20.724  44.839  43.314  1.00  0.00     0.001 C 
HETATM   19  C   UNL     1      21.382  45.569  44.490  1.00  0.00     0.015 C 
HETATM   20  N   UNL     1      23.518  45.572  48.951  1.00  0.00    -0.061 NA
ENDROOT
BRANCH   1  21
HETATM   21  N   UNL     1      23.687  47.521  50.204  1.00  0.00    -0.127 N 
HETATM   22  H   UNL     1      23.495  48.523  50.227  1.00  0.00     0.205 HD
BRANCH  21  23
HETATM   23  N   UNL     1      24.993  47.186  50.595  1.00  0.00    -0.262 N 
HETATM   24  H   UNL     1      25.691  47.847  50.260  1.00  0.00     0.190 HD
BRANCH  23  25
HETATM   25  C   UNL     1      25.196  46.484  51.756  1.00  0.00     0.186 C 
HETATM   26  S   UNL     1      25.844  47.116  53.165  1.00  0.00    -0.040 SA
BRANCH  25  27
HETATM   27  N   UNL     1      24.775  45.188  51.768  1.00  0.00    -0.366 N 
HETATM   28  H   UNL     1      23.866  45.052  51.340  1.00  0.00     0.161 HD
BRANCH  27  29
HETATM   29  C   UNL     1      25.571  43.996  52.010  1.00  0.00     0.117 C 
HETATM   30  C   UNL     1      26.821  43.971  51.147  1.00  0.00     0.026 C 
ENDBRANCH  27  29
ENDBRANCH  25  27
ENDBRANCH  23  25
ENDBRANCH  21  23
ENDBRANCH   1  21
BRANCH   2  31
HETATM   31  C   UNL     1      21.798  48.771  48.527  1.00  0.00     0.094 A 
HETATM   32  C   UNL     1      22.542  49.863  48.033  1.00  0.00     0.096 A 
HETATM   33  C   UNL     1      22.089  51.162  48.280  1.00  0.00     0.039 A 
HETATM   34  C   UNL     1      20.913  51.376  49.006  1.00  0.00     0.003 A 
HETATM   35  C   UNL     1      20.179  50.297  49.493  1.00  0.00     0.002 A 
HETATM   36  C   UNL     1      20.619  48.997  49.255  1.00  0.00     0.034 A 
BRANCH  32  37
HETATM   37  O   UNL     1      23.714  49.554  47.388  1.00  0.00    -0.354 OA
HETATM   38  C   UNL     1      24.924  50.014  47.974  1.00  0.00     0.210 C 
ENDBRANCH  32  37
ENDBRANCH   2  31
TORSDOF 7
ENDMDL
MODEL 8
REMARK VINA RESULT:      -7.5     11.949     14.136
REMARK  7 active torsions:
REMARK  status: ('A' for Active; 'I' for Inactive)
REMARK    1  A    between atoms: C_2  and  N_3 
REMARK    2  A    between atoms: N_3  and  C_4 
REMARK    3  A    between atoms: C_4  and  N_5 
REMARK    4  A    between atoms: N_5  and  N_6 
REMARK    5  A    between atoms: N_6  and  C_7 
REMARK    6  A    between atoms: N_8  and  C_9 
REMARK    7  A    between atoms: C_10  and  O_11 
ROOT
HETATM    1  C   UNL     1      30.414  49.193  39.326  1.00  0.00     0.729 C 
HETATM    2  N   UNL     1      29.482  50.127  39.757  1.00  0.00    -0.105 N 
HETATM    3  C   UNL     1      28.139  49.789  39.823  1.00  0.00     0.276 C 
HETATM    4  O   UNL     1      27.337  50.327  40.588  1.00  0.00    -0.266 OA
HETATM    5  C   UNL     1      27.713  48.630  38.991  1.00  0.00     0.050 C 
HETATM    6  C   UNL     1      28.712  47.823  38.581  1.00  0.00     0.099 C 
HETATM    7  C   UNL     1      28.367  46.568  37.859  1.00  0.00     0.000 A 
HETATM    8  C   UNL     1      27.082  46.391  37.326  1.00  0.00    -0.044 A 
HETATM    9  C   UNL     1      26.760  45.219  36.623  1.00  0.00     0.008 A 
HETATM   10  C   UNL     1      27.707  44.211  36.465  1.00  0.00     0.001 A 
HETATM   11  C   UNL     1      28.981  44.369  36.999  1.00  0.00     0.001 A 
HETATM   12  C   UNL     1      29.308  45.540  37.688  1.00  0.00     0.014 A 
HETATM   13  C   UNL     1      26.078  47.504  37.439  1.00  0.00     0.054 C 
HETATM   14  C   UNL     1      26.218  48.358  38.739  1.00  0.00    -0.002 C 
HETATM   15  C   UNL     1      25.653  47.592  39.970  1.00  0.00     0.015 C 
HETATM   16  C   UNL     1      24.140  47.363  39.929  1.00  0.00     0.001 C 
HETATM   17  C   UNL     1      23.372  48.657  39.685  1.00  0.00     0.000 C 
HETATM   18  C   UNL     1      23.864  49.386  38.439  1.00  0.00     0.001 C 
HETATM   19  C   UNL     1      25.372  49.648  38.504  1.00  0.00     0.015 C 
HETATM   20  N   UNL     1      30.047  48.057  38.799  1.00  0.00    -0.061 NA
ENDROOT
BRANCH   1  21
HETATM   21  N   UNL     1      31.764  49.482  39.443  1.00  0.00    -0.127 N 
HETATM   22  H   UNL     1      32.251  49.754  38.588  1.00  0.00     0.205 HD
BRANCH  21  23
HETATM   23  N   UNL     1      32.518  48.645  40.281  1.00  0.00    -0.262 N 
HETATM   24  H   UNL     1      33.262  48.154  39.787  1.00  0.00     0.190 HD
BRANCH  23  25
HETATM   25  C   UNL     1      32.647  48.950  41.611  1.00  0.00     0.186 C 
HETATM   26  S   UNL     1      31.561  48.517  42.811  1.00  0.00    -0.040 SA
BRANCH  25  27
HETATM   27  N   UNL     1      33.784  49.605  41.982  1.00  0.00    -0.366 N 
HETATM   28  H   UNL     1      34.608  49.013  41.992  1.00  0.00     0.161 HD
BRANCH  27  29
HETATM   29  C   UNL     1      34.006  51.040  42.040  1.00  0.00     0.117 C 
HETATM   30  C   UNL     1      33.868  51.573  43.456  1.00  0.00     0.026 C 
ENDBRANCH  27  29
ENDBRANCH  25  27
ENDBRANCH  23  25
ENDBRANCH  21  23
ENDBRANCH   1  21
BRANCH   2  31
HETATM   31  C   UNL     1      29.874  51.343  40.396  1.00  0.00     0.094 A 
HETATM   32  C   UNL     1      29.989  52.526  39.637  1.00  0.00     0.096 A 
HETATM   33  C   UNL     1      30.382  53.707  40.273  1.00  0.00     0.039 A 
HETATM   34  C   UNL     1      30.657  53.715  41.645  1.00  0.00     0.003 A 
HETATM   35  C   UNL     1      30.542  52.546  42.393  1.00  0.00     0.002 A 
HETATM   36  C   UNL     1      30.151  51.362  41.773  1.00  0.00     0.034 A 
BRANCH  32  37
HETATM   37  O   UNL     1      29.762  52.403  38.289  1.00  0.00    -0.354 OA
HETATM   38  C   UNL     1      28.663  53.121  37.742  1.00  0.00     0.210 C 
ENDBRANCH  32  37
ENDBRANCH   2  31
TORSDOF 7
ENDMDL
MODEL 9
REMARK VINA RESULT:      -7.5     11.415     15.230
REMARK  7 active torsions:
REMARK  status: ('A' for Active; 'I' for Inactive)
REMARK    1  A    between atoms: C_2  and  N_3 
REMARK    2  A    between atoms: N_3  and  C_4 
REMARK    3  A    between atoms: C_4  and  N_5 
REMARK    4  A    between atoms: N_5  and  N_6 
REMARK    5  A    between atoms: N_6  and  C_7 
REMARK    6  A    between atoms: N_8  and  C_9 
REMARK    7  A    between atoms: C_10  and  O_11 
ROOT
HETATM    1  C   UNL     1      15.688  52.416  48.466  1.00  0.00     0.729 C 
HETATM    2  N   UNL     1      16.786  51.775  47.909  1.00  0.00    -0.105 N 
HETATM    3  C   UNL     1      17.101  51.971  46.574  1.00  0.00     0.276 C 
HETATM    4  O   UNL     1      18.239  51.853  46.117  1.00  0.00    -0.266 OA
HETATM    5  C   UNL     1      15.996  52.461  45.705  1.00  0.00     0.050 C 
HETATM    6  C   UNL     1      14.955  53.013  46.360  1.00  0.00     0.099 C 
HETATM    7  C   UNL     1      13.868  53.650  45.568  1.00  0.00     0.000 A 
HETATM    8  C   UNL     1      13.753  53.396  44.194  1.00  0.00    -0.044 A 
HETATM    9  C   UNL     1      12.715  53.976  43.448  1.00  0.00     0.008 A 
HETATM   10  C   UNL     1      11.799  54.826  44.061  1.00  0.00     0.001 A 
HETATM   11  C   UNL     1      11.908  55.096  45.421  1.00  0.00     0.001 A 
HETATM   12  C   UNL     1      12.934  54.509  46.168  1.00  0.00     0.014 A 
HETATM   13  C   UNL     1      14.701  52.428  43.542  1.00  0.00     0.054 C 
HETATM   14  C   UNL     1      16.131  52.417  44.170  1.00  0.00    -0.002 C 
HETATM   15  C   UNL     1      16.945  53.666  43.722  1.00  0.00     0.015 C 
HETATM   16  C   UNL     1      17.278  53.696  42.229  1.00  0.00     0.001 C 
HETATM   17  C   UNL     1      17.947  52.409  41.766  1.00  0.00     0.000 C 
HETATM   18  C   UNL     1      17.127  51.176  42.132  1.00  0.00     0.001 C 
HETATM   19  C   UNL     1      16.831  51.129  43.635  1.00  0.00     0.015 C 
HETATM   20  N   UNL     1      14.825  53.055  47.725  1.00  0.00    -0.061 NA
ENDROOT
BRANCH   1  21
HETATM   21  N   UNL     1      15.497  52.360  49.838  1.00  0.00    -0.127 N 
HETATM   22  H   UNL     1      14.683  51.839  50.166  1.00  0.00     0.205 HD
BRANCH  21  23
HETATM   23  N   UNL     1      15.740  53.541  50.557  1.00  0.00    -0.262 N 
HETATM   24  H   UNL     1      16.541  54.064  50.205  1.00  0.00     0.190 HD
BRANCH  23  25
HETATM   25  C   UNL     1      14.700  54.188  51.174  1.00  0.00     0.186 C 
HETATM   26  S   UNL     1      13.176  54.411  50.517  1.00  0.00    -0.040 SA
BRANCH  25  27
HETATM   27  N   UNL     1      14.920  54.623  52.448  1.00  0.00    -0.366 N 
HETATM   28  H   UNL     1      15.759  54.239  52.869  1.00  0.00     0.161 HD
BRANCH  27  29
HETATM   29  C   UNL     1      14.310  55.760  53.117  1.00  0.00     0.117 C 
HETATM   30  C   UNL     1      15.213  56.981  53.084  1.00  0.00     0.026 C 
ENDBRANCH  27  29
ENDBRANCH  25  27
ENDBRANCH  23  25
ENDBRANCH  21  23
ENDBRANCH   1  21
BRANCH   2  31
HETATM   31  C   UNL     1      17.772  51.130  48.718  1.00  0.00     0.094 A 
HETATM   32  C   UNL     1      17.707  49.736  48.920  1.00  0.00     0.096 A 
HETATM   33  C   UNL     1      18.673  49.120  49.721  1.00  0.00     0.039 A 
HETATM   34  C   UNL     1      19.691  49.875  50.312  1.00  0.00     0.003 A 
HETATM   35  C   UNL     1      19.754  51.251  50.109  1.00  0.00     0.002 A 
HETATM   36  C   UNL     1      18.799  51.880  49.315  1.00  0.00     0.034 A 
BRANCH  32  37
HETATM   37  O   UNL     1      16.635  49.093  48.353  1.00  0.00    -0.354 OA
HETATM   38  C   UNL     1      16.502  47.700  48.602  1.00  0.00     0.210 C 
ENDBRANCH  32  37
ENDBRANCH   2  31
TORSDOF 7
ENDMDL
MODEL 10
REMARK VINA RESULT:      -7.5      3.004      8.090
REMARK  7 active torsions:
REMARK  status: ('A' for Active; 'I' for Inactive)
REMARK    1  A    between atoms: C_2  and  N_3 
REMARK    2  A    between atoms: N_3  and  C_4 
REMARK    3  A    between atoms: C_4  and  N_5 
REMARK    4  A    between atoms: N_5  and  N_6 
REMARK    5  A    between atoms: N_6  and  C_7 
REMARK    6  A    between atoms: N_8  and  C_9 
REMARK    7  A    between atoms: C_10  and  O_11 
ROOT
HETATM    1  C   UNL     1      24.016  44.655  49.619  1.00  0.00     0.729 C 
HETATM    2  N   UNL     1      25.046  44.303  50.480  1.00  0.00    -0.105 N 
HETATM    3  C   UNL     1      25.941  43.307  50.123  1.00  0.00     0.276 C 
HETATM    4  O   UNL     1      27.094  43.240  50.550  1.00  0.00    -0.266 OA
HETATM    5  C   UNL     1      25.478  42.356  49.074  1.00  0.00     0.050 C 
HETATM    6  C   UNL     1      24.433  42.782  48.336  1.00  0.00     0.099 C 
HETATM    7  C   UNL     1      23.990  41.957  47.180  1.00  0.00     0.000 A 
HETATM    8  C   UNL     1      24.415  40.625  47.059  1.00  0.00    -0.044 A 
HETATM    9  C   UNL     1      23.980  39.836  45.983  1.00  0.00     0.008 A 
HETATM   10  C   UNL     1      23.138  40.372  45.012  1.00  0.00     0.001 A 
HETATM   11  C   UNL     1      22.718  41.694  45.115  1.00  0.00     0.001 A 
HETATM   12  C   UNL     1      23.140  42.478  46.193  1.00  0.00     0.014 A 
HETATM   13  C   UNL     1      25.273  40.025  48.137  1.00  0.00     0.054 C 
HETATM   14  C   UNL     1      26.241  41.042  48.821  1.00  0.00    -0.002 C 
HETATM   15  C   UNL     1      27.454  41.359  47.899  1.00  0.00     0.015 C 
HETATM   16  C   UNL     1      28.391  40.172  47.661  1.00  0.00     0.001 C 
HETATM   17  C   UNL     1      28.845  39.532  48.967  1.00  0.00     0.000 C 
HETATM   18  C   UNL     1      27.665  39.146  49.853  1.00  0.00     0.001 C 
HETATM   19  C   UNL     1      26.752  40.347  50.122  1.00  0.00     0.015 C 
HETATM   20  N   UNL     1      23.746  43.949  48.555  1.00  0.00    -0.061 NA
ENDROOT
BRANCH   1  21
HETATM   21  N   UNL     1      23.249  45.774  49.905  1.00  0.00    -0.127 N 
HETATM   22  H   UNL     1      22.302  45.605  50.247  1.00  0.00     0.205 HD
BRANCH  21  23
HETATM   23  N   UNL     1      23.341  46.849  49.006  1.00  0.00    -0.262 N 
HETATM   24  H   UNL     1      24.085  46.733  48.321  1.00  0.00     0.190 HD
BRANCH  23  25
HETATM   25  C   UNL     1      22.220  47.579  48.703  1.00  0.00     0.186 C 
HETATM   26  S   UNL     1      21.109  47.192  47.511  1.00  0.00    -0.040 SA
BRANCH  25  27
HETATM   27  N   UNL     1      21.971  48.669  49.483  1.00  0.00    -0.366 N 
HETATM   28  H   UNL     1      21.632  48.436  50.410  1.00  0.00     0.161 HD
BRANCH  27  29
HETATM   29  C   UNL     1      22.420  50.035  49.273  1.00  0.00     0.117 C 
HETATM   30  C   UNL     1      23.149  50.189  47.949  1.00  0.00     0.026 C 
ENDBRANCH  27  29
ENDBRANCH  25  27
ENDBRANCH  23  25
ENDBRANCH  21  23
ENDBRANCH   1  21
BRANCH   2  31
HETATM   31  C   UNL     1      25.392  45.107  51.609  1.00  0.00     0.094 A 
HETATM   32  C   UNL     1      25.980  46.374  51.411  1.00  0.00     0.096 A 
HETATM   33  C   UNL     1      26.322  47.146  52.525  1.00  0.00     0.039 A 
HETATM   34  C   UNL     1      26.082  46.671  53.818  1.00  0.00     0.003 A 
HETATM   35  C   UNL     1      25.500  45.420  54.011  1.00  0.00     0.002 A 
HETATM   36  C   UNL     1      25.155  44.639  52.912  1.00  0.00     0.034 A 
BRANCH  32  37
HETATM   37  O   UNL     1      26.235  46.725  50.109  1.00  0.00    -0.354 OA
HETATM   38  C   UNL     1      26.605  48.073  49.855  1.00  0.00     0.210 C 
ENDBRANCH  32  37
ENDBRANCH   2  31
TORSDOF 7
ENDMDL
