MODEL 1
REMARK VINA RESULT:     -10.8      0.000      0.000
REMARK  7 active torsions:
REMARK  status: ('A' for Active; 'I' for Inactive)
REMARK    1  A    between atoms: O_2  and  C_3 
REMARK    2  A    between atoms: C_5  and  C_15 
REMARK    3  A    between atoms: C_8  and  C_9 
REMARK       I    between atoms: C_15  and  N_17 
REMARK    4  A    between atoms: N_17  and  C_18 
REMARK    5  A    between atoms: C_18  and  C_19 
REMARK    6  A    between atoms: C_23  and  C_25 
REMARK       I    between atoms: C_25  and  N_27 
REMARK    7  A    between atoms: N_27  and  C_28 
ROOT
HETATM    1  C   UNL     1      25.530  46.888  49.808  1.00  0.00    -0.040 A 
HETATM    2  C   UNL     1      26.701  47.623  49.569  1.00  0.00     0.009 A 
HETATM    3  C   UNL     1      26.630  48.918  49.057  1.00  0.00     0.002 A 
HETATM    4  C   UNL     1      25.390  49.487  48.773  1.00  0.00     0.017 A 
HETATM    5  C   UNL     1      24.208  48.766  48.987  1.00  0.00     0.033 A 
HETATM    6  C   UNL     1      24.284  47.467  49.509  1.00  0.00     0.026 A 
ENDROOT
BRANCH   1   7
HETATM    7  C   UNL     1      25.605  45.490  50.368  1.00  0.00     0.161 C 
BRANCH   7   8
HETATM    8  N   UNL     1      26.526  45.416  51.479  1.00  0.00    -0.353 N 
HETATM    9  C   UNL     1      26.204  45.922  52.719  1.00  0.00     0.252 C 
HETATM   10  O   UNL     1      25.137  46.473  52.970  1.00  0.00    -0.268 OA
HETATM   11  H   UNL     1      27.295  44.767  51.396  1.00  0.00     0.163 HD
BRANCH   9  12
HETATM   12  C   UNL     1      27.228  45.738  53.789  1.00  0.00     0.034 A 
HETATM   13  C   UNL     1      28.002  44.568  53.781  1.00  0.00     0.054 A 
HETATM   14  C   UNL     1      28.973  44.342  54.767  1.00  0.00     0.080 A 
HETATM   15  C   UNL     1      29.166  45.301  55.786  1.00  0.00     0.010 A 
HETATM   16  C   UNL     1      28.370  46.460  55.795  1.00  0.00     0.016 A 
HETATM   17  C   UNL     1      27.406  46.677  54.808  1.00  0.00     0.018 A 
BRANCH  14  18
HETATM   18  O   UNL     1      29.775  43.229  54.803  1.00  0.00    -0.355 OA
HETATM   19  C   UNL     1      30.274  42.722  53.573  1.00  0.00     0.210 C 
ENDBRANCH  14  18
BRANCH  15  20
HETATM   20  C   UNL     1      30.150  45.116  56.847  1.00  0.00     0.013 A 
HETATM   21  C   UNL     1      31.220  44.200  56.975  1.00  0.00     0.152 A 
HETATM   22  N   UNL     1      31.894  44.346  58.119  1.00  0.00    -0.187 NA
HETATM   23  N   UNL     1      31.271  45.371  58.720  1.00  0.00    -0.289 N 
HETATM   24  H   UNL     1      31.621  45.685  59.619  1.00  0.00     0.188 HD
HETATM   25  C   UNL     1      30.216  45.863  58.005  1.00  0.00     0.123 A 
ENDBRANCH  15  20
ENDBRANCH   9  12
ENDBRANCH   7   8
ENDBRANCH   1   7
BRANCH   5  26
HETATM   26  C   UNL     1      22.908  49.444  48.691  1.00  0.00     0.257 C 
HETATM   27  O   UNL     1      22.857  50.168  47.704  1.00  0.00    -0.267 OA
HETATM   28  N   UNL     1      21.879  49.162  49.561  1.00  0.00    -0.301 N 
HETATM   29  H   UNL     1      21.973  48.477  50.293  1.00  0.00     0.171 HD
BRANCH  28  30
HETATM   30  C   UNL     1      20.652  49.760  49.452  1.00  0.00     0.174 A 
HETATM   31  N   UNL     1      20.258  50.940  49.859  1.00  0.00    -0.228 NA
HETATM   32  C   UNL     1      18.928  51.099  49.545  1.00  0.00     0.054 A 
HETATM   33  C   UNL     1      18.178  52.349  49.848  1.00  0.00     0.090 C 
HETATM   34  C   UNL     1      18.337  50.032  48.902  1.00  0.00     0.039 A 
HETATM   35  C   UNL     1      16.660  52.109  49.670  1.00  0.00     0.276 C 
HETATM   36  N   UNL     1      16.322  51.339  48.450  1.00  0.00     0.088 N 
HETATM   37  C   UNL     1      16.904  49.979  48.500  1.00  0.00     0.317 C 
HETATM   38  H   UNL     1      16.725  51.821  47.645  1.00  0.00     0.316 HD
HETATM   39  S   UNL     1      19.470  48.783  48.680  1.00  0.00    -0.053 SA
ENDBRANCH  28  30
ENDBRANCH   5  26
TORSDOF 7
ENDMDL
MODEL 2
REMARK VINA RESULT:     -10.7      1.170      1.790
REMARK  7 active torsions:
REMARK  status: ('A' for Active; 'I' for Inactive)
REMARK    1  A    between atoms: O_2  and  C_3 
REMARK    2  A    between atoms: C_5  and  C_15 
REMARK    3  A    between atoms: C_8  and  C_9 
REMARK       I    between atoms: C_15  and  N_17 
REMARK    4  A    between atoms: N_17  and  C_18 
REMARK    5  A    between atoms: C_18  and  C_19 
REMARK    6  A    between atoms: C_23  and  C_25 
REMARK       I    between atoms: C_25  and  N_27 
REMARK    7  A    between atoms: N_27  and  C_28 
ROOT
HETATM    1  C   UNL     1      25.343  46.633  49.936  1.00  0.00    -0.040 A 
HETATM    2  C   UNL     1      26.525  47.363  49.740  1.00  0.00     0.009 A 
HETATM    3  C   UNL     1      26.477  48.665  49.245  1.00  0.00     0.002 A 
HETATM    4  C   UNL     1      25.249  49.247  48.935  1.00  0.00     0.017 A 
HETATM    5  C   UNL     1      24.057  48.532  49.106  1.00  0.00     0.033 A 
HETATM    6  C   UNL     1      24.110  47.225  49.611  1.00  0.00     0.026 A 
ENDROOT
BRANCH   1   7
HETATM    7  C   UNL     1      25.392  45.227  50.478  1.00  0.00     0.161 C 
BRANCH   7   8
HETATM    8  N   UNL     1      26.253  45.137  51.634  1.00  0.00    -0.353 N 
HETATM    9  C   UNL     1      27.209  44.152  51.748  1.00  0.00     0.252 C 
HETATM   10  O   UNL     1      27.395  43.286  50.899  1.00  0.00    -0.268 OA
HETATM   11  H   UNL     1      26.311  45.951  52.229  1.00  0.00     0.163 HD
BRANCH   9  12
HETATM   12  C   UNL     1      28.061  44.203  52.973  1.00  0.00     0.034 A 
HETATM   13  C   UNL     1      27.829  45.222  53.908  1.00  0.00     0.054 A 
HETATM   14  C   UNL     1      28.605  45.319  55.073  1.00  0.00     0.080 A 
HETATM   15  C   UNL     1      29.639  44.383  55.300  1.00  0.00     0.010 A 
HETATM   16  C   UNL     1      29.874  43.378  54.345  1.00  0.00     0.016 A 
HETATM   17  C   UNL     1      29.096  43.289  53.188  1.00  0.00     0.018 A 
BRANCH  14  18
HETATM   18  O   UNL     1      28.416  46.280  56.034  1.00  0.00    -0.355 OA
HETATM   19  C   UNL     1      27.445  47.289  55.792  1.00  0.00     0.210 C 
ENDBRANCH  14  18
BRANCH  15  20
HETATM   20  C   UNL     1      30.489  44.441  56.483  1.00  0.00     0.013 A 
HETATM   21  C   UNL     1      31.565  43.622  56.897  1.00  0.00     0.152 A 
HETATM   22  N   UNL     1      32.086  44.002  58.068  1.00  0.00    -0.187 NA
HETATM   23  N   UNL     1      31.359  45.080  58.398  1.00  0.00    -0.289 N 
HETATM   24  H   UNL     1      31.583  45.564  59.260  1.00  0.00     0.188 HD
HETATM   25  C   UNL     1      30.384  45.380  57.489  1.00  0.00     0.123 A 
ENDBRANCH  15  20
ENDBRANCH   9  12
ENDBRANCH   7   8
ENDBRANCH   1   7
BRANCH   5  26
HETATM   26  C   UNL     1      22.770  49.223  48.784  1.00  0.00     0.257 C 
HETATM   27  O   UNL     1      22.737  49.922  47.777  1.00  0.00    -0.267 OA
HETATM   28  N   UNL     1      21.731  48.982  49.655  1.00  0.00    -0.301 N 
HETATM   29  H   UNL     1      21.809  48.315  50.405  1.00  0.00     0.171 HD
BRANCH  28  30
HETATM   30  C   UNL     1      20.515  49.596  49.522  1.00  0.00     0.174 A 
HETATM   31  N   UNL     1      20.143  50.799  49.882  1.00  0.00    -0.228 NA
HETATM   32  C   UNL     1      18.816  50.970  49.563  1.00  0.00     0.054 A 
HETATM   33  C   UNL     1      18.089  52.244  49.816  1.00  0.00     0.090 C 
HETATM   34  C   UNL     1      18.205  49.889  48.962  1.00  0.00     0.039 A 
HETATM   35  C   UNL     1      16.567  52.024  49.647  1.00  0.00     0.276 C 
HETATM   36  N   UNL     1      16.213  51.213  48.458  1.00  0.00     0.088 N 
HETATM   37  C   UNL     1      16.771  49.846  48.561  1.00  0.00     0.317 C 
HETATM   38  H   UNL     1      16.625  51.656  47.636  1.00  0.00     0.316 HD
HETATM   39  S   UNL     1      19.316  48.612  48.789  1.00  0.00    -0.053 SA
ENDBRANCH  28  30
ENDBRANCH   5  26
TORSDOF 7
ENDMDL
MODEL 3
REMARK VINA RESULT:     -10.5      2.647     12.180
REMARK  7 active torsions:
REMARK  status: ('A' for Active; 'I' for Inactive)
REMARK    1  A    between atoms: O_2  and  C_3 
REMARK    2  A    between atoms: C_5  and  C_15 
REMARK    3  A    between atoms: C_8  and  C_9 
REMARK       I    between atoms: C_15  and  N_17 
REMARK    4  A    between atoms: N_17  and  C_18 
REMARK    5  A    between atoms: C_18  and  C_19 
REMARK    6  A    between atoms: C_23  and  C_25 
REMARK       I    between atoms: C_25  and  N_27 
REMARK    7  A    between atoms: N_27  and  C_28 
ROOT
HETATM    1  C   UNL     1      24.804  46.534  50.306  1.00  0.00    -0.040 A 
HETATM    2  C   UNL     1      23.891  45.556  49.884  1.00  0.00     0.009 A 
HETATM    3  C   UNL     1      23.845  44.314  50.514  1.00  0.00     0.002 A 
HETATM    4  C   UNL     1      24.714  44.034  51.567  1.00  0.00     0.017 A 
HETATM    5  C   UNL     1      25.646  44.988  51.995  1.00  0.00     0.033 A 
HETATM    6  C   UNL     1      25.684  46.240  51.362  1.00  0.00     0.026 A 
ENDROOT
BRANCH   1   7
HETATM    7  C   UNL     1      24.851  47.880  49.630  1.00  0.00     0.161 C 
BRANCH   7   8
HETATM    8  N   UNL     1      23.558  48.525  49.649  1.00  0.00    -0.353 N 
HETATM    9  C   UNL     1      23.153  49.361  48.631  1.00  0.00     0.252 C 
HETATM   10  O   UNL     1      23.847  49.625  47.655  1.00  0.00    -0.268 OA
HETATM   11  H   UNL     1      22.868  48.154  50.286  1.00  0.00     0.163 HD
BRANCH   9  12
HETATM   12  C   UNL     1      21.777  49.925  48.753  1.00  0.00     0.034 A 
HETATM   13  C   UNL     1      20.768  49.116  49.299  1.00  0.00     0.054 A 
HETATM   14  C   UNL     1      19.456  49.595  49.430  1.00  0.00     0.080 A 
HETATM   15  C   UNL     1      19.146  50.904  48.998  1.00  0.00     0.010 A 
HETATM   16  C   UNL     1      20.162  51.697  48.434  1.00  0.00     0.016 A 
HETATM   17  C   UNL     1      21.466  51.212  48.308  1.00  0.00     0.018 A 
BRANCH  14  18
HETATM   18  O   UNL     1      18.431  48.862  49.973  1.00  0.00    -0.355 OA
HETATM   19  C   UNL     1      18.497  48.538  51.356  1.00  0.00     0.210 C 
ENDBRANCH  14  18
BRANCH  15  20
HETATM   20  C   UNL     1      17.799  51.452  49.094  1.00  0.00     0.013 A 
HETATM   21  C   UNL     1      16.619  51.154  48.373  1.00  0.00     0.152 A 
HETATM   22  N   UNL     1      15.575  51.894  48.758  1.00  0.00    -0.187 NA
HETATM   23  N   UNL     1      16.078  52.656  49.742  1.00  0.00    -0.289 N 
HETATM   24  H   UNL     1      15.456  53.305  50.211  1.00  0.00     0.188 HD
HETATM   25  C   UNL     1      17.405  52.436  49.977  1.00  0.00     0.123 A 
ENDBRANCH  15  20
ENDBRANCH   9  12
ENDBRANCH   7   8
ENDBRANCH   1   7
BRANCH   5  26
HETATM   26  C   UNL     1      26.531  44.639  53.149  1.00  0.00     0.257 C 
HETATM   27  O   UNL     1      26.297  43.595  53.747  1.00  0.00    -0.267 OA
HETATM   28  N   UNL     1      27.547  45.530  53.412  1.00  0.00    -0.301 N 
HETATM   29  H   UNL     1      27.733  46.317  52.811  1.00  0.00     0.171 HD
BRANCH  28  30
HETATM   30  C   UNL     1      28.393  45.373  54.476  1.00  0.00     0.174 A 
HETATM   31  N   UNL     1      29.387  44.537  54.637  1.00  0.00    -0.228 NA
HETATM   32  C   UNL     1      29.939  44.733  55.882  1.00  0.00     0.054 A 
HETATM   33  C   UNL     1      31.112  43.958  56.369  1.00  0.00     0.090 C 
HETATM   34  C   UNL     1      29.351  45.721  56.644  1.00  0.00     0.039 A 
HETATM   35  C   UNL     1      31.295  44.178  57.890  1.00  0.00     0.276 C 
HETATM   36  N   UNL     1      31.136  45.591  58.307  1.00  0.00     0.088 N 
HETATM   37  C   UNL     1      29.767  46.079  58.028  1.00  0.00     0.317 C 
HETATM   38  H   UNL     1      31.786  46.160  57.763  1.00  0.00     0.316 HD
HETATM   39  S   UNL     1      28.063  46.431  55.787  1.00  0.00    -0.053 SA
ENDBRANCH  28  30
ENDBRANCH   5  26
TORSDOF 7
ENDMDL
MODEL 4
REMARK VINA RESULT:      -9.9      1.969      3.008
REMARK  7 active torsions:
REMARK  status: ('A' for Active; 'I' for Inactive)
REMARK    1  A    between atoms: O_2  and  C_3 
REMARK    2  A    between atoms: C_5  and  C_15 
REMARK    3  A    between atoms: C_8  and  C_9 
REMARK       I    between atoms: C_15  and  N_17 
REMARK    4  A    between atoms: N_17  and  C_18 
REMARK    5  A    between atoms: C_18  and  C_19 
REMARK    6  A    between atoms: C_23  and  C_25 
REMARK       I    between atoms: C_25  and  N_27 
REMARK    7  A    between atoms: N_27  and  C_28 
ROOT
HETATM    1  C   UNL     1      25.388  44.146  49.618  1.00  0.00    -0.040 A 
HETATM    2  C   UNL     1      24.511  43.142  50.055  1.00  0.00     0.009 A 
HETATM    3  C   UNL     1      23.136  43.368  50.084  1.00  0.00     0.002 A 
HETATM    4  C   UNL     1      22.624  44.601  49.684  1.00  0.00     0.017 A 
HETATM    5  C   UNL     1      23.481  45.625  49.260  1.00  0.00     0.033 A 
HETATM    6  C   UNL     1      24.864  45.390  49.225  1.00  0.00     0.026 A 
ENDROOT
BRANCH   1   7
HETATM    7  C   UNL     1      26.875  43.901  49.580  1.00  0.00     0.161 C 
BRANCH   7   8
HETATM    8  N   UNL     1      27.479  44.120  50.873  1.00  0.00    -0.353 N 
HETATM    9  C   UNL     1      28.007  43.082  51.609  1.00  0.00     0.252 C 
HETATM   10  O   UNL     1      27.997  41.914  51.236  1.00  0.00    -0.268 OA
HETATM   11  H   UNL     1      27.732  45.069  51.108  1.00  0.00     0.163 HD
BRANCH   9  12
HETATM   12  C   UNL     1      28.642  43.454  52.907  1.00  0.00     0.034 A 
HETATM   13  C   UNL     1      28.113  44.537  53.625  1.00  0.00     0.054 A 
HETATM   14  C   UNL     1      28.677  44.932  54.848  1.00  0.00     0.080 A 
HETATM   15  C   UNL     1      29.797  44.236  55.355  1.00  0.00     0.010 A 
HETATM   16  C   UNL     1      30.329  43.165  54.616  1.00  0.00     0.016 A 
HETATM   17  C   UNL     1      29.761  42.778  53.400  1.00  0.00     0.018 A 
BRANCH  14  18
HETATM   18  O   UNL     1      28.195  45.969  55.607  1.00  0.00    -0.355 OA
HETATM   19  C   UNL     1      27.578  47.061  54.937  1.00  0.00     0.210 C 
ENDBRANCH  14  18
BRANCH  15  20
HETATM   20  C   UNL     1      30.435  44.609  56.612  1.00  0.00     0.013 A 
HETATM   21  C   UNL     1      31.397  43.937  57.403  1.00  0.00     0.152 A 
HETATM   22  N   UNL     1      31.725  44.615  58.507  1.00  0.00    -0.187 NA
HETATM   23  N   UNL     1      30.990  45.733  58.417  1.00  0.00    -0.289 N 
HETATM   24  H   UNL     1      31.081  46.428  59.151  1.00  0.00     0.188 HD
HETATM   25  C   UNL     1      30.195  45.776  57.307  1.00  0.00     0.123 A 
ENDBRANCH  15  20
ENDBRANCH   9  12
ENDBRANCH   7   8
ENDBRANCH   1   7
BRANCH   5  26
HETATM   26  C   UNL     1      22.869  46.915  48.814  1.00  0.00     0.257 C 
HETATM   27  O   UNL     1      23.598  47.728  48.259  1.00  0.00    -0.267 OA
HETATM   28  N   UNL     1      21.520  47.048  49.058  1.00  0.00    -0.301 N 
HETATM   29  H   UNL     1      20.969  46.292  49.430  1.00  0.00     0.171 HD
BRANCH  28  30
HETATM   30  C   UNL     1      20.839  48.198  48.763  1.00  0.00     0.174 A 
HETATM   31  N   UNL     1      21.159  49.444  49.007  1.00  0.00    -0.228 NA
HETATM   32  C   UNL     1      20.154  50.261  48.543  1.00  0.00     0.054 A 
HETATM   33  C   UNL     1      20.220  51.745  48.640  1.00  0.00     0.090 C 
HETATM   34  C   UNL     1      19.088  49.617  47.951  1.00  0.00     0.039 A 
HETATM   35  C   UNL     1      18.833  52.356  48.330  1.00  0.00     0.276 C 
HETATM   36  N   UNL     1      18.160  51.736  47.164  1.00  0.00     0.088 N 
HETATM   37  C   UNL     1      17.883  50.303  47.409  1.00  0.00     0.317 C 
HETATM   38  H   UNL     1      18.789  51.799  46.362  1.00  0.00     0.316 HD
HETATM   39  S   UNL     1      19.338  47.934  47.973  1.00  0.00    -0.053 SA
ENDBRANCH  28  30
ENDBRANCH   5  26
TORSDOF 7
ENDMDL
MODEL 5
REMARK VINA RESULT:      -9.7      4.148      7.773
REMARK  7 active torsions:
REMARK  status: ('A' for Active; 'I' for Inactive)
REMARK    1  A    between atoms: O_2  and  C_3 
REMARK    2  A    between atoms: C_5  and  C_15 
REMARK    3  A    between atoms: C_8  and  C_9 
REMARK       I    between atoms: C_15  and  N_17 
REMARK    4  A    between atoms: N_17  and  C_18 
REMARK    5  A    between atoms: C_18  and  C_19 
REMARK    6  A    between atoms: C_23  and  C_25 
REMARK       I    between atoms: C_25  and  N_27 
REMARK    7  A    between atoms: N_27  and  C_28 
ROOT
HETATM    1  C   UNL     1      28.761  44.528  54.533  1.00  0.00    -0.040 A 
HETATM    2  C   UNL     1      29.114  45.244  55.687  1.00  0.00     0.009 A 
HETATM    3  C   UNL     1      28.508  46.466  55.973  1.00  0.00     0.002 A 
HETATM    4  C   UNL     1      27.550  46.989  55.105  1.00  0.00     0.017 A 
HETATM    5  C   UNL     1      27.194  46.301  53.938  1.00  0.00     0.033 A 
HETATM    6  C   UNL     1      27.801  45.068  53.659  1.00  0.00     0.026 A 
ENDROOT
BRANCH   1   7
HETATM    7  C   UNL     1      29.411  43.203  54.226  1.00  0.00     0.161 C 
BRANCH   7   8
HETATM    8  N   UNL     1      29.112  42.769  52.881  1.00  0.00    -0.353 N 
HETATM    9  C   UNL     1      28.307  41.678  52.636  1.00  0.00     0.252 C 
HETATM   10  O   UNL     1      27.799  40.999  53.522  1.00  0.00    -0.268 OA
HETATM   11  H   UNL     1      29.294  43.424  52.135  1.00  0.00     0.163 HD
BRANCH   9  12
HETATM   12  C   UNL     1      28.042  41.366  51.201  1.00  0.00     0.034 A 
HETATM   13  C   UNL     1      28.561  40.177  50.668  1.00  0.00     0.054 A 
HETATM   14  C   UNL     1      28.347  39.839  49.323  1.00  0.00     0.080 A 
HETATM   15  C   UNL     1      27.608  40.713  48.495  1.00  0.00     0.010 A 
HETATM   16  C   UNL     1      27.111  41.912  49.037  1.00  0.00     0.016 A 
HETATM   17  C   UNL     1      27.328  42.240  50.377  1.00  0.00     0.018 A 
BRANCH  14  18
HETATM   18  O   UNL     1      28.810  38.682  48.747  1.00  0.00    -0.355 OA
HETATM   19  C   UNL     1      30.024  38.129  49.237  1.00  0.00     0.210 C 
ENDBRANCH  14  18
BRANCH  15  20
HETATM   20  C   UNL     1      27.365  40.424  47.087  1.00  0.00     0.013 A 
HETATM   21  C   UNL     1      26.362  39.653  46.454  1.00  0.00     0.152 A 
HETATM   22  N   UNL     1      26.492  39.624  45.124  1.00  0.00    -0.187 NA
HETATM   23  N   UNL     1      27.567  40.394  44.898  1.00  0.00    -0.289 N 
HETATM   24  H   UNL     1      27.860  40.538  43.938  1.00  0.00     0.188 HD
HETATM   25  C   UNL     1      28.132  40.890  46.038  1.00  0.00     0.123 A 
ENDBRANCH  15  20
ENDBRANCH   9  12
ENDBRANCH   7   8
ENDBRANCH   1   7
BRANCH   5  26
HETATM   26  C   UNL     1      26.138  46.899  53.064  1.00  0.00     0.257 C 
HETATM   27  O   UNL     1      25.402  47.743  53.561  1.00  0.00    -0.267 OA
HETATM   28  N   UNL     1      26.116  46.447  51.764  1.00  0.00    -0.301 N 
HETATM   29  H   UNL     1      26.820  45.824  51.405  1.00  0.00     0.171 HD
BRANCH  28  30
HETATM   30  C   UNL     1      25.165  46.858  50.869  1.00  0.00     0.174 A 
HETATM   31  N   UNL     1      24.864  48.067  50.465  1.00  0.00    -0.228 NA
HETATM   32  C   UNL     1      23.821  47.991  49.571  1.00  0.00     0.054 A 
HETATM   33  C   UNL     1      23.254  49.193  48.899  1.00  0.00     0.090 C 
HETATM   34  C   UNL     1      23.351  46.721  49.311  1.00  0.00     0.039 A 
HETATM   35  C   UNL     1      21.916  48.830  48.213  1.00  0.00     0.276 C 
HETATM   36  N   UNL     1      21.956  47.542  47.480  1.00  0.00     0.088 N 
HETATM   37  C   UNL     1      22.212  46.413  48.402  1.00  0.00     0.317 C 
HETATM   38  H   UNL     1      22.726  47.579  46.811  1.00  0.00     0.316 HD
HETATM   39  S   UNL     1      24.231  45.577  50.212  1.00  0.00    -0.053 SA
ENDBRANCH  28  30
ENDBRANCH   5  26
TORSDOF 7
ENDMDL
MODEL 6
REMARK VINA RESULT:      -9.6      3.340     12.734
REMARK  7 active torsions:
REMARK  status: ('A' for Active; 'I' for Inactive)
REMARK    1  A    between atoms: O_2  and  C_3 
REMARK    2  A    between atoms: C_5  and  C_15 
REMARK    3  A    between atoms: C_8  and  C_9 
REMARK       I    between atoms: C_15  and  N_17 
REMARK    4  A    between atoms: N_17  and  C_18 
REMARK    5  A    between atoms: C_18  and  C_19 
REMARK    6  A    between atoms: C_23  and  C_25 
REMARK       I    between atoms: C_25  and  N_27 
REMARK    7  A    between atoms: N_27  and  C_28 
ROOT
HETATM    1  C   UNL     1      22.292  49.016  47.979  1.00  0.00    -0.040 A 
HETATM    2  C   UNL     1      22.819  50.244  47.553  1.00  0.00     0.009 A 
HETATM    3  C   UNL     1      24.114  50.619  47.908  1.00  0.00     0.002 A 
HETATM    4  C   UNL     1      24.891  49.773  48.697  1.00  0.00     0.017 A 
HETATM    5  C   UNL     1      24.380  48.549  49.149  1.00  0.00     0.033 A 
HETATM    6  C   UNL     1      23.080  48.174  48.783  1.00  0.00     0.026 A 
ENDROOT
BRANCH   1   7
HETATM    7  C   UNL     1      20.894  48.607  47.591  1.00  0.00     0.161 C 
BRANCH   7   8
HETATM    8  N   UNL     1      19.907  49.498  48.156  1.00  0.00    -0.353 N 
HETATM    9  C   UNL     1      19.164  50.348  47.366  1.00  0.00     0.252 C 
HETATM   10  O   UNL     1      19.286  50.420  46.148  1.00  0.00    -0.268 OA
HETATM   11  H   UNL     1      19.598  49.304  49.098  1.00  0.00     0.163 HD
BRANCH   9  12
HETATM   12  C   UNL     1      18.148  51.181  48.073  1.00  0.00     0.034 A 
HETATM   13  C   UNL     1      16.968  51.517  47.394  1.00  0.00     0.054 A 
HETATM   14  C   UNL     1      15.983  52.303  48.011  1.00  0.00     0.080 A 
HETATM   15  C   UNL     1      16.188  52.769  49.328  1.00  0.00     0.010 A 
HETATM   16  C   UNL     1      17.384  52.442  49.991  1.00  0.00     0.016 A 
HETATM   17  C   UNL     1      18.359  51.658  49.370  1.00  0.00     0.018 A 
BRANCH  14  18
HETATM   18  O   UNL     1      14.800  52.650  47.408  1.00  0.00    -0.355 OA
HETATM   19  C   UNL     1      14.850  53.507  46.274  1.00  0.00     0.210 C 
ENDBRANCH  14  18
BRANCH  15  20
HETATM   20  C   UNL     1      15.209  53.602  50.016  1.00  0.00     0.013 A 
HETATM   21  C   UNL     1      14.053  53.260  50.758  1.00  0.00     0.152 A 
HETATM   22  N   UNL     1      13.404  54.329  51.228  1.00  0.00    -0.187 NA
HETATM   23  N   UNL     1      14.152  55.359  50.806  1.00  0.00    -0.289 N 
HETATM   24  H   UNL     1      13.862  56.298  51.059  1.00  0.00     0.188 HD
HETATM   25  C   UNL     1      15.238  54.980  50.071  1.00  0.00     0.123 A 
ENDBRANCH  15  20
ENDBRANCH   9  12
ENDBRANCH   7   8
ENDBRANCH   1   7
BRANCH   5  26
HETATM   26  C   UNL     1      25.275  47.673  49.966  1.00  0.00     0.257 C 
HETATM   27  O   UNL     1      26.480  47.892  49.921  1.00  0.00    -0.267 OA
HETATM   28  N   UNL     1      24.640  46.708  50.716  1.00  0.00    -0.301 N 
HETATM   29  H   UNL     1      23.637  46.656  50.777  1.00  0.00     0.171 HD
BRANCH  28  30
HETATM   30  C   UNL     1      25.335  45.794  51.461  1.00  0.00     0.174 A 
HETATM   31  N   UNL     1      25.775  45.880  52.692  1.00  0.00    -0.228 NA
HETATM   32  C   UNL     1      26.438  44.718  53.011  1.00  0.00     0.054 A 
HETATM   33  C   UNL     1      27.037  44.481  54.353  1.00  0.00     0.090 C 
HETATM   34  C   UNL     1      26.487  43.768  52.013  1.00  0.00     0.039 A 
HETATM   35  C   UNL     1      27.969  43.247  54.303  1.00  0.00     0.276 C 
HETATM   36  N   UNL     1      27.397  42.103  53.553  1.00  0.00     0.088 N 
HETATM   37  C   UNL     1      27.178  42.455  52.132  1.00  0.00     0.317 C 
HETATM   38  H   UNL     1      26.489  41.876  53.961  1.00  0.00     0.316 HD
HETATM   39  S   UNL     1      25.685  44.337  50.624  1.00  0.00    -0.053 SA
ENDBRANCH  28  30
ENDBRANCH   5  26
TORSDOF 7
ENDMDL
MODEL 7
REMARK VINA RESULT:      -9.5      3.890     12.071
REMARK  7 active torsions:
REMARK  status: ('A' for Active; 'I' for Inactive)
REMARK    1  A    between atoms: O_2  and  C_3 
REMARK    2  A    between atoms: C_5  and  C_15 
REMARK    3  A    between atoms: C_8  and  C_9 
REMARK       I    between atoms: C_15  and  N_17 
REMARK    4  A    between atoms: N_17  and  C_18 
REMARK    5  A    between atoms: C_18  and  C_19 
REMARK    6  A    between atoms: C_23  and  C_25 
REMARK       I    between atoms: C_25  and  N_27 
REMARK    7  A    between atoms: N_27  and  C_28 
ROOT
HETATM    1  C   UNL     1      25.800  46.810  50.910  1.00  0.00    -0.040 A 
HETATM    2  C   UNL     1      25.630  47.422  52.161  1.00  0.00     0.009 A 
HETATM    3  C   UNL     1      25.847  46.702  53.334  1.00  0.00     0.002 A 
HETATM    4  C   UNL     1      26.229  45.363  53.269  1.00  0.00     0.017 A 
HETATM    5  C   UNL     1      26.389  44.726  52.032  1.00  0.00     0.033 A 
HETATM    6  C   UNL     1      26.176  45.457  50.854  1.00  0.00     0.026 A 
ENDROOT
BRANCH   1   7
HETATM    7  C   UNL     1      25.572  47.590  49.639  1.00  0.00     0.161 C 
BRANCH   7   8
HETATM    8  N   UNL     1      24.231  48.123  49.581  1.00  0.00    -0.353 N 
HETATM    9  C   UNL     1      23.954  49.315  48.948  1.00  0.00     0.252 C 
HETATM   10  O   UNL     1      24.809  50.007  48.404  1.00  0.00    -0.268 OA
HETATM   11  H   UNL     1      23.474  47.487  49.788  1.00  0.00     0.163 HD
BRANCH   9  12
HETATM   12  C   UNL     1      22.520  49.727  48.921  1.00  0.00     0.034 A 
HETATM   13  C   UNL     1      21.543  48.771  49.239  1.00  0.00     0.054 A 
HETATM   14  C   UNL     1      20.181  49.105  49.223  1.00  0.00     0.080 A 
HETATM   15  C   UNL     1      19.789  50.416  48.872  1.00  0.00     0.010 A 
HETATM   16  C   UNL     1      20.777  51.358  48.536  1.00  0.00     0.016 A 
HETATM   17  C   UNL     1      22.132  51.018  48.555  1.00  0.00     0.018 A 
BRANCH  14  18
HETATM   18  O   UNL     1      19.179  48.223  49.543  1.00  0.00    -0.355 OA
HETATM   19  C   UNL     1      18.988  47.091  48.704  1.00  0.00     0.210 C 
ENDBRANCH  14  18
BRANCH  15  20
HETATM   20  C   UNL     1      18.388  50.818  48.823  1.00  0.00     0.013 A 
HETATM   21  C   UNL     1      17.416  50.681  47.805  1.00  0.00     0.152 A 
HETATM   22  N   UNL     1      16.231  51.197  48.148  1.00  0.00    -0.187 NA
HETATM   23  N   UNL     1      16.435  51.647  49.395  1.00  0.00    -0.289 N 
HETATM   24  H   UNL     1      15.656  52.077  49.883  1.00  0.00     0.188 HD
HETATM   25  C   UNL     1      17.710  51.453  49.843  1.00  0.00     0.123 A 
ENDBRANCH  15  20
ENDBRANCH   9  12
ENDBRANCH   7   8
ENDBRANCH   1   7
BRANCH   5  26
HETATM   26  C   UNL     1      26.830  43.297  52.028  1.00  0.00     0.257 C 
HETATM   27  O   UNL     1      27.121  42.790  53.106  1.00  0.00    -0.267 OA
HETATM   28  N   UNL     1      26.843  42.681  50.797  1.00  0.00    -0.301 N 
HETATM   29  H   UNL     1      26.493  43.137  49.970  1.00  0.00     0.171 HD
BRANCH  28  30
HETATM   30  C   UNL     1      27.285  41.396  50.633  1.00  0.00     0.174 A 
HETATM   31  N   UNL     1      28.441  40.864  50.941  1.00  0.00    -0.228 NA
HETATM   32  C   UNL     1      28.435  39.539  50.570  1.00  0.00     0.054 A 
HETATM   33  C   UNL     1      29.595  38.637  50.808  1.00  0.00     0.090 C 
HETATM   34  C   UNL     1      27.269  39.089  49.989  1.00  0.00     0.039 A 
HETATM   35  C   UNL     1      29.412  37.322  50.012  1.00  0.00     0.276 C 
HETATM   36  N   UNL     1      28.038  36.772  50.087  1.00  0.00     0.088 N 
HETATM   37  C   UNL     1      27.057  37.703  49.487  1.00  0.00     0.317 C 
HETATM   38  H   UNL     1      27.794  36.654  51.071  1.00  0.00     0.316 HD
HETATM   39  S   UNL     1      26.137  40.356  49.893  1.00  0.00    -0.053 SA
ENDBRANCH  28  30
ENDBRANCH   5  26
TORSDOF 7
ENDMDL
MODEL 8
REMARK VINA RESULT:      -9.4      3.625      5.431
REMARK  7 active torsions:
REMARK  status: ('A' for Active; 'I' for Inactive)
REMARK    1  A    between atoms: O_2  and  C_3 
REMARK    2  A    between atoms: C_5  and  C_15 
REMARK    3  A    between atoms: C_8  and  C_9 
REMARK       I    between atoms: C_15  and  N_17 
REMARK    4  A    between atoms: N_17  and  C_18 
REMARK    5  A    between atoms: C_18  and  C_19 
REMARK    6  A    between atoms: C_23  and  C_25 
REMARK       I    between atoms: C_25  and  N_27 
REMARK    7  A    between atoms: N_27  and  C_28 
ROOT
HETATM    1  C   UNL     1      25.718  47.517  50.579  1.00  0.00    -0.040 A 
HETATM    2  C   UNL     1      26.837  47.973  49.867  1.00  0.00     0.009 A 
HETATM    3  C   UNL     1      26.692  48.914  48.849  1.00  0.00     0.002 A 
HETATM    4  C   UNL     1      25.427  49.403  48.528  1.00  0.00     0.017 A 
HETATM    5  C   UNL     1      24.292  48.950  49.214  1.00  0.00     0.033 A 
HETATM    6  C   UNL     1      24.445  48.009  50.242  1.00  0.00     0.026 A 
ENDROOT
BRANCH   1   7
HETATM    7  C   UNL     1      25.875  46.504  51.684  1.00  0.00     0.161 C 
BRANCH   7   8
HETATM    8  N   UNL     1      26.240  45.208  51.164  1.00  0.00    -0.353 N 
HETATM    9  C   UNL     1      27.110  44.378  51.837  1.00  0.00     0.252 C 
HETATM   10  O   UNL     1      27.638  44.673  52.904  1.00  0.00    -0.268 OA
HETATM   11  H   UNL     1      25.655  44.822  50.436  1.00  0.00     0.163 HD
BRANCH   9  12
HETATM   12  C   UNL     1      27.365  43.047  51.211  1.00  0.00     0.034 A 
HETATM   13  C   UNL     1      26.949  42.839  49.888  1.00  0.00     0.054 A 
HETATM   14  C   UNL     1      27.159  41.605  49.254  1.00  0.00     0.080 A 
HETATM   15  C   UNL     1      27.789  40.558  49.962  1.00  0.00     0.010 A 
HETATM   16  C   UNL     1      28.183  40.773  51.295  1.00  0.00     0.016 A 
HETATM   17  C   UNL     1      27.971  42.005  51.918  1.00  0.00     0.018 A 
BRANCH  14  18
HETATM   18  O   UNL     1      26.793  41.345  47.957  1.00  0.00    -0.355 OA
HETATM   19  C   UNL     1      25.407  41.329  47.641  1.00  0.00     0.210 C 
ENDBRANCH  14  18
BRANCH  15  20
HETATM   20  C   UNL     1      28.021  39.249  49.363  1.00  0.00     0.013 A 
HETATM   21  C   UNL     1      27.156  38.146  49.172  1.00  0.00     0.152 A 
HETATM   22  N   UNL     1      27.762  37.108  48.585  1.00  0.00    -0.187 NA
HETATM   23  N   UNL     1      29.011  37.551  48.380  1.00  0.00    -0.289 N 
HETATM   24  H   UNL     1      29.670  36.931  47.922  1.00  0.00     0.188 HD
HETATM   25  C   UNL     1      29.222  38.822  48.834  1.00  0.00     0.123 A 
ENDBRANCH  15  20
ENDBRANCH   9  12
ENDBRANCH   7   8
ENDBRANCH   1   7
BRANCH   5  26
HETATM   26  C   UNL     1      22.967  49.536  48.844  1.00  0.00     0.257 C 
HETATM   27  O   UNL     1      22.895  50.158  47.790  1.00  0.00    -0.267 OA
HETATM   28  N   UNL     1      21.941  49.293  49.729  1.00  0.00    -0.301 N 
HETATM   29  H   UNL     1      22.057  48.687  50.525  1.00  0.00     0.171 HD
BRANCH  28  30
HETATM   30  C   UNL     1      20.690  49.820  49.553  1.00  0.00     0.174 A 
HETATM   31  N   UNL     1      20.235  51.011  49.853  1.00  0.00    -0.228 NA
HETATM   32  C   UNL     1      18.905  51.080  49.509  1.00  0.00     0.054 A 
HETATM   33  C   UNL     1      18.093  52.314  49.695  1.00  0.00     0.090 C 
HETATM   34  C   UNL     1      18.375  49.936  48.951  1.00  0.00     0.039 A 
HETATM   35  C   UNL     1      16.591  51.988  49.517  1.00  0.00     0.276 C 
HETATM   36  N   UNL     1      16.310  51.103  48.362  1.00  0.00     0.088 N 
HETATM   37  C   UNL     1      16.953  49.782  48.535  1.00  0.00     0.317 C 
HETATM   38  H   UNL     1      16.704  51.534  47.525  1.00  0.00     0.316 HD
HETATM   39  S   UNL     1      19.568  48.728  48.851  1.00  0.00    -0.053 SA
ENDBRANCH  28  30
ENDBRANCH   5  26
TORSDOF 7
ENDMDL
MODEL 9
REMARK VINA RESULT:      -9.3      3.349     11.645
REMARK  7 active torsions:
REMARK  status: ('A' for Active; 'I' for Inactive)
REMARK    1  A    between atoms: O_2  and  C_3 
REMARK    2  A    between atoms: C_5  and  C_15 
REMARK    3  A    between atoms: C_8  and  C_9 
REMARK       I    between atoms: C_15  and  N_17 
REMARK    4  A    between atoms: N_17  and  C_18 
REMARK    5  A    between atoms: C_18  and  C_19 
REMARK    6  A    between atoms: C_23  and  C_25 
REMARK       I    between atoms: C_25  and  N_27 
REMARK    7  A    between atoms: N_27  and  C_28 
ROOT
HETATM    1  C   UNL     1      24.296  43.182  50.098  1.00  0.00    -0.040 A 
HETATM    2  C   UNL     1      25.206  42.912  49.065  1.00  0.00     0.009 A 
HETATM    3  C   UNL     1      26.578  42.927  49.311  1.00  0.00     0.002 A 
HETATM    4  C   UNL     1      27.054  43.217  50.589  1.00  0.00     0.017 A 
HETATM    5  C   UNL     1      26.164  43.507  51.632  1.00  0.00     0.033 A 
HETATM    6  C   UNL     1      24.785  43.484  51.381  1.00  0.00     0.026 A 
ENDROOT
BRANCH   1   7
HETATM    7  C   UNL     1      22.812  43.161  49.834  1.00  0.00     0.161 C 
BRANCH   7   8
HETATM    8  N   UNL     1      22.271  44.498  49.753  1.00  0.00    -0.353 N 
HETATM    9  C   UNL     1      21.997  45.093  48.541  1.00  0.00     0.252 C 
HETATM   10  O   UNL     1      22.195  44.550  47.459  1.00  0.00    -0.268 OA
HETATM   11  H   UNL     1      21.865  44.882  50.594  1.00  0.00     0.163 HD
BRANCH   9  12
HETATM   12  C   UNL     1      21.398  46.459  48.601  1.00  0.00     0.034 A 
HETATM   13  C   UNL     1      22.250  47.555  48.805  1.00  0.00     0.054 A 
HETATM   14  C   UNL     1      21.738  48.859  48.876  1.00  0.00     0.080 A 
HETATM   15  C   UNL     1      20.346  49.068  48.751  1.00  0.00     0.010 A 
HETATM   16  C   UNL     1      19.502  47.959  48.567  1.00  0.00     0.016 A 
HETATM   17  C   UNL     1      20.020  46.664  48.496  1.00  0.00     0.018 A 
BRANCH  14  18
HETATM   18  O   UNL     1      22.519  49.974  49.054  1.00  0.00    -0.355 OA
HETATM   19  C   UNL     1      23.434  50.323  48.023  1.00  0.00     0.210 C 
ENDBRANCH  14  18
BRANCH  15  20
HETATM   20  C   UNL     1      19.754  50.398  48.831  1.00  0.00     0.013 A 
HETATM   21  C   UNL     1      19.443  51.340  47.823  1.00  0.00     0.152 A 
HETATM   22  N   UNL     1      18.910  52.465  48.311  1.00  0.00    -0.187 NA
HETATM   23  N   UNL     1      18.860  52.239  49.632  1.00  0.00    -0.289 N 
HETATM   24  H   UNL     1      18.470  52.961  50.228  1.00  0.00     0.188 HD
HETATM   25  C   UNL     1      19.359  51.021  49.996  1.00  0.00     0.123 A 
ENDBRANCH  15  20
ENDBRANCH   9  12
ENDBRANCH   7   8
ENDBRANCH   1   7
BRANCH   5  26
HETATM   26  C   UNL     1      26.736  43.780  52.987  1.00  0.00     0.257 C 
HETATM   27  O   UNL     1      25.958  43.824  53.933  1.00  0.00    -0.267 OA
HETATM   28  N   UNL     1      28.103  43.935  53.036  1.00  0.00    -0.301 N 
HETATM   29  H   UNL     1      28.685  43.785  52.228  1.00  0.00     0.171 HD
BRANCH  28  30
HETATM   30  C   UNL     1      28.756  44.253  54.195  1.00  0.00     0.174 A 
HETATM   31  N   UNL     1      28.514  45.209  55.057  1.00  0.00    -0.228 NA
HETATM   32  C   UNL     1      29.451  45.152  56.062  1.00  0.00     0.054 A 
HETATM   33  C   UNL     1      29.440  46.087  57.220  1.00  0.00     0.090 C 
HETATM   34  C   UNL     1      30.388  44.148  55.946  1.00  0.00     0.039 A 
HETATM   35  C   UNL     1      30.774  45.980  57.997  1.00  0.00     0.276 C 
HETATM   36  N   UNL     1      31.232  44.584  58.197  1.00  0.00     0.088 N 
HETATM   37  C   UNL     1      31.507  43.923  56.902  1.00  0.00     0.317 C 
HETATM   38  H   UNL     1      30.483  44.066  58.659  1.00  0.00     0.316 HD
HETATM   39  S   UNL     1      30.101  43.242  54.534  1.00  0.00    -0.053 SA
ENDBRANCH  28  30
ENDBRANCH   5  26
TORSDOF 7
ENDMDL
MODEL 10
REMARK VINA RESULT:      -9.3      3.673     11.139
REMARK  7 active torsions:
REMARK  status: ('A' for Active; 'I' for Inactive)
REMARK    1  A    between atoms: O_2  and  C_3 
REMARK    2  A    between atoms: C_5  and  C_15 
REMARK    3  A    between atoms: C_8  and  C_9 
REMARK       I    between atoms: C_15  and  N_17 
REMARK    4  A    between atoms: N_17  and  C_18 
REMARK    5  A    between atoms: C_18  and  C_19 
REMARK    6  A    between atoms: C_23  and  C_25 
REMARK       I    between atoms: C_25  and  N_27 
REMARK    7  A    between atoms: N_27  and  C_28 
ROOT
HETATM    1  C   UNL     1      25.783  40.917  49.366  1.00  0.00    -0.040 A 
HETATM    2  C   UNL     1      26.594  40.156  48.511  1.00  0.00     0.009 A 
HETATM    3  C   UNL     1      27.902  39.838  48.875  1.00  0.00     0.002 A 
HETATM    4  C   UNL     1      28.413  40.282  50.093  1.00  0.00     0.017 A 
HETATM    5  C   UNL     1      27.627  41.057  50.956  1.00  0.00     0.033 A 
HETATM    6  C   UNL     1      26.310  41.369  50.588  1.00  0.00     0.026 A 
ENDROOT
BRANCH   1   7
HETATM    7  C   UNL     1      24.367  41.256  48.976  1.00  0.00     0.161 C 
BRANCH   7   8
HETATM    8  N   UNL     1      24.187  42.682  48.834  1.00  0.00    -0.353 N 
HETATM    9  C   UNL     1      23.485  43.417  49.765  1.00  0.00     0.252 C 
HETATM   10  O   UNL     1      22.961  42.927  50.759  1.00  0.00    -0.268 OA
HETATM   11  H   UNL     1      24.794  43.161  48.185  1.00  0.00     0.163 HD
BRANCH   9  12
HETATM   12  C   UNL     1      23.414  44.888  49.521  1.00  0.00     0.034 A 
HETATM   13  C   UNL     1      22.522  45.363  48.548  1.00  0.00     0.054 A 
HETATM   14  C   UNL     1      22.421  46.736  48.276  1.00  0.00     0.080 A 
HETATM   15  C   UNL     1      23.234  47.648  48.984  1.00  0.00     0.010 A 
HETATM   16  C   UNL     1      24.138  47.157  49.943  1.00  0.00     0.016 A 
HETATM   17  C   UNL     1      24.232  45.789  50.208  1.00  0.00     0.018 A 
BRANCH  14  18
HETATM   18  O   UNL     1      21.555  47.265  47.352  1.00  0.00    -0.355 OA
HETATM   19  C   UNL     1      21.089  46.420  46.308  1.00  0.00     0.210 C 
ENDBRANCH  14  18
BRANCH  15  20
HETATM   20  C   UNL     1      23.185  49.084  48.735  1.00  0.00     0.013 A 
HETATM   21  C   UNL     1      22.229  50.060  49.103  1.00  0.00     0.152 A 
HETATM   22  N   UNL     1      22.545  51.284  48.669  1.00  0.00    -0.187 NA
HETATM   23  N   UNL     1      23.715  51.100  48.039  1.00  0.00    -0.289 N 
HETATM   24  H   UNL     1      24.172  51.908  47.630  1.00  0.00     0.188 HD
HETATM   25  C   UNL     1      24.138  49.801  48.043  1.00  0.00     0.123 A 
ENDBRANCH  15  20
ENDBRANCH   9  12
ENDBRANCH   7   8
ENDBRANCH   1   7
BRANCH   5  26
HETATM   26  C   UNL     1      28.223  41.477  52.262  1.00  0.00     0.257 C 
HETATM   27  O   UNL     1      28.359  40.618  53.126  1.00  0.00    -0.267 OA
HETATM   28  N   UNL     1      28.583  42.803  52.353  1.00  0.00    -0.301 N 
HETATM   29  H   UNL     1      28.531  43.424  51.562  1.00  0.00     0.171 HD
BRANCH  28  30
HETATM   30  C   UNL     1      29.081  43.342  53.508  1.00  0.00     0.174 A 
HETATM   31  N   UNL     1      30.084  42.947  54.251  1.00  0.00    -0.228 NA
HETATM   32  C   UNL     1      30.200  43.792  55.330  1.00  0.00     0.054 A 
HETATM   33  C   UNL     1      31.265  43.636  56.359  1.00  0.00     0.090 C 
HETATM   34  C   UNL     1      29.280  44.818  55.384  1.00  0.00     0.039 A 
HETATM   35  C   UNL     1      30.947  44.522  57.586  1.00  0.00     0.276 C 
HETATM   36  N   UNL     1      30.478  45.882  57.229  1.00  0.00     0.088 N 
HETATM   37  C   UNL     1      29.205  45.827  56.477  1.00  0.00     0.317 C 
HETATM   38  H   UNL     1      31.179  46.312  56.624  1.00  0.00     0.316 HD
HETATM   39  S   UNL     1      28.229  44.730  54.050  1.00  0.00    -0.053 SA
ENDBRANCH  28  30
ENDBRANCH   5  26
TORSDOF 7
ENDMDL
