MODEL 1
REMARK VINA RESULT:      -9.6      0.000      0.000
REMARK  7 active torsions:
REMARK  status: ('A' for Active; 'I' for Inactive)
REMARK    1  A    between atoms: O_2  and  C_3 
REMARK    2  A    between atoms: C_5  and  C_6 
REMARK    3  A    between atoms: C_6  and  O_7 
REMARK    4  A    between atoms: C_6  and  C_8 
REMARK    5  A    between atoms: C_8  and  N_9 
REMARK       I    between atoms: N_9  and  C_10 
REMARK    6  A    between atoms: C_10  and  C_11 
REMARK    7  A    between atoms: C_12  and  C_13 
ROOT
HETATM    1  C   UNL     1      26.812  43.050  52.801  1.00  0.00     0.089 C 
HETATM    2  C   UNL     1      28.148  42.291  52.983  1.00  0.00     0.068 C 
HETATM    3  C   UNL     1      29.310  43.268  53.199  1.00  0.00     0.013 C 
HETATM    4  C   UNL     1      29.063  44.123  54.444  1.00  0.00     0.001 C 
HETATM    5  C   UNL     1      27.695  44.804  54.434  1.00  0.00     0.001 C 
HETATM    6  C   UNL     1      26.552  43.834  54.109  1.00  0.00     0.015 C 
ENDROOT
BRANCH   1   7
HETATM    7  C   UNL     1      26.684  44.027  51.610  1.00  0.00     0.222 C 
HETATM    8  N   UNL     1      25.419  44.407  51.246  1.00  0.00    -0.358 N 
HETATM    9  H   UNL     1      24.696  44.281  51.958  1.00  0.00     0.162 HD
HETATM   10  O   UNL     1      27.669  44.494  51.040  1.00  0.00    -0.273 OA
BRANCH   8  11
HETATM   11  C   UNL     1      25.172  45.471  50.279  1.00  0.00     0.159 C 
BRANCH  11  12
HETATM   12  C   UNL     1      25.062  46.881  50.905  1.00  0.00     0.169 C 
BRANCH  12  13
HETATM   13  C   UNL     1      25.530  47.953  49.937  1.00  0.00    -0.025 A 
HETATM   14  C   UNL     1      24.583  48.625  49.137  1.00  0.00     0.046 A 
HETATM   15  C   UNL     1      24.981  49.600  48.219  1.00  0.00     0.068 A 
HETATM   16  C   UNL     1      26.334  49.922  48.108  1.00  0.00     0.037 A 
HETATM   17  C   UNL     1      27.283  49.278  48.901  1.00  0.00     0.003 A 
HETATM   18  C   UNL     1      26.882  48.298  49.807  1.00  0.00     0.010 A 
BRANCH  15  19
HETATM   19  O   UNL     1      24.157  50.301  47.381  1.00  0.00    -0.356 OA
HETATM   20  C   UNL     1      22.963  50.828  47.944  1.00  0.00     0.210 C 
ENDBRANCH  15  19
ENDBRANCH  12  13
BRANCH  12  21
HETATM   21  O   UNL     1      25.837  46.908  52.113  1.00  0.00    -0.389 OA
HETATM   22  H   UNL     1      25.765  46.004  52.466  1.00  0.00     0.210 HD
ENDBRANCH  12  21
ENDBRANCH  11  12
ENDBRANCH   8  11
ENDBRANCH   1   7
BRANCH   2  23
HETATM   23  C   UNL     1      28.433  41.250  51.938  1.00  0.00     0.110 A 
HETATM   24  N   UNL     1      27.981  41.220  50.699  1.00  0.00    -0.233 NA
HETATM   25  C   UNL     1      28.437  40.042  50.157  1.00  0.00     0.087 A 
HETATM   26  C   UNL     1      29.196  39.337  51.081  1.00  0.00     0.062 A 
HETATM   27  C   UNL     1      28.232  39.511  48.877  1.00  0.00     0.057 A 
HETATM   28  N   UNL     1      29.181  40.125  52.204  1.00  0.00    -0.342 N 
HETATM   29  C   UNL     1      29.786  38.102  50.808  1.00  0.00     0.034 A 
HETATM   30  H   UNL     1      29.627  39.906  53.083  1.00  0.00     0.167 HD
HETATM   31  C   UNL     1      29.573  37.580  49.525  1.00  0.00     0.026 A 
HETATM   32  C   UNL     1      28.810  38.273  48.582  1.00  0.00     0.036 A 
HETATM   33 CL   UNL     1      28.573  37.586  47.019  1.00  0.00    -0.084 Cl
ENDBRANCH   2  23
TORSDOF 7
ENDMDL
MODEL 2
REMARK VINA RESULT:      -9.3     11.523     13.597
REMARK  7 active torsions:
REMARK  status: ('A' for Active; 'I' for Inactive)
REMARK    1  A    between atoms: O_2  and  C_3 
REMARK    2  A    between atoms: C_5  and  C_6 
REMARK    3  A    between atoms: C_6  and  O_7 
REMARK    4  A    between atoms: C_6  and  C_8 
REMARK    5  A    between atoms: C_8  and  N_9 
REMARK       I    between atoms: N_9  and  C_10 
REMARK    6  A    between atoms: C_10  and  C_11 
REMARK    7  A    between atoms: C_12  and  C_13 
ROOT
HETATM    1  C   UNL     1      30.788  47.971  39.895  1.00  0.00     0.089 C 
HETATM    2  C   UNL     1      31.008  48.303  41.391  1.00  0.00     0.068 C 
HETATM    3  C   UNL     1      29.744  48.910  42.010  1.00  0.00     0.013 C 
HETATM    4  C   UNL     1      28.572  47.933  41.896  1.00  0.00     0.001 C 
HETATM    5  C   UNL     1      28.360  47.424  40.472  1.00  0.00     0.001 C 
HETATM    6  C   UNL     1      29.656  46.918  39.824  1.00  0.00     0.015 C 
ENDROOT
BRANCH   1   7
HETATM    7  C   UNL     1      30.439  49.130  38.934  1.00  0.00     0.222 C 
HETATM    8  N   UNL     1      29.118  49.471  38.818  1.00  0.00    -0.358 N 
HETATM    9  H   UNL     1      28.513  49.165  39.583  1.00  0.00     0.162 HD
HETATM   10  O   UNL     1      31.308  49.764  38.334  1.00  0.00    -0.273 OA
BRANCH   8  11
HETATM   11  C   UNL     1      28.679  50.666  38.106  1.00  0.00     0.159 C 
BRANCH  11  12
HETATM   12  C   UNL     1      28.077  51.759  39.019  1.00  0.00     0.169 C 
BRANCH  12  13
HETATM   13  C   UNL     1      29.091  52.247  40.038  1.00  0.00    -0.025 A 
HETATM   14  C   UNL     1      30.342  52.726  39.598  1.00  0.00     0.046 A 
HETATM   15  C   UNL     1      31.307  53.160  40.509  1.00  0.00     0.068 A 
HETATM   16  C   UNL     1      31.018  53.135  41.874  1.00  0.00     0.037 A 
HETATM   17  C   UNL     1      29.781  52.678  42.327  1.00  0.00     0.003 A 
HETATM   18  C   UNL     1      28.826  52.234  41.415  1.00  0.00     0.010 A 
BRANCH  15  19
HETATM   19  O   UNL     1      32.557  53.625  40.199  1.00  0.00    -0.356 OA
HETATM   20  C   UNL     1      33.398  52.759  39.449  1.00  0.00     0.210 C 
ENDBRANCH  15  19
ENDBRANCH  12  13
BRANCH  12  21
HETATM   21  O   UNL     1      26.914  51.225  39.669  1.00  0.00    -0.389 OA
HETATM   22  H   UNL     1      26.385  52.010  39.900  1.00  0.00     0.210 HD
ENDBRANCH  12  21
ENDBRANCH  11  12
ENDBRANCH   8  11
ENDBRANCH   1   7
BRANCH   2  23
HETATM   23  C   UNL     1      32.253  49.088  41.689  1.00  0.00     0.110 A 
HETATM   24  N   UNL     1      32.403  50.023  42.608  1.00  0.00    -0.233 NA
HETATM   25  C   UNL     1      33.679  50.510  42.449  1.00  0.00     0.087 A 
HETATM   26  C   UNL     1      34.331  49.851  41.415  1.00  0.00     0.062 A 
HETATM   27  C   UNL     1      34.341  51.523  43.153  1.00  0.00     0.057 A 
HETATM   28  N   UNL     1      33.406  48.951  40.949  1.00  0.00    -0.342 N 
HETATM   29  C   UNL     1      35.640  50.140  41.025  1.00  0.00     0.034 A 
HETATM   30  H   UNL     1      33.542  48.311  40.180  1.00  0.00     0.167 HD
HETATM   31  C   UNL     1      36.292  51.156  41.737  1.00  0.00     0.026 A 
HETATM   32  C   UNL     1      35.652  51.832  42.778  1.00  0.00     0.036 A 
HETATM   33 CL   UNL     1      36.496  53.078  43.619  1.00  0.00    -0.084 Cl
ENDBRANCH   2  23
TORSDOF 7
ENDMDL
MODEL 3
REMARK VINA RESULT:      -9.3      3.527      7.474
REMARK  7 active torsions:
REMARK  status: ('A' for Active; 'I' for Inactive)
REMARK    1  A    between atoms: O_2  and  C_3 
REMARK    2  A    between atoms: C_5  and  C_6 
REMARK    3  A    between atoms: C_6  and  O_7 
REMARK    4  A    between atoms: C_6  and  C_8 
REMARK    5  A    between atoms: C_8  and  N_9 
REMARK       I    between atoms: N_9  and  C_10 
REMARK    6  A    between atoms: C_10  and  C_11 
REMARK    7  A    between atoms: C_12  and  C_13 
ROOT
HETATM    1  C   UNL     1      26.405  40.468  50.283  1.00  0.00     0.089 C 
HETATM    2  C   UNL     1      26.334  41.345  49.010  1.00  0.00     0.068 C 
HETATM    3  C   UNL     1      27.599  41.181  48.159  1.00  0.00     0.013 C 
HETATM    4  C   UNL     1      27.769  39.720  47.734  1.00  0.00     0.001 C 
HETATM    5  C   UNL     1      27.704  38.749  48.912  1.00  0.00     0.001 C 
HETATM    6  C   UNL     1      26.490  38.995  49.817  1.00  0.00     0.015 C 
ENDROOT
BRANCH   1   7
HETATM    7  C   UNL     1      27.549  40.731  51.288  1.00  0.00     0.222 C 
HETATM    8  N   UNL     1      27.301  41.620  52.300  1.00  0.00    -0.358 N 
HETATM    9  H   UNL     1      26.315  41.795  52.503  1.00  0.00     0.162 HD
HETATM   10  O   UNL     1      28.624  40.133  51.225  1.00  0.00    -0.273 OA
BRANCH   8  11
HETATM   11  C   UNL     1      28.218  41.803  53.420  1.00  0.00     0.159 C 
BRANCH  11  12
HETATM   12  C   UNL     1      29.336  42.838  53.157  1.00  0.00     0.169 C 
BRANCH  12  13
HETATM   13  C   UNL     1      29.621  43.670  54.396  1.00  0.00    -0.025 A 
HETATM   14  C   UNL     1      28.775  44.752  54.714  1.00  0.00     0.046 A 
HETATM   15  C   UNL     1      29.022  45.552  55.832  1.00  0.00     0.068 A 
HETATM   16  C   UNL     1      30.112  45.262  56.653  1.00  0.00     0.037 A 
HETATM   17  C   UNL     1      30.951  44.187  56.361  1.00  0.00     0.003 A 
HETATM   18  C   UNL     1      30.709  43.399  55.238  1.00  0.00     0.010 A 
BRANCH  15  19
HETATM   19  O   UNL     1      28.282  46.634  56.227  1.00  0.00    -0.356 OA
HETATM   20  C   UNL     1      27.674  47.407  55.201  1.00  0.00     0.210 C 
ENDBRANCH  15  19
ENDBRANCH  12  13
BRANCH  12  21
HETATM   21  O   UNL     1      28.940  43.673  52.060  1.00  0.00    -0.389 OA
HETATM   22  H   UNL     1      28.252  44.252  52.433  1.00  0.00     0.210 HD
ENDBRANCH  12  21
ENDBRANCH  11  12
ENDBRANCH   8  11
ENDBRANCH   1   7
BRANCH   2  23
HETATM   23  C   UNL     1      25.960  42.781  49.248  1.00  0.00     0.110 A 
HETATM   24  N   UNL     1      24.762  43.321  49.131  1.00  0.00    -0.233 NA
HETATM   25  C   UNL     1      24.929  44.666  49.365  1.00  0.00     0.087 A 
HETATM   26  C   UNL     1      26.258  44.955  49.642  1.00  0.00     0.062 A 
HETATM   27  C   UNL     1      23.982  45.697  49.348  1.00  0.00     0.057 A 
HETATM   28  N   UNL     1      26.893  43.742  49.564  1.00  0.00    -0.342 N 
HETATM   29  C   UNL     1      26.722  46.243  49.916  1.00  0.00     0.034 A 
HETATM   30  H   UNL     1      27.882  43.585  49.697  1.00  0.00     0.167 HD
HETATM   31  C   UNL     1      25.765  47.267  49.896  1.00  0.00     0.026 A 
HETATM   32  C   UNL     1      24.424  46.996  49.616  1.00  0.00     0.036 A 
HETATM   33 CL   UNL     1      23.288  48.292  49.598  1.00  0.00    -0.084 Cl
ENDBRANCH   2  23
TORSDOF 7
ENDMDL
MODEL 4
REMARK VINA RESULT:      -9.2     11.225     13.107
REMARK  7 active torsions:
REMARK  status: ('A' for Active; 'I' for Inactive)
REMARK    1  A    between atoms: O_2  and  C_3 
REMARK    2  A    between atoms: C_5  and  C_6 
REMARK    3  A    between atoms: C_6  and  O_7 
REMARK    4  A    between atoms: C_6  and  C_8 
REMARK    5  A    between atoms: C_8  and  N_9 
REMARK       I    between atoms: N_9  and  C_10 
REMARK    6  A    between atoms: C_10  and  C_11 
REMARK    7  A    between atoms: C_12  and  C_13 
ROOT
HETATM    1  C   UNL     1      28.949  47.166  38.206  1.00  0.00     0.089 C 
HETATM    2  C   UNL     1      29.516  46.520  39.494  1.00  0.00     0.068 C 
HETATM    3  C   UNL     1      28.409  45.814  40.287  1.00  0.00     0.013 C 
HETATM    4  C   UNL     1      27.762  44.718  39.438  1.00  0.00     0.001 C 
HETATM    5  C   UNL     1      27.297  45.222  38.073  1.00  0.00     0.001 C 
HETATM    6  C   UNL     1      28.380  46.020  37.336  1.00  0.00     0.015 C 
ENDROOT
BRANCH   1   7
HETATM    7  C   UNL     1      27.863  48.255  38.354  1.00  0.00     0.222 C 
HETATM    8  N   UNL     1      27.831  48.952  39.533  1.00  0.00    -0.358 N 
HETATM    9  H   UNL     1      28.692  48.930  40.084  1.00  0.00     0.162 HD
HETATM   10  O   UNL     1      27.088  48.533  37.438  1.00  0.00    -0.273 OA
BRANCH   8  11
HETATM   11  C   UNL     1      26.993  50.132  39.720  1.00  0.00     0.159 C 
BRANCH  11  12
HETATM   12  C   UNL     1      27.363  50.977  40.961  1.00  0.00     0.169 C 
BRANCH  12  13
HETATM   13  C   UNL     1      28.713  51.650  40.789  1.00  0.00    -0.025 A 
HETATM   14  C   UNL     1      29.506  51.335  39.667  1.00  0.00     0.046 A 
HETATM   15  C   UNL     1      30.764  51.918  39.490  1.00  0.00     0.068 A 
HETATM   16  C   UNL     1      31.229  52.837  40.430  1.00  0.00     0.037 A 
HETATM   17  C   UNL     1      30.452  53.172  41.538  1.00  0.00     0.003 A 
HETATM   18  C   UNL     1      29.203  52.579  41.718  1.00  0.00     0.010 A 
BRANCH  15  19
HETATM   19  O   UNL     1      31.625  51.675  38.454  1.00  0.00    -0.356 OA
HETATM   20  C   UNL     1      33.005  51.913  38.695  1.00  0.00     0.210 C 
ENDBRANCH  15  19
ENDBRANCH  12  13
BRANCH  12  21
HETATM   21  O   UNL     1      27.359  50.125  42.115  1.00  0.00    -0.389 OA
HETATM   22  H   UNL     1      28.118  49.530  41.978  1.00  0.00     0.210 HD
ENDBRANCH  12  21
ENDBRANCH  11  12
ENDBRANCH   8  11
ENDBRANCH   1   7
BRANCH   2  23
HETATM   23  C   UNL     1      30.366  47.428  40.337  1.00  0.00     0.110 A 
HETATM   24  N   UNL     1      29.985  48.120  41.394  1.00  0.00    -0.233 NA
HETATM   25  C   UNL     1      31.078  48.861  41.775  1.00  0.00     0.087 A 
HETATM   26  C   UNL     1      32.158  48.610  40.939  1.00  0.00     0.062 A 
HETATM   27  C   UNL     1      31.212  49.776  42.827  1.00  0.00     0.057 A 
HETATM   28  N   UNL     1      31.682  47.695  40.035  1.00  0.00    -0.342 N 
HETATM   29  C   UNL     1      33.402  49.226  41.086  1.00  0.00     0.034 A 
HETATM   30  H   UNL     1      32.204  47.300  39.266  1.00  0.00     0.167 HD
HETATM   31  C   UNL     1      33.524  50.140  42.141  1.00  0.00     0.026 A 
HETATM   32  C   UNL     1      32.449  50.408  42.992  1.00  0.00     0.036 A 
HETATM   33 CL   UNL     1      32.648  51.545  44.271  1.00  0.00    -0.084 Cl
ENDBRANCH   2  23
TORSDOF 7
ENDMDL
MODEL 5
REMARK VINA RESULT:      -9.1      7.111     10.629
REMARK  7 active torsions:
REMARK  status: ('A' for Active; 'I' for Inactive)
REMARK    1  A    between atoms: O_2  and  C_3 
REMARK    2  A    between atoms: C_5  and  C_6 
REMARK    3  A    between atoms: C_6  and  O_7 
REMARK    4  A    between atoms: C_6  and  C_8 
REMARK    5  A    between atoms: C_8  and  N_9 
REMARK       I    between atoms: N_9  and  C_10 
REMARK    6  A    between atoms: C_10  and  C_11 
REMARK    7  A    between atoms: C_12  and  C_13 
ROOT
HETATM    1  C   UNL     1      19.753  50.952  50.040  1.00  0.00     0.089 C 
HETATM    2  C   UNL     1      20.659  51.141  48.800  1.00  0.00     0.068 C 
HETATM    3  C   UNL     1      19.874  50.901  47.504  1.00  0.00     0.013 C 
HETATM    4  C   UNL     1      18.701  51.878  47.403  1.00  0.00     0.001 C 
HETATM    5  C   UNL     1      17.820  51.878  48.651  1.00  0.00     0.001 C 
HETATM    6  C   UNL     1      18.629  52.011  49.948  1.00  0.00     0.015 C 
ENDROOT
BRANCH   1   7
HETATM    7  C   UNL     1      19.105  49.568  50.266  1.00  0.00     0.222 C 
HETATM    8  N   UNL     1      19.116  48.692  49.212  1.00  0.00    -0.358 N 
HETATM    9  H   UNL     1      19.808  48.884  48.485  1.00  0.00     0.162 HD
HETATM   10  O   UNL     1      18.643  49.233  51.357  1.00  0.00    -0.273 OA
BRANCH   8  11
HETATM   11  C   UNL     1      18.721  47.295  49.355  1.00  0.00     0.159 C 
BRANCH  11  12
HETATM   12  C   UNL     1      17.966  46.725  48.132  1.00  0.00     0.169 C 
BRANCH  12  13
HETATM   13  C   UNL     1      17.131  47.795  47.450  1.00  0.00    -0.025 A 
HETATM   14  C   UNL     1      17.481  48.226  46.154  1.00  0.00     0.046 A 
HETATM   15  C   UNL     1      16.749  49.226  45.508  1.00  0.00     0.068 A 
HETATM   16  C   UNL     1      15.647  49.789  46.151  1.00  0.00     0.037 A 
HETATM   17  C   UNL     1      15.279  49.366  47.427  1.00  0.00     0.003 A 
HETATM   18  C   UNL     1      16.019  48.377  48.074  1.00  0.00     0.010 A 
BRANCH  15  19
HETATM   19  O   UNL     1      17.006  49.734  44.263  1.00  0.00    -0.356 OA
HETATM   20  C   UNL     1      18.183  50.516  44.117  1.00  0.00     0.210 C 
ENDBRANCH  15  19
ENDBRANCH  12  13
BRANCH  12  21
HETATM   21  O   UNL     1      17.143  45.634  48.567  1.00  0.00    -0.389 OA
HETATM   22  H   UNL     1      16.988  45.110  47.761  1.00  0.00     0.210 HD
ENDBRANCH  12  21
ENDBRANCH  11  12
ENDBRANCH   8  11
ENDBRANCH   1   7
BRANCH   2  23
HETATM   23  C   UNL     1      21.966  50.401  48.850  1.00  0.00     0.110 A 
HETATM   24  N   UNL     1      22.184  49.206  49.365  1.00  0.00    -0.233 NA
HETATM   25  C   UNL     1      23.537  48.988  49.256  1.00  0.00     0.087 A 
HETATM   26  C   UNL     1      24.162  50.070  48.650  1.00  0.00     0.062 A 
HETATM   27  C   UNL     1      24.298  47.885  49.663  1.00  0.00     0.057 A 
HETATM   28  N   UNL     1      23.143  50.954  48.400  1.00  0.00    -0.342 N 
HETATM   29  C   UNL     1      25.536  50.128  48.412  1.00  0.00     0.034 A 
HETATM   30  H   UNL     1      23.244  51.864  47.975  1.00  0.00     0.167 HD
HETATM   31  C   UNL     1      26.287  49.019  48.824  1.00  0.00     0.026 A 
HETATM   32  C   UNL     1      25.677  47.922  49.438  1.00  0.00     0.036 A 
HETATM   33 CL   UNL     1      26.647  46.586  49.931  1.00  0.00    -0.084 Cl
ENDBRANCH   2  23
TORSDOF 7
ENDMDL
MODEL 6
REMARK VINA RESULT:      -9.0     11.557     13.532
REMARK  7 active torsions:
REMARK  status: ('A' for Active; 'I' for Inactive)
REMARK    1  A    between atoms: O_2  and  C_3 
REMARK    2  A    between atoms: C_5  and  C_6 
REMARK    3  A    between atoms: C_6  and  O_7 
REMARK    4  A    between atoms: C_6  and  C_8 
REMARK    5  A    between atoms: C_8  and  N_9 
REMARK       I    between atoms: N_9  and  C_10 
REMARK    6  A    between atoms: C_10  and  C_11 
REMARK    7  A    between atoms: C_12  and  C_13 
ROOT
HETATM    1  C   UNL     1      28.971  51.417  39.023  1.00  0.00     0.089 C 
HETATM    2  C   UNL     1      27.977  51.323  40.206  1.00  0.00     0.068 C 
HETATM    3  C   UNL     1      28.700  51.500  41.546  1.00  0.00     0.013 C 
HETATM    4  C   UNL     1      29.394  52.863  41.601  1.00  0.00     0.001 C 
HETATM    5  C   UNL     1      30.293  53.120  40.393  1.00  0.00     0.001 C 
HETATM    6  C   UNL     1      29.590  52.834  39.059  1.00  0.00     0.015 C 
ENDROOT
BRANCH   1   7
HETATM    7  C   UNL     1      30.118  50.383  38.950  1.00  0.00     0.222 C 
HETATM    8  N   UNL     1      30.163  49.428  39.931  1.00  0.00    -0.358 N 
HETATM    9  H   UNL     1      29.288  49.272  40.438  1.00  0.00     0.162 HD
HETATM   10  O   UNL     1      30.932  50.374  38.026  1.00  0.00    -0.273 OA
BRANCH   8  11
HETATM   11  C   UNL     1      31.066  48.284  39.867  1.00  0.00     0.159 C 
BRANCH  11  12
HETATM   12  C   UNL     1      31.823  48.002  41.186  1.00  0.00     0.169 C 
BRANCH  12  13
HETATM   13  C   UNL     1      32.284  49.291  41.844  1.00  0.00    -0.025 A 
HETATM   14  C   UNL     1      33.318  50.042  41.249  1.00  0.00     0.046 A 
HETATM   15  C   UNL     1      33.783  51.219  41.840  1.00  0.00     0.068 A 
HETATM   16  C   UNL     1      33.200  51.664  43.027  1.00  0.00     0.037 A 
HETATM   17  C   UNL     1      32.167  50.941  43.623  1.00  0.00     0.003 A 
HETATM   18  C   UNL     1      31.715  49.761  43.036  1.00  0.00     0.010 A 
BRANCH  15  19
HETATM   19  O   UNL     1      34.788  52.017  41.364  1.00  0.00    -0.356 OA
HETATM   20  C   UNL     1      36.009  52.017  42.091  1.00  0.00     0.210 C 
ENDBRANCH  15  19
ENDBRANCH  12  13
BRANCH  12  21
HETATM   21  O   UNL     1      32.938  47.145  40.902  1.00  0.00    -0.389 OA
HETATM   22  H   UNL     1      33.491  47.196  41.701  1.00  0.00     0.210 HD
ENDBRANCH  12  21
ENDBRANCH  11  12
ENDBRANCH   8  11
ENDBRANCH   1   7
BRANCH   2  23
HETATM   23  C   UNL     1      27.065  50.130  40.175  1.00  0.00     0.110 A 
HETATM   24  N   UNL     1      27.305  48.932  40.674  1.00  0.00    -0.233 NA
HETATM   25  C   UNL     1      26.223  48.155  40.330  1.00  0.00     0.087 A 
HETATM   26  C   UNL     1      25.294  48.896  39.612  1.00  0.00     0.062 A 
HETATM   27  C   UNL     1      25.977  46.803  40.596  1.00  0.00     0.057 A 
HETATM   28  N   UNL     1      25.850  50.148  39.528  1.00  0.00    -0.342 N 
HETATM   29  C   UNL     1      24.097  48.365  39.129  1.00  0.00     0.034 A 
HETATM   30  H   UNL     1      25.444  50.941  39.054  1.00  0.00     0.167 HD
HETATM   31  C   UNL     1      23.862  47.011  39.401  1.00  0.00     0.026 A 
HETATM   32  C   UNL     1      24.786  46.248  40.119  1.00  0.00     0.036 A 
HETATM   33 CL   UNL     1      24.452  44.584  40.421  1.00  0.00    -0.084 Cl
ENDBRANCH   2  23
TORSDOF 7
ENDMDL
MODEL 7
REMARK VINA RESULT:      -8.8      7.112     10.674
REMARK  7 active torsions:
REMARK  status: ('A' for Active; 'I' for Inactive)
REMARK    1  A    between atoms: O_2  and  C_3 
REMARK    2  A    between atoms: C_5  and  C_6 
REMARK    3  A    between atoms: C_6  and  O_7 
REMARK    4  A    between atoms: C_6  and  C_8 
REMARK    5  A    between atoms: C_8  and  N_9 
REMARK       I    between atoms: N_9  and  C_10 
REMARK    6  A    between atoms: C_10  and  C_11 
REMARK    7  A    between atoms: C_12  and  C_13 
ROOT
HETATM    1  C   UNL     1      19.847  49.482  49.766  1.00  0.00     0.089 C 
HETATM    2  C   UNL     1      20.873  50.616  49.530  1.00  0.00     0.068 C 
HETATM    3  C   UNL     1      20.360  51.613  48.484  1.00  0.00     0.013 C 
HETATM    4  C   UNL     1      19.043  52.239  48.946  1.00  0.00     0.001 C 
HETATM    5  C   UNL     1      18.000  51.197  49.349  1.00  0.00     0.001 C 
HETATM    6  C   UNL     1      18.558  50.142  50.312  1.00  0.00     0.015 C 
ENDROOT
BRANCH   1   7
HETATM    7  C   UNL     1      19.466  48.581  48.569  1.00  0.00     0.222 C 
HETATM    8  N   UNL     1      18.183  48.103  48.529  1.00  0.00    -0.358 N 
HETATM    9  H   UNL     1      17.502  48.613  49.095  1.00  0.00     0.162 HD
HETATM   10  O   UNL     1      20.256  48.341  47.655  1.00  0.00    -0.273 OA
BRANCH   8  11
HETATM   11  C   UNL     1      17.643  47.414  47.361  1.00  0.00     0.159 C 
BRANCH  11  12
HETATM   12  C   UNL     1      16.368  48.067  46.778  1.00  0.00     0.169 C 
BRANCH  12  13
HETATM   13  C   UNL     1      16.597  49.533  46.454  1.00  0.00    -0.025 A 
HETATM   14  C   UNL     1      15.653  50.492  46.876  1.00  0.00     0.046 A 
HETATM   15  C   UNL     1      15.820  51.845  46.574  1.00  0.00     0.068 A 
HETATM   16  C   UNL     1      16.948  52.252  45.860  1.00  0.00     0.037 A 
HETATM   17  C   UNL     1      17.899  51.320  45.447  1.00  0.00     0.003 A 
HETATM   18  C   UNL     1      17.722  49.968  45.740  1.00  0.00     0.010 A 
BRANCH  15  19
HETATM   19  O   UNL     1      14.964  52.858  46.914  1.00  0.00    -0.356 OA
HETATM   20  C   UNL     1      14.947  53.255  48.279  1.00  0.00     0.210 C 
ENDBRANCH  15  19
ENDBRANCH  12  13
BRANCH  12  21
HETATM   21  O   UNL     1      15.299  47.912  47.723  1.00  0.00    -0.389 OA
HETATM   22  H   UNL     1      14.689  48.643  47.519  1.00  0.00     0.210 HD
ENDBRANCH  12  21
ENDBRANCH  11  12
ENDBRANCH   8  11
ENDBRANCH   1   7
BRANCH   2  23
HETATM   23  C   UNL     1      22.280  50.154  49.272  1.00  0.00     0.110 A 
HETATM   24  N   UNL     1      22.866  49.079  49.761  1.00  0.00    -0.233 NA
HETATM   25  C   UNL     1      24.167  49.121  49.316  1.00  0.00     0.087 A 
HETATM   26  C   UNL     1      24.380  50.244  48.528  1.00  0.00     0.062 A 
HETATM   27  C   UNL     1      25.221  48.232  49.557  1.00  0.00     0.057 A 
HETATM   28  N   UNL     1      23.167  50.884  48.513  1.00  0.00    -0.342 N 
HETATM   29  C   UNL     1      25.610  50.548  47.942  1.00  0.00     0.034 A 
HETATM   30  H   UNL     1      22.965  51.753  48.040  1.00  0.00     0.167 HD
HETATM   31  C   UNL     1      26.658  49.652  48.191  1.00  0.00     0.026 A 
HETATM   32  C   UNL     1      26.464  48.518  48.984  1.00  0.00     0.036 A 
HETATM   33 CL   UNL     1      27.786  47.449  49.265  1.00  0.00    -0.084 Cl
ENDBRANCH   2  23
TORSDOF 7
ENDMDL
MODEL 8
REMARK VINA RESULT:      -8.7      4.362      7.894
REMARK  7 active torsions:
REMARK  status: ('A' for Active; 'I' for Inactive)
REMARK    1  A    between atoms: O_2  and  C_3 
REMARK    2  A    between atoms: C_5  and  C_6 
REMARK    3  A    between atoms: C_6  and  O_7 
REMARK    4  A    between atoms: C_6  and  C_8 
REMARK    5  A    between atoms: C_8  and  N_9 
REMARK       I    between atoms: N_9  and  C_10 
REMARK    6  A    between atoms: C_10  and  C_11 
REMARK    7  A    between atoms: C_12  and  C_13 
ROOT
HETATM    1  C   UNL     1      22.381  48.723  49.518  1.00  0.00     0.089 C 
HETATM    2  C   UNL     1      23.917  48.912  49.548  1.00  0.00     0.068 C 
HETATM    3  C   UNL     1      24.437  49.395  48.189  1.00  0.00     0.013 C 
HETATM    4  C   UNL     1      23.790  50.730  47.814  1.00  0.00     0.001 C 
HETATM    5  C   UNL     1      22.265  50.694  47.898  1.00  0.00     0.001 C 
HETATM    6  C   UNL     1      21.757  50.108  49.221  1.00  0.00     0.015 C 
ENDROOT
BRANCH   1   7
HETATM    7  C   UNL     1      21.791  47.697  48.524  1.00  0.00     0.222 C 
HETATM    8  N   UNL     1      20.639  47.056  48.896  1.00  0.00    -0.358 N 
HETATM    9  H   UNL     1      20.094  47.515  49.630  1.00  0.00     0.162 HD
HETATM   10  O   UNL     1      22.295  47.495  47.419  1.00  0.00    -0.273 OA
BRANCH   8  11
HETATM   11  C   UNL     1      19.877  46.222  47.973  1.00  0.00     0.159 C 
BRANCH  11  12
HETATM   12  C   UNL     1      18.454  46.748  47.675  1.00  0.00     0.169 C 
BRANCH  12  13
HETATM   13  C   UNL     1      18.421  48.266  47.648  1.00  0.00    -0.025 A 
HETATM   14  C   UNL     1      17.893  48.968  48.751  1.00  0.00     0.046 A 
HETATM   15  C   UNL     1      17.825  50.363  48.750  1.00  0.00     0.068 A 
HETATM   16  C   UNL     1      18.305  51.069  47.647  1.00  0.00     0.037 A 
HETATM   17  C   UNL     1      18.843  50.393  46.553  1.00  0.00     0.003 A 
HETATM   18  C   UNL     1      18.897  49.000  46.553  1.00  0.00     0.010 A 
BRANCH  15  19
HETATM   19  O   UNL     1      17.318  51.145  49.752  1.00  0.00    -0.356 OA
HETATM   20  C   UNL     1      17.600  52.537  49.687  1.00  0.00     0.210 C 
ENDBRANCH  15  19
ENDBRANCH  12  13
BRANCH  12  21
HETATM   21  O   UNL     1      17.556  46.234  48.669  1.00  0.00    -0.389 OA
HETATM   22  H   UNL     1      17.098  45.500  48.224  1.00  0.00     0.210 HD
ENDBRANCH  12  21
ENDBRANCH  11  12
ENDBRANCH   8  11
ENDBRANCH   1   7
BRANCH   2  23
HETATM   23  C   UNL     1      24.688  47.748  50.102  1.00  0.00     0.110 A 
HETATM   24  N   UNL     1      24.973  47.512  51.368  1.00  0.00    -0.233 NA
HETATM   25  C   UNL     1      25.763  46.387  51.375  1.00  0.00     0.087 A 
HETATM   26  C   UNL     1      25.960  45.916  50.084  1.00  0.00     0.062 A 
HETATM   27  C   UNL     1      26.353  45.719  52.455  1.00  0.00     0.057 A 
HETATM   28  N   UNL     1      25.266  46.796  49.292  1.00  0.00    -0.342 N 
HETATM   29  C   UNL     1      26.725  44.787  49.787  1.00  0.00     0.034 A 
HETATM   30  H   UNL     1      25.206  46.761  48.285  1.00  0.00     0.167 HD
HETATM   31  C   UNL     1      27.311  44.127  50.875  1.00  0.00     0.026 A 
HETATM   32  C   UNL     1      27.127  44.587  52.181  1.00  0.00     0.036 A 
HETATM   33 CL   UNL     1      27.874  43.743  53.485  1.00  0.00    -0.084 Cl
ENDBRANCH   2  23
TORSDOF 7
ENDMDL
MODEL 9
REMARK VINA RESULT:      -8.7      3.707      8.527
REMARK  7 active torsions:
REMARK  status: ('A' for Active; 'I' for Inactive)
REMARK    1  A    between atoms: O_2  and  C_3 
REMARK    2  A    between atoms: C_5  and  C_6 
REMARK    3  A    between atoms: C_6  and  O_7 
REMARK    4  A    between atoms: C_6  and  C_8 
REMARK    5  A    between atoms: C_8  and  N_9 
REMARK       I    between atoms: N_9  and  C_10 
REMARK    6  A    between atoms: C_10  and  C_11 
REMARK    7  A    between atoms: C_12  and  C_13 
ROOT
HETATM    1  C   UNL     1      25.539  44.357  51.686  1.00  0.00     0.089 C 
HETATM    2  C   UNL     1      25.877  45.604  52.539  1.00  0.00     0.068 C 
HETATM    3  C   UNL     1      26.131  46.826  51.649  1.00  0.00     0.013 C 
HETATM    4  C   UNL     1      24.894  47.136  50.804  1.00  0.00     0.001 C 
HETATM    5  C   UNL     1      24.385  45.922  50.030  1.00  0.00     0.001 C 
HETATM    6  C   UNL     1      24.238  44.675  50.912  1.00  0.00     0.015 C 
ENDROOT
BRANCH   1   7
HETATM    7  C   UNL     1      26.598  43.853  50.679  1.00  0.00     0.222 C 
HETATM    8  N   UNL     1      26.454  42.575  50.208  1.00  0.00    -0.358 N 
HETATM    9  H   UNL     1      25.520  42.172  50.299  1.00  0.00     0.162 HD
HETATM   10  O   UNL     1      27.505  44.577  50.268  1.00  0.00    -0.273 OA
BRANCH   8  11
HETATM   11  C   UNL     1      27.262  42.053  49.110  1.00  0.00     0.159 C 
BRANCH  11  12
HETATM   12  C   UNL     1      26.574  40.931  48.299  1.00  0.00     0.169 C 
BRANCH  12  13
HETATM   13  C   UNL     1      27.078  39.560  48.713  1.00  0.00    -0.025 A 
HETATM   14  C   UNL     1      28.264  39.457  49.468  1.00  0.00     0.046 A 
HETATM   15  C   UNL     1      28.770  38.210  49.846  1.00  0.00     0.068 A 
HETATM   16  C   UNL     1      28.077  37.055  49.484  1.00  0.00     0.037 A 
HETATM   17  C   UNL     1      26.895  37.138  48.750  1.00  0.00     0.003 A 
HETATM   18  C   UNL     1      26.401  38.383  48.365  1.00  0.00     0.010 A 
BRANCH  15  19
HETATM   19  O   UNL     1      29.916  37.989  50.560  1.00  0.00    -0.356 OA
HETATM   20  C   UNL     1      29.892  36.927  51.504  1.00  0.00     0.210 C 
ENDBRANCH  15  19
ENDBRANCH  12  13
BRANCH  12  21
HETATM   21  O   UNL     1      26.810  41.163  46.903  1.00  0.00    -0.389 OA
HETATM   22  H   UNL     1      26.413  40.392  46.459  1.00  0.00     0.210 HD
ENDBRANCH  12  21
ENDBRANCH  11  12
ENDBRANCH   8  11
ENDBRANCH   1   7
BRANCH   2  23
HETATM   23  C   UNL     1      26.943  45.392  53.577  1.00  0.00     0.110 A 
HETATM   24  N   UNL     1      27.162  46.124  54.653  1.00  0.00    -0.233 NA
HETATM   25  C   UNL     1      28.286  45.599  55.245  1.00  0.00     0.087 A 
HETATM   26  C   UNL     1      28.762  44.513  54.522  1.00  0.00     0.062 A 
HETATM   27  C   UNL     1      28.958  46.009  56.403  1.00  0.00     0.057 A 
HETATM   28  N   UNL     1      27.891  44.400  53.468  1.00  0.00    -0.342 N 
HETATM   29  C   UNL     1      29.895  43.784  54.888  1.00  0.00     0.034 A 
HETATM   30  H   UNL     1      27.949  43.716  52.727  1.00  0.00     0.167 HD
HETATM   31  C   UNL     1      30.559  44.204  56.047  1.00  0.00     0.026 A 
HETATM   32  C   UNL     1      30.098  45.296  56.787  1.00  0.00     0.036 A 
HETATM   33 CL   UNL     1      30.954  45.777  58.203  1.00  0.00    -0.084 Cl
ENDBRANCH   2  23
TORSDOF 7
ENDMDL
MODEL 10
REMARK VINA RESULT:      -8.7      4.284      7.133
REMARK  7 active torsions:
REMARK  status: ('A' for Active; 'I' for Inactive)
REMARK    1  A    between atoms: O_2  and  C_3 
REMARK    2  A    between atoms: C_5  and  C_6 
REMARK    3  A    between atoms: C_6  and  O_7 
REMARK    4  A    between atoms: C_6  and  C_8 
REMARK    5  A    between atoms: C_8  and  N_9 
REMARK       I    between atoms: N_9  and  C_10 
REMARK    6  A    between atoms: C_10  and  C_11 
REMARK    7  A    between atoms: C_12  and  C_13 
ROOT
HETATM    1  C   UNL     1      27.017  44.516  50.908  1.00  0.00     0.089 C 
HETATM    2  C   UNL     1      26.488  45.742  51.691  1.00  0.00     0.068 C 
HETATM    3  C   UNL     1      25.659  45.303  52.904  1.00  0.00     0.013 C 
HETATM    4  C   UNL     1      26.508  44.452  53.850  1.00  0.00     0.001 C 
HETATM    5  C   UNL     1      27.201  43.289  53.141  1.00  0.00     0.001 C 
HETATM    6  C   UNL     1      27.938  43.726  51.868  1.00  0.00     0.015 C 
ENDROOT
BRANCH   1   7
HETATM    7  C   UNL     1      25.986  43.537  50.302  1.00  0.00     0.222 C 
HETATM    8  N   UNL     1      24.929  44.083  49.624  1.00  0.00    -0.358 N 
HETATM    9  H   UNL     1      25.059  45.044  49.300  1.00  0.00     0.162 HD
HETATM   10  O   UNL     1      26.126  42.316  50.371  1.00  0.00    -0.273 OA
BRANCH   8  11
HETATM   11  C   UNL     1      24.003  43.273  48.839  1.00  0.00     0.159 C 
BRANCH  11  12
HETATM   12  C   UNL     1      22.516  43.471  49.216  1.00  0.00     0.169 C 
BRANCH  12  13
HETATM   13  C   UNL     1      21.902  44.630  48.452  1.00  0.00    -0.025 A 
HETATM   14  C   UNL     1      20.783  45.299  48.988  1.00  0.00     0.046 A 
HETATM   15  C   UNL     1      20.178  46.353  48.300  1.00  0.00     0.068 A 
HETATM   16  C   UNL     1      20.704  46.759  47.073  1.00  0.00     0.037 A 
HETATM   17  C   UNL     1      21.818  46.118  46.533  1.00  0.00     0.003 A 
HETATM   18  C   UNL     1      22.411  45.058  47.218  1.00  0.00     0.010 A 
BRANCH  15  19
HETATM   19  O   UNL     1      19.082  47.061  48.713  1.00  0.00    -0.356 OA
HETATM   20  C   UNL     1      19.317  48.352  49.259  1.00  0.00     0.210 C 
ENDBRANCH  15  19
ENDBRANCH  12  13
BRANCH  12  21
HETATM   21  O   UNL     1      22.426  43.686  50.632  1.00  0.00    -0.389 OA
HETATM   22  H   UNL     1      22.029  44.571  50.717  1.00  0.00     0.210 HD
ENDBRANCH  12  21
ENDBRANCH  11  12
ENDBRANCH   8  11
ENDBRANCH   1   7
BRANCH   2  23
HETATM   23  C   UNL     1      25.808  46.785  50.851  1.00  0.00     0.110 A 
HETATM   24  N   UNL     1      24.514  46.901  50.619  1.00  0.00    -0.233 NA
HETATM   25  C   UNL     1      24.380  47.944  49.733  1.00  0.00     0.087 A 
HETATM   26  C   UNL     1      25.619  48.487  49.422  1.00  0.00     0.062 A 
HETATM   27  C   UNL     1      23.223  48.474  49.149  1.00  0.00     0.057 A 
HETATM   28  N   UNL     1      26.511  47.736  50.145  1.00  0.00    -0.342 N 
HETATM   29  C   UNL     1      25.789  49.558  48.543  1.00  0.00     0.034 A 
HETATM   30  H   UNL     1      27.514  47.849  50.144  1.00  0.00     0.167 HD
HETATM   31  C   UNL     1      24.624  50.079  47.964  1.00  0.00     0.026 A 
HETATM   32  C   UNL     1      23.368  49.545  48.262  1.00  0.00     0.036 A 
HETATM   33 CL   UNL     1      21.967  50.218  47.519  1.00  0.00    -0.084 Cl
ENDBRANCH   2  23
TORSDOF 7
ENDMDL
