MODEL 1
REMARK VINA RESULT:      -8.5      0.000      0.000
REMARK  4 active torsions:
REMARK  status: ('A' for Active; 'I' for Inactive)
REMARK    1  A    between atoms: C_4  and  O_5 
REMARK    2  A    between atoms: O_5  and  C_6 
REMARK    3  A    between atoms: C_9  and  N_10 
REMARK       I    between atoms: N_10  and  C_11 
REMARK    4  A    between atoms: C_11  and  C_12 
ROOT
HETATM    1  C   UNL     1      26.918  43.966  52.566  1.00  0.00     0.076 A 
HETATM    2  C   UNL     1      27.344  44.242  51.271  1.00  0.00     0.039 A 
HETATM    3  C   UNL     1      26.620  45.134  50.473  1.00  0.00     0.032 A 
HETATM    4  C   UNL     1      25.456  45.736  50.960  1.00  0.00     0.035 A 
HETATM    5  C   UNL     1      25.018  45.419  52.255  1.00  0.00     0.032 A 
HETATM    6  C   UNL     1      25.743  44.532  53.056  1.00  0.00     0.039 A 
ENDROOT
BRANCH   4   7
HETATM    7  N   UNL     1      24.685  46.666  50.231  1.00  0.00    -0.323 N 
HETATM    8  C   UNL     1      25.067  47.926  49.813  1.00  0.00     0.257 C 
HETATM    9  O   UNL     1      26.178  48.433  49.922  1.00  0.00    -0.267 OA
HETATM   10  H   UNL     1      23.758  46.357  49.973  1.00  0.00     0.169 HD
BRANCH   8  11
HETATM   11  C   UNL     1      23.965  48.679  49.129  1.00  0.00     0.048 A 
HETATM   12  C   UNL     1      22.724  48.164  49.200  1.00  0.00     0.108 A 
HETATM   13  N   UNL     1      21.669  48.795  48.584  1.00  0.00    -0.333 N 
HETATM   14  C   UNL     1      21.785  49.955  47.857  1.00  0.00     0.245 A 
HETATM   15  H   UNL     1      20.736  48.403  48.647  1.00  0.00     0.168 HD
HETATM   16  O   UNL     1      20.833  50.511  47.325  1.00  0.00    -0.268 OA
HETATM   17  C   UNL     1      23.162  50.506  47.740  1.00  0.00     0.075 A 
HETATM   18  C   UNL     1      24.185  49.883  48.346  1.00  0.00     0.024 A 
ENDBRANCH   8  11
ENDBRANCH   4   7
BRANCH   1  19
HETATM   19  O   UNL     1      27.648  43.075  53.313  1.00  0.00    -0.311 OA
BRANCH  19  20
HETATM   20  C   UNL     1      28.556  43.592  54.212  1.00  0.00     0.076 A 
HETATM   21  C   UNL     1      29.670  42.793  54.479  1.00  0.00     0.037 A 
HETATM   22  C   UNL     1      30.665  43.241  55.349  1.00  0.00     0.003 A 
HETATM   23  C   UNL     1      30.552  44.496  55.949  1.00  0.00     0.000 A 
HETATM   24  C   UNL     1      29.449  45.304  55.672  1.00  0.00     0.003 A 
HETATM   25  C   UNL     1      28.455  44.857  54.799  1.00  0.00     0.037 A 
ENDBRANCH  19  20
ENDBRANCH   1  19
TORSDOF 4
ENDMDL
MODEL 2
REMARK VINA RESULT:      -8.2      1.178      1.372
REMARK  4 active torsions:
REMARK  status: ('A' for Active; 'I' for Inactive)
REMARK    1  A    between atoms: C_4  and  O_5 
REMARK    2  A    between atoms: O_5  and  C_6 
REMARK    3  A    between atoms: C_9  and  N_10 
REMARK       I    between atoms: N_10  and  C_11 
REMARK    4  A    between atoms: C_11  and  C_12 
ROOT
HETATM    1  C   UNL     1      26.316  43.424  51.269  1.00  0.00     0.076 A 
HETATM    2  C   UNL     1      26.902  44.177  50.257  1.00  0.00     0.039 A 
HETATM    3  C   UNL     1      26.174  45.194  49.632  1.00  0.00     0.032 A 
HETATM    4  C   UNL     1      24.850  45.448  50.002  1.00  0.00     0.035 A 
HETATM    5  C   UNL     1      24.260  44.656  51.000  1.00  0.00     0.032 A 
HETATM    6  C   UNL     1      24.988  43.642  51.629  1.00  0.00     0.039 A 
ENDROOT
BRANCH   4   7
HETATM    7  N   UNL     1      24.057  46.472  49.442  1.00  0.00    -0.323 N 
HETATM    8  C   UNL     1      24.218  47.835  49.595  1.00  0.00     0.257 C 
HETATM    9  O   UNL     1      25.133  48.408  50.175  1.00  0.00    -0.267 OA
HETATM   10  H   UNL     1      23.301  46.162  48.846  1.00  0.00     0.169 HD
BRANCH   8  11
HETATM   11  C   UNL     1      23.141  48.634  48.923  1.00  0.00     0.048 A 
HETATM   12  C   UNL     1      21.908  48.099  48.876  1.00  0.00     0.108 A 
HETATM   13  N   UNL     1      20.877  48.771  48.263  1.00  0.00    -0.333 N 
HETATM   14  C   UNL     1      21.012  49.996  47.654  1.00  0.00     0.245 A 
HETATM   15  H   UNL     1      19.949  48.363  48.237  1.00  0.00     0.168 HD
HETATM   16  O   UNL     1      20.080  50.587  47.123  1.00  0.00    -0.268 OA
HETATM   17  C   UNL     1      22.382  50.572  47.666  1.00  0.00     0.075 A 
HETATM   18  C   UNL     1      23.382  49.908  48.268  1.00  0.00     0.024 A 
ENDBRANCH   8  11
ENDBRANCH   4   7
BRANCH   1  19
HETATM   19  O   UNL     1      27.059  42.426  51.849  1.00  0.00    -0.311 OA
BRANCH  19  20
HETATM   20  C   UNL     1      28.009  42.797  52.778  1.00  0.00     0.076 A 
HETATM   21  C   UNL     1      29.311  42.364  52.521  1.00  0.00     0.037 A 
HETATM   22  C   UNL     1      30.351  42.715  53.383  1.00  0.00     0.003 A 
HETATM   23  C   UNL     1      30.092  43.509  54.500  1.00  0.00     0.000 A 
HETATM   24  C   UNL     1      28.795  43.957  54.750  1.00  0.00     0.003 A 
HETATM   25  C   UNL     1      27.754  43.608  53.887  1.00  0.00     0.037 A 
ENDBRANCH  19  20
ENDBRANCH   1  19
TORSDOF 4
ENDMDL
MODEL 3
REMARK VINA RESULT:      -8.2      2.474      3.643
REMARK  4 active torsions:
REMARK  status: ('A' for Active; 'I' for Inactive)
REMARK    1  A    between atoms: C_4  and  O_5 
REMARK    2  A    between atoms: O_5  and  C_6 
REMARK    3  A    between atoms: C_9  and  N_10 
REMARK       I    between atoms: N_10  and  C_11 
REMARK    4  A    between atoms: C_11  and  C_12 
ROOT
HETATM    1  C   UNL     1      26.155  45.414  49.615  1.00  0.00     0.076 A 
HETATM    2  C   UNL     1      24.874  44.901  49.445  1.00  0.00     0.039 A 
HETATM    3  C   UNL     1      23.770  45.760  49.451  1.00  0.00     0.032 A 
HETATM    4  C   UNL     1      23.943  47.133  49.649  1.00  0.00     0.035 A 
HETATM    5  C   UNL     1      25.239  47.632  49.856  1.00  0.00     0.032 A 
HETATM    6  C   UNL     1      26.343  46.775  49.845  1.00  0.00     0.039 A 
ENDROOT
BRANCH   4   7
HETATM    7  N   UNL     1      22.888  48.070  49.642  1.00  0.00    -0.323 N 
HETATM    8  C   UNL     1      22.186  48.532  48.545  1.00  0.00     0.257 C 
HETATM    9  O   UNL     1      22.293  48.148  47.386  1.00  0.00    -0.267 OA
HETATM   10  H   UNL     1      22.607  48.418  50.548  1.00  0.00     0.169 HD
BRANCH   8  11
HETATM   11  C   UNL     1      21.180  49.589  48.894  1.00  0.00     0.048 A 
HETATM   12  C   UNL     1      20.218  49.264  49.776  1.00  0.00     0.108 A 
HETATM   13  N   UNL     1      19.256  50.180  50.131  1.00  0.00    -0.333 N 
HETATM   14  C   UNL     1      19.184  51.455  49.623  1.00  0.00     0.245 A 
HETATM   15  H   UNL     1      18.537  49.929  50.800  1.00  0.00     0.168 HD
HETATM   16  O   UNL     1      18.327  52.263  49.958  1.00  0.00    -0.268 OA
HETATM   17  C   UNL     1      20.220  51.806  48.615  1.00  0.00     0.075 A 
HETATM   18  C   UNL     1      21.156  50.904  48.277  1.00  0.00     0.024 A 
ENDBRANCH   8  11
ENDBRANCH   4   7
BRANCH   1  19
HETATM   19  O   UNL     1      27.211  44.537  49.616  1.00  0.00    -0.311 OA
BRANCH  19  20
HETATM   20  C   UNL     1      27.355  43.715  50.714  1.00  0.00     0.076 A 
HETATM   21  C   UNL     1      27.248  42.345  50.465  1.00  0.00     0.037 A 
HETATM   22  C   UNL     1      27.411  41.427  51.504  1.00  0.00     0.003 A 
HETATM   23  C   UNL     1      27.692  41.878  52.794  1.00  0.00     0.000 A 
HETATM   24  C   UNL     1      27.817  43.245  53.043  1.00  0.00     0.003 A 
HETATM   25  C   UNL     1      27.655  44.163  52.004  1.00  0.00     0.037 A 
ENDBRANCH  19  20
ENDBRANCH   1  19
TORSDOF 4
ENDMDL
MODEL 4
REMARK VINA RESULT:      -8.1      4.084      9.049
REMARK  4 active torsions:
REMARK  status: ('A' for Active; 'I' for Inactive)
REMARK    1  A    between atoms: C_4  and  O_5 
REMARK    2  A    between atoms: O_5  and  C_6 
REMARK    3  A    between atoms: C_9  and  N_10 
REMARK       I    between atoms: N_10  and  C_11 
REMARK    4  A    between atoms: C_11  and  C_12 
ROOT
HETATM    1  C   UNL     1      25.293  45.988  50.545  1.00  0.00     0.076 A 
HETATM    2  C   UNL     1      25.051  45.129  49.479  1.00  0.00     0.039 A 
HETATM    3  C   UNL     1      25.724  43.906  49.400  1.00  0.00     0.032 A 
HETATM    4  C   UNL     1      26.659  43.548  50.376  1.00  0.00     0.035 A 
HETATM    5  C   UNL     1      26.920  44.441  51.427  1.00  0.00     0.032 A 
HETATM    6  C   UNL     1      26.244  45.662  51.509  1.00  0.00     0.039 A 
ENDROOT
BRANCH   4   7
HETATM    7  N   UNL     1      27.359  42.323  50.386  1.00  0.00    -0.323 N 
HETATM    8  C   UNL     1      27.680  41.533  49.299  1.00  0.00     0.257 C 
HETATM    9  O   UNL     1      27.493  41.794  48.116  1.00  0.00    -0.267 OA
HETATM   10  H   UNL     1      27.675  42.008  51.293  1.00  0.00     0.169 HD
BRANCH   8  11
HETATM   11  C   UNL     1      28.360  40.252  49.684  1.00  0.00     0.048 A 
HETATM   12  C   UNL     1      28.686  40.086  50.978  1.00  0.00     0.108 A 
HETATM   13  N   UNL     1      29.324  38.942  51.397  1.00  0.00    -0.333 N 
HETATM   14  C   UNL     1      29.685  37.913  50.561  1.00  0.00     0.245 A 
HETATM   15  H   UNL     1      29.561  38.822  52.375  1.00  0.00     0.168 HD
HETATM   16  O   UNL     1      30.242  36.895  50.953  1.00  0.00    -0.268 OA
HETATM   17  C   UNL     1      29.365  38.110  49.123  1.00  0.00     0.075 A 
HETATM   18  C   UNL     1      28.741  39.230  48.724  1.00  0.00     0.024 A 
ENDBRANCH   8  11
ENDBRANCH   4   7
BRANCH   1  19
HETATM   19  O   UNL     1      24.622  47.186  50.579  1.00  0.00    -0.311 OA
BRANCH  19  20
HETATM   20  C   UNL     1      25.042  48.175  49.715  1.00  0.00     0.076 A 
HETATM   21  C   UNL     1      26.424  48.338  49.603  1.00  0.00     0.037 A 
HETATM   22  C   UNL     1      26.951  49.290  48.729  1.00  0.00     0.003 A 
HETATM   23  C   UNL     1      26.095  50.076  47.956  1.00  0.00     0.000 A 
HETATM   24  C   UNL     1      24.714  49.904  48.053  1.00  0.00     0.003 A 
HETATM   25  C   UNL     1      24.186  48.950  48.926  1.00  0.00     0.037 A 
ENDBRANCH  19  20
ENDBRANCH   1  19
TORSDOF 4
ENDMDL
MODEL 5
REMARK VINA RESULT:      -8.0      5.230      5.783
REMARK  4 active torsions:
REMARK  status: ('A' for Active; 'I' for Inactive)
REMARK    1  A    between atoms: C_4  and  O_5 
REMARK    2  A    between atoms: O_5  and  C_6 
REMARK    3  A    between atoms: C_9  and  N_10 
REMARK       I    between atoms: N_10  and  C_11 
REMARK    4  A    between atoms: C_11  and  C_12 
ROOT
HETATM    1  C   UNL     1      29.878  42.909  54.110  1.00  0.00     0.076 A 
HETATM    2  C   UNL     1      29.999  43.313  52.784  1.00  0.00     0.039 A 
HETATM    3  C   UNL     1      28.955  43.078  51.884  1.00  0.00     0.032 A 
HETATM    4  C   UNL     1      27.795  42.419  52.301  1.00  0.00     0.035 A 
HETATM    5  C   UNL     1      27.702  41.985  53.633  1.00  0.00     0.032 A 
HETATM    6  C   UNL     1      28.742  42.223  54.535  1.00  0.00     0.039 A 
ENDROOT
BRANCH   4   7
HETATM    7  N   UNL     1      26.686  42.169  51.465  1.00  0.00    -0.323 N 
HETATM    8  C   UNL     1      26.625  41.305  50.390  1.00  0.00     0.257 C 
HETATM    9  O   UNL     1      27.499  40.529  50.018  1.00  0.00    -0.267 OA
HETATM   10  H   UNL     1      25.839  42.669  51.702  1.00  0.00     0.169 HD
BRANCH   8  11
HETATM   11  C   UNL     1      25.309  41.348  49.673  1.00  0.00     0.048 A 
HETATM   12  C   UNL     1      25.134  40.503  48.641  1.00  0.00     0.108 A 
HETATM   13  N   UNL     1      23.957  40.499  47.931  1.00  0.00    -0.333 N 
HETATM   14  C   UNL     1      22.899  41.337  48.192  1.00  0.00     0.245 A 
HETATM   15  H   UNL     1      23.832  39.856  47.158  1.00  0.00     0.168 HD
HETATM   16  O   UNL     1      21.852  41.313  47.557  1.00  0.00    -0.268 OA
HETATM   17  C   UNL     1      23.103  42.303  49.305  1.00  0.00     0.075 A 
HETATM   18  C   UNL     1      24.256  42.297  49.992  1.00  0.00     0.024 A 
ENDBRANCH   8  11
ENDBRANCH   4   7
BRANCH   1  19
HETATM   19  O   UNL     1      30.930  43.145  54.959  1.00  0.00    -0.311 OA
BRANCH  19  20
HETATM   20  C   UNL     1      30.719  44.019  56.006  1.00  0.00     0.076 A 
HETATM   21  C   UNL     1      31.440  43.754  57.172  1.00  0.00     0.037 A 
HETATM   22  C   UNL     1      31.323  44.599  58.277  1.00  0.00     0.003 A 
HETATM   23  C   UNL     1      30.491  45.718  58.214  1.00  0.00     0.000 A 
HETATM   24  C   UNL     1      29.784  45.994  57.045  1.00  0.00     0.003 A 
HETATM   25  C   UNL     1      29.902  45.151  55.938  1.00  0.00     0.037 A 
ENDBRANCH  19  20
ENDBRANCH   1  19
TORSDOF 4
ENDMDL
MODEL 6
REMARK VINA RESULT:      -8.0      2.472      9.032
REMARK  4 active torsions:
REMARK  status: ('A' for Active; 'I' for Inactive)
REMARK    1  A    between atoms: C_4  and  O_5 
REMARK    2  A    between atoms: O_5  and  C_6 
REMARK    3  A    between atoms: C_9  and  N_10 
REMARK       I    between atoms: N_10  and  C_11 
REMARK    4  A    between atoms: C_11  and  C_12 
ROOT
HETATM    1  C   UNL     1      24.045  46.749  49.530  1.00  0.00     0.076 A 
HETATM    2  C   UNL     1      25.027  47.649  49.931  1.00  0.00     0.039 A 
HETATM    3  C   UNL     1      25.990  47.261  50.868  1.00  0.00     0.032 A 
HETATM    4  C   UNL     1      25.961  45.979  51.425  1.00  0.00     0.035 A 
HETATM    5  C   UNL     1      24.943  45.094  51.038  1.00  0.00     0.032 A 
HETATM    6  C   UNL     1      23.983  45.478  50.098  1.00  0.00     0.039 A 
ENDROOT
BRANCH   4   7
HETATM    7  N   UNL     1      26.910  45.501  52.353  1.00  0.00    -0.323 N 
HETATM    8  C   UNL     1      26.793  45.469  53.729  1.00  0.00     0.257 C 
HETATM    9  O   UNL     1      25.807  45.769  54.393  1.00  0.00    -0.267 OA
HETATM   10  H   UNL     1      27.758  45.122  51.954  1.00  0.00     0.169 HD
BRANCH   8  11
HETATM   11  C   UNL     1      28.031  44.968  54.413  1.00  0.00     0.048 A 
HETATM   12  C   UNL     1      28.652  45.805  55.264  1.00  0.00     0.108 A 
HETATM   13  N   UNL     1      29.799  45.416  55.914  1.00  0.00    -0.333 N 
HETATM   14  C   UNL     1      30.399  44.190  55.749  1.00  0.00     0.245 A 
HETATM   15  H   UNL     1      30.258  46.050  56.558  1.00  0.00     0.168 HD
HETATM   16  O   UNL     1      31.414  43.855  56.345  1.00  0.00    -0.268 OA
HETATM   17  C   UNL     1      29.740  43.277  54.777  1.00  0.00     0.075 A 
HETATM   18  C   UNL     1      28.620  43.667  54.148  1.00  0.00     0.024 A 
ENDBRANCH   8  11
ENDBRANCH   4   7
BRANCH   1  19
HETATM   19  O   UNL     1      23.110  47.171  48.618  1.00  0.00    -0.311 OA
BRANCH  19  20
HETATM   20  C   UNL     1      22.823  48.519  48.579  1.00  0.00     0.076 A 
HETATM   21  C   UNL     1      21.639  48.907  49.208  1.00  0.00     0.037 A 
HETATM   22  C   UNL     1      21.274  50.253  49.254  1.00  0.00     0.003 A 
HETATM   23  C   UNL     1      22.101  51.218  48.677  1.00  0.00     0.000 A 
HETATM   24  C   UNL     1      23.293  50.837  48.062  1.00  0.00     0.003 A 
HETATM   25  C   UNL     1      23.659  49.490  48.018  1.00  0.00     0.037 A 
ENDBRANCH  19  20
ENDBRANCH   1  19
TORSDOF 4
ENDMDL
MODEL 7
REMARK VINA RESULT:      -7.9      2.102      9.278
REMARK  4 active torsions:
REMARK  status: ('A' for Active; 'I' for Inactive)
REMARK    1  A    between atoms: C_4  and  O_5 
REMARK    2  A    between atoms: O_5  and  C_6 
REMARK    3  A    between atoms: C_9  and  N_10 
REMARK       I    between atoms: N_10  and  C_11 
REMARK    4  A    between atoms: C_11  and  C_12 
ROOT
HETATM    1  C   UNL     1      23.867  49.068  48.257  1.00  0.00     0.076 A 
HETATM    2  C   UNL     1      25.180  49.412  48.560  1.00  0.00     0.039 A 
HETATM    3  C   UNL     1      25.913  48.642  49.470  1.00  0.00     0.032 A 
HETATM    4  C   UNL     1      25.327  47.539  50.096  1.00  0.00     0.035 A 
HETATM    5  C   UNL     1      23.989  47.225  49.809  1.00  0.00     0.032 A 
HETATM    6  C   UNL     1      23.258  47.990  48.896  1.00  0.00     0.039 A 
ENDROOT
BRANCH   4   7
HETATM    7  N   UNL     1      26.004  46.695  51.003  1.00  0.00    -0.323 N 
HETATM    8  C   UNL     1      26.024  46.790  52.380  1.00  0.00     0.257 C 
HETATM    9  O   UNL     1      25.386  47.574  53.075  1.00  0.00    -0.267 OA
HETATM   10  H   UNL     1      26.509  45.925  50.587  1.00  0.00     0.169 HD
BRANCH   8  11
HETATM   11  C   UNL     1      26.915  45.772  53.027  1.00  0.00     0.048 A 
HETATM   12  C   UNL     1      27.404  46.059  54.247  1.00  0.00     0.108 A 
HETATM   13  N   UNL     1      28.238  45.176  54.892  1.00  0.00    -0.333 N 
HETATM   14  C   UNL     1      28.643  43.974  54.362  1.00  0.00     0.245 A 
HETATM   15  H   UNL     1      28.598  45.397  55.813  1.00  0.00     0.168 HD
HETATM   16  O   UNL     1      29.377  43.193  54.955  1.00  0.00    -0.268 OA
HETATM   17  C   UNL     1      28.140  43.671  52.996  1.00  0.00     0.075 A 
HETATM   18  C   UNL     1      27.325  44.539  52.376  1.00  0.00     0.024 A 
ENDBRANCH   8  11
ENDBRANCH   4   7
BRANCH   1  19
HETATM   19  O   UNL     1      23.178  49.856  47.370  1.00  0.00    -0.311 OA
BRANCH  19  20
HETATM   20  C   UNL     1      21.922  50.287  47.744  1.00  0.00     0.076 A 
HETATM   21  C   UNL     1      20.849  49.653  47.114  1.00  0.00     0.037 A 
HETATM   22  C   UNL     1      19.537  49.993  47.447  1.00  0.00     0.003 A 
HETATM   23  C   UNL     1      19.295  50.963  48.421  1.00  0.00     0.000 A 
HETATM   24  C   UNL     1      20.364  51.586  49.064  1.00  0.00     0.003 A 
HETATM   25  C   UNL     1      21.677  51.245  48.733  1.00  0.00     0.037 A 
ENDBRANCH  19  20
ENDBRANCH   1  19
TORSDOF 4
ENDMDL
MODEL 8
REMARK VINA RESULT:      -7.8      2.323      9.224
REMARK  4 active torsions:
REMARK  status: ('A' for Active; 'I' for Inactive)
REMARK    1  A    between atoms: C_4  and  O_5 
REMARK    2  A    between atoms: O_5  and  C_6 
REMARK    3  A    between atoms: C_9  and  N_10 
REMARK       I    between atoms: N_10  and  C_11 
REMARK    4  A    between atoms: C_11  and  C_12 
ROOT
HETATM    1  C   UNL     1      22.621  47.944  48.427  1.00  0.00     0.076 A 
HETATM    2  C   UNL     1      23.560  48.508  49.284  1.00  0.00     0.039 A 
HETATM    3  C   UNL     1      24.435  47.687  50.001  1.00  0.00     0.032 A 
HETATM    4  C   UNL     1      24.359  46.296  49.880  1.00  0.00     0.035 A 
HETATM    5  C   UNL     1      23.382  45.739  49.040  1.00  0.00     0.032 A 
HETATM    6  C   UNL     1      22.511  46.559  48.319  1.00  0.00     0.039 A 
ENDROOT
BRANCH   4   7
HETATM    7  N   UNL     1      25.221  45.399  50.546  1.00  0.00    -0.323 N 
HETATM    8  C   UNL     1      26.516  45.067  50.198  1.00  0.00     0.257 C 
HETATM    9  O   UNL     1      27.186  45.558  49.296  1.00  0.00    -0.267 OA
HETATM   10  H   UNL     1      24.846  44.973  51.383  1.00  0.00     0.169 HD
BRANCH   8  11
HETATM   11  C   UNL     1      27.112  44.014  51.085  1.00  0.00     0.048 A 
HETATM   12  C   UNL     1      27.274  42.784  50.567  1.00  0.00     0.108 A 
HETATM   13  N   UNL     1      27.802  41.768  51.328  1.00  0.00    -0.333 N 
HETATM   14  C   UNL     1      28.183  41.910  52.641  1.00  0.00     0.245 A 
HETATM   15  H   UNL     1      27.925  40.844  50.929  1.00  0.00     0.168 HD
HETATM   16  O   UNL     1      28.664  40.997  53.302  1.00  0.00    -0.268 OA
HETATM   17  C   UNL     1      27.968  43.257  53.232  1.00  0.00     0.075 A 
HETATM   18  C   UNL     1      27.453  44.243  52.479  1.00  0.00     0.024 A 
ENDBRANCH   8  11
ENDBRANCH   4   7
BRANCH   1  19
HETATM   19  O   UNL     1      21.771  48.784  47.751  1.00  0.00    -0.311 OA
BRANCH  19  20
HETATM   20  C   UNL     1      20.943  49.591  48.502  1.00  0.00     0.076 A 
HETATM   21  C   UNL     1      20.885  50.931  48.113  1.00  0.00     0.037 A 
HETATM   22  C   UNL     1      20.051  51.824  48.787  1.00  0.00     0.003 A 
HETATM   23  C   UNL     1      19.264  51.375  49.848  1.00  0.00     0.000 A 
HETATM   24  C   UNL     1      19.306  50.034  50.229  1.00  0.00     0.003 A 
HETATM   25  C   UNL     1      20.139  49.140  49.553  1.00  0.00     0.037 A 
ENDBRANCH  19  20
ENDBRANCH   1  19
TORSDOF 4
ENDMDL
MODEL 9
REMARK VINA RESULT:      -7.8      2.267      9.167
REMARK  4 active torsions:
REMARK  status: ('A' for Active; 'I' for Inactive)
REMARK    1  A    between atoms: C_4  and  O_5 
REMARK    2  A    between atoms: O_5  and  C_6 
REMARK    3  A    between atoms: C_9  and  N_10 
REMARK       I    between atoms: N_10  and  C_11 
REMARK    4  A    between atoms: C_11  and  C_12 
ROOT
HETATM    1  C   UNL     1      22.465  47.709  48.533  1.00  0.00     0.076 A 
HETATM    2  C   UNL     1      22.520  46.320  48.500  1.00  0.00     0.039 A 
HETATM    3  C   UNL     1      23.519  45.643  49.208  1.00  0.00     0.032 A 
HETATM    4  C   UNL     1      24.479  46.355  49.932  1.00  0.00     0.035 A 
HETATM    5  C   UNL     1      24.433  47.758  49.926  1.00  0.00     0.032 A 
HETATM    6  C   UNL     1      23.432  48.435  49.224  1.00  0.00     0.039 A 
ENDROOT
BRANCH   4   7
HETATM    7  N   UNL     1      25.501  45.749  50.694  1.00  0.00    -0.323 N 
HETATM    8  C   UNL     1      25.353  44.968  51.823  1.00  0.00     0.257 C 
HETATM    9  O   UNL     1      24.301  44.584  52.321  1.00  0.00    -0.267 OA
HETATM   10  H   UNL     1      26.442  45.891  50.353  1.00  0.00     0.169 HD
BRANCH   8  11
HETATM   11  C   UNL     1      26.662  44.553  52.428  1.00  0.00     0.048 A 
HETATM   12  C   UNL     1      27.449  43.736  51.705  1.00  0.00     0.108 A 
HETATM   13  N   UNL     1      28.656  43.306  52.204  1.00  0.00    -0.333 N 
HETATM   14  C   UNL     1      29.141  43.647  53.444  1.00  0.00     0.245 A 
HETATM   15  H   UNL     1      29.246  42.694  51.651  1.00  0.00     0.168 HD
HETATM   16  O   UNL     1      30.224  43.265  53.869  1.00  0.00    -0.268 OA
HETATM   17  C   UNL     1      28.256  44.516  54.264  1.00  0.00     0.075 A 
HETATM   18  C   UNL     1      27.079  44.932  53.767  1.00  0.00     0.024 A 
ENDBRANCH   8  11
ENDBRANCH   4   7
BRANCH   1  19
HETATM   19  O   UNL     1      21.477  48.337  47.815  1.00  0.00    -0.311 OA
BRANCH  19  20
HETATM   20  C   UNL     1      20.814  49.381  48.424  1.00  0.00     0.076 A 
HETATM   21  C   UNL     1      20.046  49.044  49.540  1.00  0.00     0.037 A 
HETATM   22  C   UNL     1      19.362  50.034  50.248  1.00  0.00     0.003 A 
HETATM   23  C   UNL     1      19.454  51.367  49.846  1.00  0.00     0.000 A 
HETATM   24  C   UNL     1      20.234  51.709  48.741  1.00  0.00     0.003 A 
HETATM   25  C   UNL     1      20.920  50.720  48.034  1.00  0.00     0.037 A 
ENDBRANCH  19  20
ENDBRANCH   1  19
TORSDOF 4
ENDMDL
MODEL 10
REMARK VINA RESULT:      -7.8      6.014      7.736
REMARK  4 active torsions:
REMARK  status: ('A' for Active; 'I' for Inactive)
REMARK    1  A    between atoms: C_4  and  O_5 
REMARK    2  A    between atoms: O_5  and  C_6 
REMARK    3  A    between atoms: C_9  and  N_10 
REMARK       I    between atoms: N_10  and  C_11 
REMARK    4  A    between atoms: C_11  and  C_12 
ROOT
HETATM    1  C   UNL     1      28.763  44.213  54.031  1.00  0.00     0.076 A 
HETATM    2  C   UNL     1      29.858  43.565  53.470  1.00  0.00     0.039 A 
HETATM    3  C   UNL     1      29.663  42.471  52.621  1.00  0.00     0.032 A 
HETATM    4  C   UNL     1      28.372  42.006  52.349  1.00  0.00     0.035 A 
HETATM    5  C   UNL     1      27.279  42.647  52.952  1.00  0.00     0.032 A 
HETATM    6  C   UNL     1      27.471  43.745  53.796  1.00  0.00     0.039 A 
ENDROOT
BRANCH   4   7
HETATM    7  N   UNL     1      28.088  40.929  51.484  1.00  0.00    -0.323 N 
HETATM    8  C   UNL     1      27.607  40.996  50.191  1.00  0.00     0.257 C 
HETATM    9  O   UNL     1      27.420  42.009  49.526  1.00  0.00    -0.267 OA
HETATM   10  H   UNL     1      28.283  40.008  51.855  1.00  0.00     0.169 HD
BRANCH   8  11
HETATM   11  C   UNL     1      27.342  39.648  49.591  1.00  0.00     0.048 A 
HETATM   12  C   UNL     1      26.245  39.513  48.824  1.00  0.00     0.108 A 
HETATM   13  N   UNL     1      25.934  38.302  48.253  1.00  0.00    -0.333 N 
HETATM   14  C   UNL     1      26.680  37.159  48.421  1.00  0.00     0.245 A 
HETATM   15  H   UNL     1      25.108  38.210  47.673  1.00  0.00     0.168 HD
HETATM   16  O   UNL     1      26.395  36.090  47.896  1.00  0.00    -0.268 OA
HETATM   17  C   UNL     1      27.870  37.292  49.302  1.00  0.00     0.075 A 
HETATM   18  C   UNL     1      28.165  38.480  49.854  1.00  0.00     0.024 A 
ENDBRANCH   8  11
ENDBRANCH   4   7
BRANCH   1  19
HETATM   19  O   UNL     1      28.996  45.275  54.870  1.00  0.00    -0.311 OA
BRANCH  19  20
HETATM   20  C   UNL     1      29.797  45.053  55.970  1.00  0.00     0.076 A 
HETATM   21  C   UNL     1      29.604  45.921  57.047  1.00  0.00     0.037 A 
HETATM   22  C   UNL     1      30.342  45.760  58.220  1.00  0.00     0.003 A 
HETATM   23  C   UNL     1      31.269  44.723  58.323  1.00  0.00     0.000 A 
HETATM   24  C   UNL     1      31.453  43.844  57.256  1.00  0.00     0.003 A 
HETATM   25  C   UNL     1      30.714  44.003  56.082  1.00  0.00     0.037 A 
ENDBRANCH  19  20
ENDBRANCH   1  19
TORSDOF 4
ENDMDL
