MODEL 1
REMARK VINA RESULT:      -7.9      0.000      0.000
REMARK  9 active torsions:
REMARK  status: ('A' for Active; 'I' for Inactive)
REMARK    1  A    between atoms: C_3  and  C_4 
REMARK    2  A    between atoms: C_4  and  C_5 
REMARK       I    between atoms: C_5  and  N_6 
REMARK    3  A    between atoms: N_6  and  C_7 
REMARK    4  A    between atoms: C_7  and  C_8 
REMARK    5  A    between atoms: C_18  and  N_19 
REMARK       I    between atoms: N_19  and  C_20 
REMARK    6  A    between atoms: C_20  and  C_21 
REMARK    7  A    between atoms: C_29  and  C_30 
REMARK    8  A    between atoms: C_30  and  O_31 
REMARK    9  A    between atoms: C_33  and  O_34 
ROOT
HETATM    1  C   UNL     1      18.901  49.545  50.926  1.00  0.00     0.016 C 
HETATM    2  C   UNL     1      19.171  50.064  49.469  1.00  0.00    -0.030 C 
HETATM    3  C   UNL     1      20.517  49.299  49.005  1.00  0.00     0.056 C 
HETATM    4  C   UNL     1      20.194  48.042  48.233  1.00  0.00     0.056 A 
HETATM    5  C   UNL     1      18.917  47.585  47.997  1.00  0.00     0.012 A 
HETATM    6  S   UNL     1      18.956  46.121  47.145  1.00  0.00    -0.055 SA
HETATM    7  C   UNL     1      20.660  46.180  47.129  1.00  0.00     0.173 A 
HETATM    8  N   UNL     1      21.194  47.222  47.734  1.00  0.00    -0.227 NA
HETATM    9  C   UNL     1      17.651  48.228  48.419  1.00  0.00     0.055 C 
HETATM   10  C   UNL     1      17.853  49.748  48.620  1.00  0.00     0.012 C 
HETATM   11  C   UNL     1      17.618  50.613  47.312  1.00  0.00     0.008 C 
HETATM   12  C   UNL     1      16.144  50.444  46.838  1.00  0.00     0.020 C 
HETATM   13  C   UNL     1      17.836  52.119  47.641  1.00  0.00     0.128 C 
HETATM   14  C   UNL     1      19.179  52.386  48.315  1.00  0.00     0.033 C 
HETATM   15  C   UNL     1      19.323  51.600  49.618  1.00  0.00     0.013 C 
ENDROOT
BRANCH   3  16
HETATM   16  C   UNL     1      21.593  50.155  48.308  1.00  0.00     0.114 C 
BRANCH  16  17
HETATM   17  C   UNL     1      23.019  50.081  48.832  1.00  0.00     0.218 C 
HETATM   18  N   UNL     1      23.713  48.927  48.536  1.00  0.00    -0.357 N 
HETATM   19  H   UNL     1      23.207  48.168  48.104  1.00  0.00     0.162 HD
HETATM   20  O   UNL     1      23.444  50.932  49.610  1.00  0.00    -0.274 OA
BRANCH  18  21
HETATM   21  C   UNL     1      24.889  48.550  49.293  1.00  0.00     0.162 C 
BRANCH  21  22
HETATM   22  C   UNL     1      24.797  47.263  50.059  1.00  0.00    -0.023 A 
HETATM   23  C   UNL     1      24.110  46.152  49.580  1.00  0.00     0.125 A 
HETATM   24  N   UNL     1      23.974  44.986  50.259  1.00  0.00    -0.273 NA
HETATM   25  C   UNL     1      24.554  44.928  51.477  1.00  0.00     0.116 A 
HETATM   26  C   UNL     1      25.254  45.976  52.052  1.00  0.00     0.020 A 
HETATM   27  C   UNL     1      25.369  47.160  51.332  1.00  0.00     0.012 A 
ENDBRANCH  21  22
ENDBRANCH  18  21
ENDBRANCH  16  17
ENDBRANCH   3  16
BRANCH  11  28
HETATM   28  C   UNL     1      18.509  50.187  46.121  1.00  0.00     0.176 C 
BRANCH  28  29
HETATM   29  O   UNL     1      18.376  51.100  45.035  1.00  0.00    -0.400 OA
HETATM   30  H   UNL     1      17.522  50.907  44.607  1.00  0.00     0.209 HD
ENDBRANCH  28  29
ENDBRANCH  11  28
BRANCH   7  31
HETATM   31  N   UNL     1      21.425  45.224  46.506  1.00  0.00    -0.305 N 
HETATM   32  C   UNL     1      21.824  44.014  47.041  1.00  0.00     0.227 C 
HETATM   33  O   UNL     1      21.613  43.639  48.198  1.00  0.00    -0.273 OA
HETATM   34  H   UNL     1      21.693  45.472  45.562  1.00  0.00     0.171 HD
BRANCH  32  35
HETATM   35  C   UNL     1      22.595  43.110  46.037  1.00  0.00     0.078 C 
HETATM   36  C   UNL     1      21.740  42.323  45.003  1.00  0.00     0.014 C 
HETATM   37  C   UNL     1      22.821  42.629  43.952  1.00  0.00     0.002 C 
HETATM   38  C   UNL     1      23.238  43.831  44.817  1.00  0.00     0.014 C 
ENDBRANCH  32  35
ENDBRANCH   7  31
BRANCH  13  39
HETATM   39  O   UNL     1      16.821  52.591  48.535  1.00  0.00    -0.395 OA
HETATM   40  H   UNL     1      16.445  51.809  48.978  1.00  0.00     0.210 HD
ENDBRANCH  13  39
TORSDOF 9
ENDMDL
MODEL 2
REMARK VINA RESULT:      -7.7      2.053      4.851
REMARK  9 active torsions:
REMARK  status: ('A' for Active; 'I' for Inactive)
REMARK    1  A    between atoms: C_3  and  C_4 
REMARK    2  A    between atoms: C_4  and  C_5 
REMARK       I    between atoms: C_5  and  N_6 
REMARK    3  A    between atoms: N_6  and  C_7 
REMARK    4  A    between atoms: C_7  and  C_8 
REMARK    5  A    between atoms: C_18  and  N_19 
REMARK       I    between atoms: N_19  and  C_20 
REMARK    6  A    between atoms: C_20  and  C_21 
REMARK    7  A    between atoms: C_29  and  C_30 
REMARK    8  A    between atoms: C_30  and  O_31 
REMARK    9  A    between atoms: C_33  and  O_34 
ROOT
HETATM    1  C   UNL     1      19.146  50.503  45.292  1.00  0.00     0.016 C 
HETATM    2  C   UNL     1      18.643  49.690  46.538  1.00  0.00    -0.030 C 
HETATM    3  C   UNL     1      19.721  48.498  46.711  1.00  0.00     0.056 C 
HETATM    4  C   UNL     1      20.799  48.874  47.701  1.00  0.00     0.056 A 
HETATM    5  C   UNL     1      20.876  50.094  48.335  1.00  0.00     0.012 A 
HETATM    6  S   UNL     1      22.246  50.163  49.329  1.00  0.00    -0.055 SA
HETATM    7  C   UNL     1      22.655  48.573  48.869  1.00  0.00     0.173 A 
HETATM    8  N   UNL     1      21.833  48.005  48.009  1.00  0.00    -0.227 NA
HETATM    9  C   UNL     1      19.934  51.228  48.197  1.00  0.00     0.055 C 
HETATM   10  C   UNL     1      18.541  50.729  47.749  1.00  0.00     0.012 C 
HETATM   11  C   UNL     1      17.575  50.340  48.946  1.00  0.00     0.008 C 
HETATM   12  C   UNL     1      17.308  51.599  49.825  1.00  0.00     0.020 C 
HETATM   13  C   UNL     1      16.207  49.868  48.375  1.00  0.00     0.128 C 
HETATM   14  C   UNL     1      16.354  48.766  47.329  1.00  0.00     0.033 C 
HETATM   15  C   UNL     1      17.218  49.216  46.152  1.00  0.00     0.013 C 
ENDROOT
BRANCH   3  16
HETATM   16  C   UNL     1      19.156  47.088  46.967  1.00  0.00     0.114 C 
BRANCH  16  17
HETATM   17  C   UNL     1      19.959  45.893  46.475  1.00  0.00     0.218 C 
HETATM   18  N   UNL     1      20.620  45.167  47.443  1.00  0.00    -0.357 N 
HETATM   19  H   UNL     1      20.631  45.534  48.383  1.00  0.00     0.162 HD
HETATM   20  O   UNL     1      20.129  45.708  45.272  1.00  0.00    -0.274 OA
BRANCH  18  21
HETATM   21  C   UNL     1      21.719  44.289  47.095  1.00  0.00     0.162 C 
BRANCH  21  22
HETATM   22  C   UNL     1      22.505  43.729  48.244  1.00  0.00    -0.023 A 
HETATM   23  C   UNL     1      22.285  44.112  49.563  1.00  0.00     0.125 A 
HETATM   24  N   UNL     1      22.999  43.656  50.621  1.00  0.00    -0.273 NA
HETATM   25  C   UNL     1      23.983  42.772  50.348  1.00  0.00     0.116 A 
HETATM   26  C   UNL     1      24.292  42.329  49.072  1.00  0.00     0.020 A 
HETATM   27  C   UNL     1      23.544  42.822  48.008  1.00  0.00     0.012 A 
ENDBRANCH  21  22
ENDBRANCH  18  21
ENDBRANCH  16  17
ENDBRANCH   3  16
BRANCH  11  28
HETATM   28  C   UNL     1      18.164  49.267  49.893  1.00  0.00     0.176 C 
BRANCH  28  29
HETATM   29  O   UNL     1      18.586  49.851  51.122  1.00  0.00    -0.400 OA
HETATM   30  H   UNL     1      18.983  50.714  50.903  1.00  0.00     0.209 HD
ENDBRANCH  28  29
ENDBRANCH  11  28
BRANCH   7  31
HETATM   31  N   UNL     1      23.749  47.915  49.379  1.00  0.00    -0.305 N 
HETATM   32  C   UNL     1      25.062  48.343  49.324  1.00  0.00     0.227 C 
HETATM   33  O   UNL     1      25.462  49.353  48.738  1.00  0.00    -0.273 OA
HETATM   34  H   UNL     1      23.520  47.042  49.835  1.00  0.00     0.171 HD
BRANCH  32  35
HETATM   35  C   UNL     1      26.052  47.420  50.091  1.00  0.00     0.078 C 
HETATM   36  C   UNL     1      25.672  47.042  51.550  1.00  0.00     0.014 C 
HETATM   37  C   UNL     1      26.197  45.624  51.266  1.00  0.00     0.002 C 
HETATM   38  C   UNL     1      25.961  45.900  49.771  1.00  0.00     0.014 C 
ENDBRANCH  32  35
ENDBRANCH   7  31
BRANCH  13  39
HETATM   39  O   UNL     1      15.523  50.956  47.740  1.00  0.00    -0.395 OA
HETATM   40  H   UNL     1      14.571  50.818  47.887  1.00  0.00     0.210 HD
ENDBRANCH  13  39
TORSDOF 9
ENDMDL
MODEL 3
REMARK VINA RESULT:      -7.4      3.303      7.332
REMARK  9 active torsions:
REMARK  status: ('A' for Active; 'I' for Inactive)
REMARK    1  A    between atoms: C_3  and  C_4 
REMARK    2  A    between atoms: C_4  and  C_5 
REMARK       I    between atoms: C_5  and  N_6 
REMARK    3  A    between atoms: N_6  and  C_7 
REMARK    4  A    between atoms: C_7  and  C_8 
REMARK    5  A    between atoms: C_18  and  N_19 
REMARK       I    between atoms: N_19  and  C_20 
REMARK    6  A    between atoms: C_20  and  C_21 
REMARK    7  A    between atoms: C_29  and  C_30 
REMARK    8  A    between atoms: C_30  and  O_31 
REMARK    9  A    between atoms: C_33  and  O_34 
ROOT
HETATM    1  C   UNL     1      16.536  47.211  49.320  1.00  0.00     0.016 C 
HETATM    2  C   UNL     1      17.126  47.810  47.994  1.00  0.00    -0.030 C 
HETATM    3  C   UNL     1      18.309  48.797  48.482  1.00  0.00     0.056 C 
HETATM    4  C   UNL     1      19.647  48.097  48.471  1.00  0.00     0.056 A 
HETATM    5  C   UNL     1      19.825  46.774  48.133  1.00  0.00     0.012 A 
HETATM    6  S   UNL     1      21.454  46.335  48.287  1.00  0.00    -0.055 SA
HETATM    7  C   UNL     1      21.831  47.922  48.785  1.00  0.00     0.173 A 
HETATM    8  N   UNL     1      20.808  48.750  48.852  1.00  0.00    -0.227 NA
HETATM    9  C   UNL     1      18.779  45.818  47.704  1.00  0.00     0.055 C 
HETATM   10  C   UNL     1      17.573  46.568  47.092  1.00  0.00     0.012 C 
HETATM   11  C   UNL     1      17.691  46.822  45.531  1.00  0.00     0.008 C 
HETATM   12  C   UNL     1      17.757  45.455  44.787  1.00  0.00     0.020 C 
HETATM   13  C   UNL     1      16.420  47.568  45.030  1.00  0.00     0.128 C 
HETATM   14  C   UNL     1      16.125  48.831  45.832  1.00  0.00     0.033 C 
HETATM   15  C   UNL     1      15.929  48.526  47.316  1.00  0.00     0.013 C 
ENDROOT
BRANCH   3  16
HETATM   16  C   UNL     1      18.367  50.186  47.816  1.00  0.00     0.114 C 
BRANCH  16  17
HETATM   17  C   UNL     1      18.059  51.406  48.672  1.00  0.00     0.218 C 
HETATM   18  N   UNL     1      16.884  51.359  49.392  1.00  0.00    -0.357 N 
HETATM   19  H   UNL     1      16.255  50.589  49.220  1.00  0.00     0.162 HD
HETATM   20  O   UNL     1      18.742  52.423  48.577  1.00  0.00    -0.274 OA
BRANCH  18  21
HETATM   21  C   UNL     1      16.276  52.570  49.903  1.00  0.00     0.162 C 
BRANCH  21  22
HETATM   22  C   UNL     1      15.393  53.320  48.948  1.00  0.00    -0.023 A 
HETATM   23  C   UNL     1      14.689  54.462  49.316  1.00  0.00     0.125 A 
HETATM   24  N   UNL     1      13.855  55.143  48.492  1.00  0.00    -0.273 NA
HETATM   25  C   UNL     1      13.718  54.660  47.239  1.00  0.00     0.116 A 
HETATM   26  C   UNL     1      14.366  53.528  46.772  1.00  0.00     0.020 A 
HETATM   27  C   UNL     1      15.209  52.848  47.644  1.00  0.00     0.012 A 
ENDBRANCH  21  22
ENDBRANCH  18  21
ENDBRANCH  16  17
ENDBRANCH   3  16
BRANCH  11  28
HETATM   28  C   UNL     1      18.967  47.599  45.125  1.00  0.00     0.176 C 
BRANCH  28  29
HETATM   29  O   UNL     1      19.945  46.719  44.578  1.00  0.00    -0.400 OA
HETATM   30  H   UNL     1      20.205  47.088  43.714  1.00  0.00     0.209 HD
ENDBRANCH  28  29
ENDBRANCH  11  28
BRANCH   7  31
HETATM   31  N   UNL     1      23.116  48.320  49.070  1.00  0.00    -0.305 N 
HETATM   32  C   UNL     1      23.865  49.241  48.363  1.00  0.00     0.227 C 
HETATM   33  O   UNL     1      23.516  49.795  47.317  1.00  0.00    -0.273 OA
HETATM   34  H   UNL     1      23.505  47.872  49.889  1.00  0.00     0.171 HD
BRANCH  32  35
HETATM   35  C   UNL     1      25.246  49.550  49.009  1.00  0.00     0.078 C 
HETATM   36  C   UNL     1      26.106  48.329  49.444  1.00  0.00     0.014 C 
HETATM   37  C   UNL     1      27.344  49.082  48.929  1.00  0.00     0.002 C 
HETATM   38  C   UNL     1      26.401  49.896  48.026  1.00  0.00     0.014 C 
ENDBRANCH  32  35
ENDBRANCH   7  31
BRANCH  13  39
HETATM   39  O   UNL     1      15.266  46.726  45.140  1.00  0.00    -0.395 OA
HETATM   40  H   UNL     1      15.085  46.613  46.090  1.00  0.00     0.210 HD
ENDBRANCH  13  39
TORSDOF 9
ENDMDL
MODEL 4
REMARK VINA RESULT:      -7.3     15.509     18.881
REMARK  9 active torsions:
REMARK  status: ('A' for Active; 'I' for Inactive)
REMARK    1  A    between atoms: C_3  and  C_4 
REMARK    2  A    between atoms: C_4  and  C_5 
REMARK       I    between atoms: C_5  and  N_6 
REMARK    3  A    between atoms: N_6  and  C_7 
REMARK    4  A    between atoms: C_7  and  C_8 
REMARK    5  A    between atoms: C_18  and  N_19 
REMARK       I    between atoms: N_19  and  C_20 
REMARK    6  A    between atoms: C_20  and  C_21 
REMARK    7  A    between atoms: C_29  and  C_30 
REMARK    8  A    between atoms: C_30  and  O_31 
REMARK    9  A    between atoms: C_33  and  O_34 
ROOT
HETATM    1  C   UNL     1      40.409  53.960  42.724  1.00  0.00     0.016 C 
HETATM    2  C   UNL     1      39.589  53.760  44.048  1.00  0.00    -0.030 C 
HETATM    3  C   UNL     1      38.787  52.373  43.826  1.00  0.00     0.056 C 
HETATM    4  C   UNL     1      39.544  51.204  44.409  1.00  0.00     0.056 A 
HETATM    5  C   UNL     1      40.779  51.303  45.010  1.00  0.00     0.012 A 
HETATM    6  S   UNL     1      41.330  49.776  45.493  1.00  0.00    -0.055 SA
HETATM    7  C   UNL     1      39.900  49.072  44.887  1.00  0.00     0.173 A 
HETATM    8  N   UNL     1      39.047  49.912  44.337  1.00  0.00    -0.227 NA
HETATM    9  C   UNL     1      41.569  52.538  45.217  1.00  0.00     0.055 C 
HETATM   10  C   UNL     1      40.646  53.778  45.247  1.00  0.00     0.012 C 
HETATM   11  C   UNL     1      40.088  54.137  46.688  1.00  0.00     0.008 C 
HETATM   12  C   UNL     1      41.279  54.478  47.633  1.00  0.00     0.020 C 
HETATM   13  C   UNL     1      39.187  55.403  46.593  1.00  0.00     0.128 C 
HETATM   14  C   UNL     1      38.097  55.272  45.534  1.00  0.00     0.033 C 
HETATM   15  C   UNL     1      38.685  55.016  44.147  1.00  0.00     0.013 C 
ENDROOT
BRANCH   3  16
HETATM   16  C   UNL     1      37.298  52.366  44.223  1.00  0.00     0.114 C 
BRANCH  16  17
HETATM   17  C   UNL     1      36.259  52.417  43.113  1.00  0.00     0.218 C 
HETATM   18  N   UNL     1      35.354  51.377  43.083  1.00  0.00    -0.357 N 
HETATM   19  H   UNL     1      35.505  50.601  43.711  1.00  0.00     0.162 HD
HETATM   20  O   UNL     1      36.347  53.248  42.213  1.00  0.00    -0.274 OA
BRANCH  18  21
HETATM   21  C   UNL     1      34.599  51.081  41.883  1.00  0.00     0.162 C 
BRANCH  21  22
HETATM   22  C   UNL     1      33.413  50.176  42.054  1.00  0.00    -0.023 A 
HETATM   23  C   UNL     1      32.410  50.422  42.986  1.00  0.00     0.125 A 
HETATM   24  N   UNL     1      31.345  49.609  43.195  1.00  0.00    -0.273 NA
HETATM   25  C   UNL     1      31.280  48.494  42.434  1.00  0.00     0.116 A 
HETATM   26  C   UNL     1      32.228  48.150  41.485  1.00  0.00     0.020 A 
HETATM   27  C   UNL     1      33.311  49.002  41.300  1.00  0.00     0.012 A 
ENDBRANCH  21  22
ENDBRANCH  18  21
ENDBRANCH  16  17
ENDBRANCH   3  16
BRANCH  11  28
HETATM   28  C   UNL     1      39.318  52.976  47.361  1.00  0.00     0.176 C 
BRANCH  28  29
HETATM   29  O   UNL     1      38.648  53.424  48.536  1.00  0.00    -0.400 OA
HETATM   30  H   UNL     1      37.710  53.178  48.438  1.00  0.00     0.209 HD
ENDBRANCH  28  29
ENDBRANCH  11  28
BRANCH   7  31
HETATM   31  N   UNL     1      39.640  47.726  44.990  1.00  0.00    -0.305 N 
HETATM   32  C   UNL     1      40.524  46.697  44.728  1.00  0.00     0.227 C 
HETATM   33  O   UNL     1      41.669  46.831  44.287  1.00  0.00    -0.273 OA
HETATM   34  H   UNL     1      38.698  47.519  45.296  1.00  0.00     0.171 HD
BRANCH  32  35
HETATM   35  C   UNL     1      39.950  45.285  45.044  1.00  0.00     0.078 C 
HETATM   36  C   UNL     1      40.310  44.144  44.051  1.00  0.00     0.014 C 
HETATM   37  C   UNL     1      40.468  43.209  45.262  1.00  0.00     0.002 C 
HETATM   38  C   UNL     1      40.710  44.461  46.123  1.00  0.00     0.014 C 
ENDBRANCH  32  35
ENDBRANCH   7  31
BRANCH  13  39
HETATM   39  O   UNL     1      39.969  56.553  46.246  1.00  0.00    -0.395 OA
HETATM   40  H   UNL     1      39.853  56.698  45.290  1.00  0.00     0.210 HD
ENDBRANCH  13  39
TORSDOF 9
ENDMDL
MODEL 5
REMARK VINA RESULT:      -7.2      2.342      4.862
REMARK  9 active torsions:
REMARK  status: ('A' for Active; 'I' for Inactive)
REMARK    1  A    between atoms: C_3  and  C_4 
REMARK    2  A    between atoms: C_4  and  C_5 
REMARK       I    between atoms: C_5  and  N_6 
REMARK    3  A    between atoms: N_6  and  C_7 
REMARK    4  A    between atoms: C_7  and  C_8 
REMARK    5  A    between atoms: C_18  and  N_19 
REMARK       I    between atoms: N_19  and  C_20 
REMARK    6  A    between atoms: C_20  and  C_21 
REMARK    7  A    between atoms: C_29  and  C_30 
REMARK    8  A    between atoms: C_30  and  O_31 
REMARK    9  A    between atoms: C_33  and  O_34 
ROOT
HETATM    1  C   UNL     1      18.781  50.536  45.205  1.00  0.00     0.016 C 
HETATM    2  C   UNL     1      18.131  49.962  46.513  1.00  0.00    -0.030 C 
HETATM    3  C   UNL     1      18.668  48.439  46.602  1.00  0.00     0.056 C 
HETATM    4  C   UNL     1      19.901  48.343  47.468  1.00  0.00     0.056 A 
HETATM    5  C   UNL     1      20.514  49.422  48.064  1.00  0.00     0.012 A 
HETATM    6  S   UNL     1      21.896  48.929  48.911  1.00  0.00    -0.055 SA
HETATM    7  C   UNL     1      21.600  47.315  48.447  1.00  0.00     0.173 A 
HETATM    8  N   UNL     1      20.538  47.132  47.689  1.00  0.00    -0.227 NA
HETATM    9  C   UNL     1      20.084  50.837  47.998  1.00  0.00     0.055 C 
HETATM   10  C   UNL     1      18.568  50.933  47.706  1.00  0.00     0.012 C 
HETATM   11  C   UNL     1      17.656  50.931  49.003  1.00  0.00     0.008 C 
HETATM   12  C   UNL     1      17.995  52.176  49.876  1.00  0.00     0.020 C 
HETATM   13  C   UNL     1      16.161  51.043  48.585  1.00  0.00     0.128 C 
HETATM   14  C   UNL     1      15.757  49.993  47.555  1.00  0.00     0.033 C 
HETATM   15  C   UNL     1      16.602  50.092  46.286  1.00  0.00     0.013 C 
ENDROOT
BRANCH   3  16
HETATM   16  C   UNL     1      17.624  47.358  46.945  1.00  0.00     0.114 C 
BRANCH  16  17
HETATM   17  C   UNL     1      17.735  46.008  46.253  1.00  0.00     0.218 C 
HETATM   18  N   UNL     1      18.631  45.116  46.805  1.00  0.00    -0.357 N 
HETATM   19  H   UNL     1      19.232  45.448  47.546  1.00  0.00     0.162 HD
HETATM   20  O   UNL     1      17.180  45.812  45.175  1.00  0.00    -0.274 OA
BRANCH  18  21
HETATM   21  C   UNL     1      19.131  43.993  46.040  1.00  0.00     0.162 C 
BRANCH  21  22
HETATM   22  C   UNL     1      20.584  44.046  45.663  1.00  0.00    -0.023 A 
HETATM   23  C   UNL     1      21.200  45.207  45.209  1.00  0.00     0.125 A 
HETATM   24  N   UNL     1      22.498  45.283  44.825  1.00  0.00    -0.273 NA
HETATM   25  C   UNL     1      23.216  44.142  44.900  1.00  0.00     0.116 A 
HETATM   26  C   UNL     1      22.701  42.931  45.330  1.00  0.00     0.020 A 
HETATM   27  C   UNL     1      21.364  42.885  45.710  1.00  0.00     0.012 A 
ENDBRANCH  21  22
ENDBRANCH  18  21
ENDBRANCH  16  17
ENDBRANCH   3  16
BRANCH  11  28
HETATM   28  C   UNL     1      17.871  49.694  49.908  1.00  0.00     0.176 C 
BRANCH  28  29
HETATM   29  O   UNL     1      18.675  50.024  51.037  1.00  0.00    -0.400 OA
HETATM   30  H   UNL     1      19.494  49.501  50.963  1.00  0.00     0.209 HD
ENDBRANCH  28  29
ENDBRANCH  11  28
BRANCH   7  31
HETATM   31  N   UNL     1      22.396  46.272  48.857  1.00  0.00    -0.305 N 
HETATM   32  C   UNL     1      21.984  44.979  49.118  1.00  0.00     0.227 C 
HETATM   33  O   UNL     1      20.815  44.582  49.094  1.00  0.00    -0.273 OA
HETATM   34  H   UNL     1      23.371  46.522  48.957  1.00  0.00     0.171 HD
BRANCH  32  35
HETATM   35  C   UNL     1      23.150  44.009  49.461  1.00  0.00     0.078 C 
HETATM   36  C   UNL     1      22.979  42.525  49.026  1.00  0.00     0.014 C 
HETATM   37  C   UNL     1      24.469  42.519  48.641  1.00  0.00     0.002 C 
HETATM   38  C   UNL     1      24.380  44.050  48.508  1.00  0.00     0.014 C 
ENDBRANCH  32  35
ENDBRANCH   7  31
BRANCH  13  39
HETATM   39  O   UNL     1      15.897  52.324  47.999  1.00  0.00    -0.395 OA
HETATM   40  H   UNL     1      14.934  52.385  47.868  1.00  0.00     0.210 HD
ENDBRANCH  13  39
TORSDOF 9
ENDMDL
MODEL 6
REMARK VINA RESULT:      -6.9      2.638      7.187
REMARK  9 active torsions:
REMARK  status: ('A' for Active; 'I' for Inactive)
REMARK    1  A    between atoms: C_3  and  C_4 
REMARK    2  A    between atoms: C_4  and  C_5 
REMARK       I    between atoms: C_5  and  N_6 
REMARK    3  A    between atoms: N_6  and  C_7 
REMARK    4  A    between atoms: C_7  and  C_8 
REMARK    5  A    between atoms: C_18  and  N_19 
REMARK       I    between atoms: N_19  and  C_20 
REMARK    6  A    between atoms: C_20  and  C_21 
REMARK    7  A    between atoms: C_29  and  C_30 
REMARK    8  A    between atoms: C_30  and  O_31 
REMARK    9  A    between atoms: C_33  and  O_34 
ROOT
HETATM    1  C   UNL     1      18.941  44.394  47.186  1.00  0.00     0.016 C 
HETATM    2  C   UNL     1      20.119  44.973  46.325  1.00  0.00    -0.030 C 
HETATM    3  C   UNL     1      20.911  45.963  47.329  1.00  0.00     0.056 C 
HETATM    4  C   UNL     1      22.069  45.257  47.993  1.00  0.00     0.056 A 
HETATM    5  C   UNL     1      22.379  43.929  47.801  1.00  0.00     0.012 A 
HETATM    6  S   UNL     1      23.710  43.485  48.751  1.00  0.00    -0.055 SA
HETATM    7  C   UNL     1      23.804  45.076  49.356  1.00  0.00     0.173 A 
HETATM    8  N   UNL     1      22.892  45.909  48.896  1.00  0.00    -0.227 NA
HETATM    9  C   UNL     1      21.677  42.971  46.916  1.00  0.00     0.055 C 
HETATM   10  C   UNL     1      20.944  43.718  45.777  1.00  0.00     0.012 C 
HETATM   11  C   UNL     1      21.827  43.952  44.481  1.00  0.00     0.008 C 
HETATM   12  C   UNL     1      22.242  42.575  43.882  1.00  0.00     0.020 C 
HETATM   13  C   UNL     1      20.982  44.696  43.406  1.00  0.00     0.128 C 
HETATM   14  C   UNL     1      20.339  45.971  43.942  1.00  0.00     0.033 C 
HETATM   15  C   UNL     1      19.426  45.686  45.134  1.00  0.00     0.013 C 
ENDROOT
BRANCH   3  16
HETATM   16  C   UNL     1      21.307  47.342  46.768  1.00  0.00     0.114 C 
BRANCH  16  17
HETATM   17  C   UNL     1      21.748  48.417  47.751  1.00  0.00     0.218 C 
HETATM   18  N   UNL     1      20.975  48.554  48.885  1.00  0.00    -0.357 N 
HETATM   19  H   UNL     1      20.115  48.029  48.936  1.00  0.00     0.162 HD
HETATM   20  O   UNL     1      22.636  49.211  47.451  1.00  0.00    -0.274 OA
BRANCH  18  21
HETATM   21  C   UNL     1      21.024  49.766  49.677  1.00  0.00     0.162 C 
BRANCH  21  22
HETATM   22  C   UNL     1      19.866  50.708  49.515  1.00  0.00    -0.023 A 
HETATM   23  C   UNL     1      18.673  50.557  50.214  1.00  0.00     0.125 A 
HETATM   24  N   UNL     1      17.594  51.365  50.066  1.00  0.00    -0.273 NA
HETATM   25  C   UNL     1      17.714  52.374  49.177  1.00  0.00     0.116 A 
HETATM   26  C   UNL     1      18.852  52.610  48.424  1.00  0.00     0.020 A 
HETATM   27  C   UNL     1      19.939  51.759  48.594  1.00  0.00     0.012 A 
ENDBRANCH  21  22
ENDBRANCH  18  21
ENDBRANCH  16  17
ENDBRANCH   3  16
BRANCH  11  28
HETATM   28  C   UNL     1      23.143  44.718  44.758  1.00  0.00     0.176 C 
BRANCH  28  29
HETATM   29  O   UNL     1      24.275  43.917  44.435  1.00  0.00    -0.400 OA
HETATM   30  H   UNL     1      24.558  43.481  45.260  1.00  0.00     0.209 HD
ENDBRANCH  28  29
ENDBRANCH  11  28
BRANCH   7  31
HETATM   31  N   UNL     1      24.779  45.473  50.239  1.00  0.00    -0.305 N 
HETATM   32  C   UNL     1      24.912  45.065  51.553  1.00  0.00     0.227 C 
HETATM   33  O   UNL     1      24.123  44.333  52.158  1.00  0.00    -0.273 OA
HETATM   34  H   UNL     1      25.446  46.122  49.841  1.00  0.00     0.171 HD
BRANCH  32  35
HETATM   35  C   UNL     1      26.187  45.616  52.253  1.00  0.00     0.078 C 
HETATM   36  C   UNL     1      26.191  47.130  52.611  1.00  0.00     0.014 C 
HETATM   37  C   UNL     1      26.889  46.763  53.932  1.00  0.00     0.002 C 
HETATM   38  C   UNL     1      26.302  45.349  53.781  1.00  0.00     0.014 C 
ENDBRANCH  32  35
ENDBRANCH   7  31
BRANCH  13  39
HETATM   39  O   UNL     1      19.919  43.860  42.934  1.00  0.00    -0.395 OA
HETATM   40  H   UNL     1      19.490  43.475  43.718  1.00  0.00     0.210 HD
ENDBRANCH  13  39
TORSDOF 9
ENDMDL
MODEL 7
REMARK VINA RESULT:      -6.9      3.012      6.761
REMARK  9 active torsions:
REMARK  status: ('A' for Active; 'I' for Inactive)
REMARK    1  A    between atoms: C_3  and  C_4 
REMARK    2  A    between atoms: C_4  and  C_5 
REMARK       I    between atoms: C_5  and  N_6 
REMARK    3  A    between atoms: N_6  and  C_7 
REMARK    4  A    between atoms: C_7  and  C_8 
REMARK    5  A    between atoms: C_18  and  N_19 
REMARK       I    between atoms: N_19  and  C_20 
REMARK    6  A    between atoms: C_20  and  C_21 
REMARK    7  A    between atoms: C_29  and  C_30 
REMARK    8  A    between atoms: C_30  and  O_31 
REMARK    9  A    between atoms: C_33  and  O_34 
ROOT
HETATM    1  C   UNL     1      18.940  49.858  45.431  1.00  0.00     0.016 C 
HETATM    2  C   UNL     1      18.473  49.543  46.897  1.00  0.00    -0.030 C 
HETATM    3  C   UNL     1      19.394  48.297  47.359  1.00  0.00     0.056 C 
HETATM    4  C   UNL     1      20.615  48.768  48.112  1.00  0.00     0.056 A 
HETATM    5  C   UNL     1      20.926  50.091  48.333  1.00  0.00     0.012 A 
HETATM    6  S   UNL     1      22.395  50.227  49.166  1.00  0.00    -0.055 SA
HETATM    7  C   UNL     1      22.532  48.528  49.193  1.00  0.00     0.173 A 
HETATM    8  N   UNL     1      21.551  47.873  48.606  1.00  0.00    -0.227 NA
HETATM    9  C   UNL     1      20.136  51.271  47.912  1.00  0.00     0.055 C 
HETATM   10  C   UNL     1      18.647  50.895  47.732  1.00  0.00     0.012 C 
HETATM   11  C   UNL     1      17.777  51.039  49.050  1.00  0.00     0.008 C 
HETATM   12  C   UNL     1      17.782  52.527  49.513  1.00  0.00     0.020 C 
HETATM   13  C   UNL     1      16.303  50.648  48.743  1.00  0.00     0.128 C 
HETATM   14  C   UNL     1      16.183  49.278  48.082  1.00  0.00     0.033 C 
HETATM   15  C   UNL     1      16.963  49.214  46.769  1.00  0.00     0.013 C 
ENDROOT
BRANCH   3  16
HETATM   16  C   UNL     1      18.675  47.136  48.074  1.00  0.00     0.114 C 
BRANCH  16  17
HETATM   17  C   UNL     1      18.374  45.877  47.275  1.00  0.00     0.218 C 
HETATM   18  N   UNL     1      18.643  45.939  45.924  1.00  0.00    -0.357 N 
HETATM   19  H   UNL     1      18.905  46.833  45.535  1.00  0.00     0.162 HD
HETATM   20  O   UNL     1      17.770  44.939  47.791  1.00  0.00    -0.274 OA
BRANCH  18  21
HETATM   21  C   UNL     1      18.040  45.000  45.001  1.00  0.00     0.162 C 
BRANCH  21  22
HETATM   22  C   UNL     1      16.664  45.348  44.509  1.00  0.00    -0.023 A 
HETATM   23  C   UNL     1      15.758  44.387  44.074  1.00  0.00     0.125 A 
HETATM   24  N   UNL     1      14.522  44.666  43.589  1.00  0.00    -0.273 NA
HETATM   25  C   UNL     1      14.176  45.970  43.538  1.00  0.00     0.116 A 
HETATM   26  C   UNL     1      15.004  47.007  43.938  1.00  0.00     0.020 A 
HETATM   27  C   UNL     1      16.267  46.686  44.424  1.00  0.00     0.012 A 
ENDBRANCH  21  22
ENDBRANCH  18  21
ENDBRANCH  16  17
ENDBRANCH   3  16
BRANCH  11  28
HETATM   28  C   UNL     1      18.318  50.213  50.242  1.00  0.00     0.176 C 
BRANCH  28  29
HETATM   29  O   UNL     1      19.297  50.950  50.968  1.00  0.00    -0.400 OA
HETATM   30  H   UNL     1      18.836  51.703  51.380  1.00  0.00     0.209 HD
ENDBRANCH  28  29
ENDBRANCH  11  28
BRANCH   7  31
HETATM   31  N   UNL     1      23.578  47.882  49.809  1.00  0.00    -0.305 N 
HETATM   32  C   UNL     1      24.923  48.128  49.614  1.00  0.00     0.227 C 
HETATM   33  O   UNL     1      25.394  48.922  48.794  1.00  0.00    -0.273 OA
HETATM   34  H   UNL     1      23.283  47.170  50.465  1.00  0.00     0.171 HD
BRANCH  32  35
HETATM   35  C   UNL     1      25.852  47.297  50.545  1.00  0.00     0.078 C 
HETATM   36  C   UNL     1      25.261  46.859  51.915  1.00  0.00     0.014 C 
HETATM   37  C   UNL     1      25.970  45.506  51.731  1.00  0.00     0.002 C 
HETATM   38  C   UNL     1      25.974  45.781  50.218  1.00  0.00     0.014 C 
ENDBRANCH  32  35
ENDBRANCH   7  31
BRANCH  13  39
HETATM   39  O   UNL     1      15.706  51.595  47.849  1.00  0.00    -0.395 OA
HETATM   40  H   UNL     1      15.227  51.085  47.171  1.00  0.00     0.210 HD
ENDBRANCH  13  39
TORSDOF 9
ENDMDL
MODEL 8
REMARK VINA RESULT:      -6.7      3.107      6.619
REMARK  9 active torsions:
REMARK  status: ('A' for Active; 'I' for Inactive)
REMARK    1  A    between atoms: C_3  and  C_4 
REMARK    2  A    between atoms: C_4  and  C_5 
REMARK       I    between atoms: C_5  and  N_6 
REMARK    3  A    between atoms: N_6  and  C_7 
REMARK    4  A    between atoms: C_7  and  C_8 
REMARK    5  A    between atoms: C_18  and  N_19 
REMARK       I    between atoms: N_19  and  C_20 
REMARK    6  A    between atoms: C_20  and  C_21 
REMARK    7  A    between atoms: C_29  and  C_30 
REMARK    8  A    between atoms: C_30  and  O_31 
REMARK    9  A    between atoms: C_33  and  O_34 
ROOT
HETATM    1  C   UNL     1      21.992  45.657  45.023  1.00  0.00     0.016 C 
HETATM    2  C   UNL     1      21.196  45.346  46.341  1.00  0.00    -0.030 C 
HETATM    3  C   UNL     1      22.319  44.836  47.386  1.00  0.00     0.056 C 
HETATM    4  C   UNL     1      22.820  45.971  48.248  1.00  0.00     0.056 A 
HETATM    5  C   UNL     1      22.406  47.278  48.124  1.00  0.00     0.012 A 
HETATM    6  S   UNL     1      23.227  48.269  49.227  1.00  0.00    -0.055 SA
HETATM    7  C   UNL     1      24.077  46.911  49.810  1.00  0.00     0.173 A 
HETATM    8  N   UNL     1      23.789  45.769  49.218  1.00  0.00    -0.227 NA
HETATM    9  C   UNL     1      21.403  47.806  47.172  1.00  0.00     0.055 C 
HETATM   10  C   UNL     1      20.425  46.691  46.736  1.00  0.00     0.012 C 
HETATM   11  C   UNL     1      19.154  46.538  47.672  1.00  0.00     0.008 C 
HETATM   12  C   UNL     1      18.327  47.858  47.640  1.00  0.00     0.020 C 
HETATM   13  C   UNL     1      18.243  45.400  47.128  1.00  0.00     0.128 C 
HETATM   14  C   UNL     1      19.000  44.093  46.912  1.00  0.00     0.033 C 
HETATM   15  C   UNL     1      20.160  44.267  45.933  1.00  0.00     0.013 C 
ENDROOT
BRANCH   3  16
HETATM   16  C   UNL     1      21.975  43.581  48.210  1.00  0.00     0.114 C 
BRANCH  16  17
HETATM   17  C   UNL     1      22.959  42.420  48.194  1.00  0.00     0.218 C 
HETATM   18  N   UNL     1      24.186  42.658  48.775  1.00  0.00    -0.357 N 
HETATM   19  H   UNL     1      24.397  43.602  49.063  1.00  0.00     0.162 HD
HETATM   20  O   UNL     1      22.714  41.404  47.547  1.00  0.00    -0.274 OA
BRANCH  18  21
HETATM   21  C   UNL     1      25.328  41.818  48.475  1.00  0.00     0.162 C 
BRANCH  21  22
HETATM   22  C   UNL     1      26.313  41.620  49.591  1.00  0.00    -0.023 A 
HETATM   23  C   UNL     1      27.228  40.572  49.606  1.00  0.00     0.125 A 
HETATM   24  N   UNL     1      28.107  40.340  50.612  1.00  0.00    -0.273 NA
HETATM   25  C   UNL     1      28.069  41.197  51.655  1.00  0.00     0.116 A 
HETATM   26  C   UNL     1      27.194  42.267  51.745  1.00  0.00     0.020 A 
HETATM   27  C   UNL     1      26.301  42.474  50.699  1.00  0.00     0.012 A 
ENDBRANCH  21  22
ENDBRANCH  18  21
ENDBRANCH  16  17
ENDBRANCH   3  16
BRANCH  11  28
HETATM   28  C   UNL     1      19.507  46.283  49.157  1.00  0.00     0.176 C 
BRANCH  28  29
HETATM   29  O   UNL     1      19.270  47.448  49.943  1.00  0.00    -0.400 OA
HETATM   30  H   UNL     1      19.283  48.208  49.332  1.00  0.00     0.209 HD
ENDBRANCH  28  29
ENDBRANCH  11  28
BRANCH   7  31
HETATM   31  N   UNL     1      24.979  46.993  50.843  1.00  0.00    -0.305 N 
HETATM   32  C   UNL     1      25.139  46.080  51.868  1.00  0.00     0.227 C 
HETATM   33  O   UNL     1      24.437  45.081  52.052  1.00  0.00    -0.273 OA
HETATM   34  H   UNL     1      25.566  47.816  50.803  1.00  0.00     0.171 HD
BRANCH  32  35
HETATM   35  C   UNL     1      26.322  46.411  52.822  1.00  0.00     0.078 C 
HETATM   36  C   UNL     1      26.009  47.334  54.033  1.00  0.00     0.014 C 
HETATM   37  C   UNL     1      26.934  46.447  54.884  1.00  0.00     0.002 C 
HETATM   38  C   UNL     1      26.688  45.318  53.867  1.00  0.00     0.014 C 
ENDBRANCH  32  35
ENDBRANCH   7  31
BRANCH  13  39
HETATM   39  O   UNL     1      17.679  45.768  45.863  1.00  0.00    -0.395 OA
HETATM   40  H   UNL     1      16.711  45.761  45.971  1.00  0.00     0.210 HD
ENDBRANCH  13  39
TORSDOF 9
ENDMDL
MODEL 9
REMARK VINA RESULT:      -6.7     23.197     25.431
REMARK  9 active torsions:
REMARK  status: ('A' for Active; 'I' for Inactive)
REMARK    1  A    between atoms: C_3  and  C_4 
REMARK    2  A    between atoms: C_4  and  C_5 
REMARK       I    between atoms: C_5  and  N_6 
REMARK    3  A    between atoms: N_6  and  C_7 
REMARK    4  A    between atoms: C_7  and  C_8 
REMARK    5  A    between atoms: C_18  and  N_19 
REMARK       I    between atoms: N_19  and  C_20 
REMARK    6  A    between atoms: C_20  and  C_21 
REMARK    7  A    between atoms: C_29  and  C_30 
REMARK    8  A    between atoms: C_30  and  O_31 
REMARK    9  A    between atoms: C_33  and  O_34 
ROOT
HETATM    1  C   UNL     1      36.929  48.027  64.597  1.00  0.00     0.016 C 
HETATM    2  C   UNL     1      37.842  47.026  65.391  1.00  0.00    -0.030 C 
HETATM    3  C   UNL     1      37.073  46.798  66.795  1.00  0.00     0.056 C 
HETATM    4  C   UNL     1      36.194  45.572  66.745  1.00  0.00     0.056 A 
HETATM    5  C   UNL     1      36.033  44.779  65.630  1.00  0.00     0.012 A 
HETATM    6  S   UNL     1      34.932  43.530  65.942  1.00  0.00    -0.055 SA
HETATM    7  C   UNL     1      34.736  44.104  67.535  1.00  0.00     0.173 A 
HETATM    8  N   UNL     1      35.437  45.179  67.837  1.00  0.00    -0.227 NA
HETATM    9  C   UNL     1      36.689  44.953  64.314  1.00  0.00     0.055 C 
HETATM   10  C   UNL     1      38.015  45.734  64.465  1.00  0.00     0.012 C 
HETATM   11  C   UNL     1      39.280  44.818  64.745  1.00  0.00     0.008 C 
HETATM   12  C   UNL     1      39.495  43.852  63.541  1.00  0.00     0.020 C 
HETATM   13  C   UNL     1      40.549  45.710  64.864  1.00  0.00     0.128 C 
HETATM   14  C   UNL     1      40.382  46.840  65.875  1.00  0.00     0.033 C 
HETATM   15  C   UNL     1      39.208  47.750  65.516  1.00  0.00     0.013 C 
ENDROOT
BRANCH   3  16
HETATM   16  C   UNL     1      37.936  46.850  68.070  1.00  0.00     0.114 C 
BRANCH  16  17
HETATM   17  C   UNL     1      37.776  48.045  68.998  1.00  0.00     0.218 C 
HETATM   18  N   UNL     1      36.661  48.829  68.787  1.00  0.00    -0.357 N 
HETATM   19  H   UNL     1      36.095  48.638  67.974  1.00  0.00     0.162 HD
HETATM   20  O   UNL     1      38.681  48.368  69.763  1.00  0.00    -0.274 OA
BRANCH  18  21
HETATM   21  C   UNL     1      36.596  50.184  69.297  1.00  0.00     0.162 C 
BRANCH  21  22
HETATM   22  C   UNL     1      37.058  51.264  68.362  1.00  0.00    -0.023 A 
HETATM   23  C   UNL     1      37.051  52.611  68.710  1.00  0.00     0.125 A 
HETATM   24  N   UNL     1      37.425  53.616  67.880  1.00  0.00    -0.273 NA
HETATM   25  C   UNL     1      37.826  53.257  66.642  1.00  0.00     0.116 A 
HETATM   26  C   UNL     1      37.865  51.948  66.190  1.00  0.00     0.020 A 
HETATM   27  C   UNL     1      37.468  50.942  67.064  1.00  0.00     0.012 A 
ENDBRANCH  21  22
ENDBRANCH  18  21
ENDBRANCH  16  17
ENDBRANCH   3  16
BRANCH  11  28
HETATM   28  C   UNL     1      39.130  43.922  65.998  1.00  0.00     0.176 C 
BRANCH  28  29
HETATM   29  O   UNL     1      38.898  42.566  65.628  1.00  0.00    -0.400 OA
HETATM   30  H   UNL     1      39.745  42.214  65.298  1.00  0.00     0.209 HD
ENDBRANCH  28  29
ENDBRANCH  11  28
BRANCH   7  31
HETATM   31  N   UNL     1      33.927  43.476  68.452  1.00  0.00    -0.305 N 
HETATM   32  C   UNL     1      32.690  42.914  68.205  1.00  0.00     0.227 C 
HETATM   33  O   UNL     1      32.085  42.958  67.129  1.00  0.00    -0.273 OA
HETATM   34  H   UNL     1      34.323  43.440  69.383  1.00  0.00     0.171 HD
BRANCH  32  35
HETATM   35  C   UNL     1      32.078  42.184  69.435  1.00  0.00     0.078 C 
HETATM   36  C   UNL     1      32.690  42.518  70.825  1.00  0.00     0.014 C 
HETATM   37  C   UNL     1      31.266  42.481  71.405  1.00  0.00     0.002 C 
HETATM   38  C   UNL     1      30.744  42.766  69.986  1.00  0.00     0.014 C 
ENDBRANCH  32  35
ENDBRANCH   7  31
BRANCH  13  39
HETATM   39  O   UNL     1      40.856  46.320  63.604  1.00  0.00    -0.395 OA
HETATM   40  H   UNL     1      41.412  45.691  63.111  1.00  0.00     0.210 HD
ENDBRANCH  13  39
TORSDOF 9
ENDMDL
MODEL 10
REMARK VINA RESULT:      -6.7      6.730     11.353
REMARK  9 active torsions:
REMARK  status: ('A' for Active; 'I' for Inactive)
REMARK    1  A    between atoms: C_3  and  C_4 
REMARK    2  A    between atoms: C_4  and  C_5 
REMARK       I    between atoms: C_5  and  N_6 
REMARK    3  A    between atoms: N_6  and  C_7 
REMARK    4  A    between atoms: C_7  and  C_8 
REMARK    5  A    between atoms: C_18  and  N_19 
REMARK       I    between atoms: N_19  and  C_20 
REMARK    6  A    between atoms: C_20  and  C_21 
REMARK    7  A    between atoms: C_29  and  C_30 
REMARK    8  A    between atoms: C_30  and  O_31 
REMARK    9  A    between atoms: C_33  and  O_34 
ROOT
HETATM    1  C   UNL     1      24.451  37.219  46.651  1.00  0.00     0.016 C 
HETATM    2  C   UNL     1      25.279  38.470  46.190  1.00  0.00    -0.030 C 
HETATM    3  C   UNL     1      25.366  39.410  47.502  1.00  0.00     0.056 C 
HETATM    4  C   UNL     1      26.639  39.159  48.273  1.00  0.00     0.056 A 
HETATM    5  C   UNL     1      27.581  38.216  47.926  1.00  0.00     0.012 A 
HETATM    6  S   UNL     1      28.843  38.191  49.056  1.00  0.00    -0.055 SA
HETATM    7  C   UNL     1      28.075  39.434  49.936  1.00  0.00     0.173 A 
HETATM    8  N   UNL     1      26.929  39.852  49.437  1.00  0.00    -0.227 NA
HETATM    9  C   UNL     1      27.543  37.312  46.754  1.00  0.00     0.055 C 
HETATM   10  C   UNL     1      26.670  37.915  45.629  1.00  0.00     0.012 C 
HETATM   11  C   UNL     1      27.462  38.851  44.623  1.00  0.00     0.008 C 
HETATM   12  C   UNL     1      28.563  38.020  43.900  1.00  0.00     0.020 C 
HETATM   13  C   UNL     1      26.486  39.385  43.535  1.00  0.00     0.128 C 
HETATM   14  C   UNL     1      25.243  40.042  44.128  1.00  0.00     0.033 C 
HETATM   15  C   UNL     1      24.463  39.075  45.018  1.00  0.00     0.013 C 
ENDROOT
BRANCH   3  16
HETATM   16  C   UNL     1      25.092  40.912  47.294  1.00  0.00     0.114 C 
BRANCH  16  17
HETATM   17  C   UNL     1      24.044  41.580  48.172  1.00  0.00     0.218 C 
HETATM   18  N   UNL     1      24.462  42.691  48.874  1.00  0.00    -0.357 N 
HETATM   19  H   UNL     1      25.445  42.919  48.857  1.00  0.00     0.162 HD
HETATM   20  O   UNL     1      22.954  41.045  48.360  1.00  0.00    -0.274 OA
BRANCH  18  21
HETATM   21  C   UNL     1      23.723  43.164  50.027  1.00  0.00     0.162 C 
BRANCH  21  22
HETATM   22  C   UNL     1      24.406  44.204  50.868  1.00  0.00    -0.023 A 
HETATM   23  C   UNL     1      24.392  45.557  50.545  1.00  0.00     0.125 A 
HETATM   24  N   UNL     1      25.027  46.519  51.259  1.00  0.00    -0.273 NA
HETATM   25  C   UNL     1      25.711  46.108  52.349  1.00  0.00     0.116 A 
HETATM   26  C   UNL     1      25.797  44.787  52.755  1.00  0.00     0.020 A 
HETATM   27  C   UNL     1      25.139  43.824  51.997  1.00  0.00     0.012 A 
ENDBRANCH  21  22
ENDBRANCH  18  21
ENDBRANCH  16  17
ENDBRANCH   3  16
BRANCH  11  28
HETATM   28  C   UNL     1      28.191  40.027  45.317  1.00  0.00     0.176 C 
BRANCH  28  29
HETATM   29  O   UNL     1      28.701  40.947  44.355  1.00  0.00    -0.400 OA
HETATM   30  H   UNL     1      29.537  41.295  44.713  1.00  0.00     0.209 HD
ENDBRANCH  28  29
ENDBRANCH  11  28
BRANCH   7  31
HETATM   31  N   UNL     1      28.625  39.983  51.070  1.00  0.00    -0.305 N 
HETATM   32  C   UNL     1      28.492  41.290  51.496  1.00  0.00     0.227 C 
HETATM   33  O   UNL     1      27.916  42.190  50.877  1.00  0.00    -0.273 OA
HETATM   34  H   UNL     1      29.165  39.324  51.616  1.00  0.00     0.171 HD
BRANCH  32  35
HETATM   35  C   UNL     1      29.150  41.567  52.878  1.00  0.00     0.078 C 
HETATM   36  C   UNL     1      29.980  42.875  53.011  1.00  0.00     0.014 C 
HETATM   37  C   UNL     1      29.392  43.045  54.422  1.00  0.00     0.002 C 
HETATM   38  C   UNL     1      28.218  42.156  53.976  1.00  0.00     0.014 C 
ENDBRANCH  32  35
ENDBRANCH   7  31
BRANCH  13  39
HETATM   39  O   UNL     1      26.030  38.314  42.698  1.00  0.00    -0.395 OA
HETATM   40  H   UNL     1      25.202  37.980  43.088  1.00  0.00     0.210 HD
ENDBRANCH  13  39
TORSDOF 9
ENDMDL
