MODEL 1
REMARK VINA RESULT:      -9.2      0.000      0.000
REMARK  10 active torsions:
REMARK  status: ('A' for Active; 'I' for Inactive)
REMARK    1  A    between atoms: C_2  and  N_3 
REMARK    2  A    between atoms: N_3  and  C_4 
REMARK    3  A    between atoms: N_3  and  C_37 
REMARK    4  A    between atoms: C_7  and  C_8 
REMARK    5  A    between atoms: N_9  and  C_11 
REMARK    6  A    between atoms: C_11  and  C_12 
REMARK       I    between atoms: C_12  and  N_13 
REMARK    7  A    between atoms: N_13  and  C_14 
REMARK    8  A    between atoms: C_20  and  C_21 
REMARK    9  A    between atoms: C_21  and  O_22 
REMARK   10  A    between atoms: C_28  and  O_29 
ROOT
HETATM    1  C   UNL     1      27.344  40.962  51.439  1.00  0.00     0.228 C 
HETATM    2  N   UNL     1      26.415  41.813  50.570  1.00  0.00    -0.054 N 
HETATM    3  H   UNL     1      25.675  42.043  51.243  1.00  0.00     0.281 HD
HETATM    4  C   UNL     1      25.686  41.015  49.518  1.00  0.00     0.239 C 
HETATM    5  C   UNL     1      26.576  40.081  48.715  1.00  0.00     0.066 C 
HETATM    6  C   UNL     1      27.467  39.217  49.605  1.00  0.00     0.065 C 
HETATM    7  C   UNL     1      28.287  40.087  50.583  1.00  0.00     0.055 C 
HETATM    8  C   UNL     1      28.395  38.332  48.753  1.00  0.00     0.038 C 
HETATM    9  C   UNL     1      29.311  37.464  49.615  1.00  0.00     0.003 C 
HETATM   10  C   UNL     1      30.099  38.301  50.612  1.00  0.00     0.001 C 
HETATM   11  C   UNL     1      29.187  39.183  51.460  1.00  0.00     0.010 C 
ENDROOT
BRANCH   2  12
HETATM   12  C   UNL     1      26.862  43.211  50.128  1.00  0.00     0.338 C 
BRANCH  12  13
HETATM   13  C   UNL     1      25.948  44.413  50.382  1.00  0.00     0.248 C 
HETATM   14  N   UNL     1      25.508  44.996  49.209  1.00  0.00    -0.319 N 
HETATM   15  H   UNL     1      26.045  44.889  48.355  1.00  0.00     0.169 HD
HETATM   16  O   UNL     1      25.715  44.830  51.510  1.00  0.00    -0.271 OA
BRANCH  14  17
HETATM   17  C   UNL     1      24.548  45.987  49.145  1.00  0.00     0.094 A 
HETATM   18  S   UNL     1      23.034  45.327  48.746  1.00  0.00    -0.076 SA
HETATM   19  C   UNL     1      22.291  46.860  48.718  1.00  0.00    -0.012 A 
HETATM   20  C   UNL     1      20.841  46.964  48.363  1.00  0.00     0.057 C 
HETATM   21  C   UNL     1      23.163  47.867  49.104  1.00  0.00    -0.030 A 
HETATM   22  C   UNL     1      22.759  49.299  49.296  1.00  0.00     0.050 C 
HETATM   23  C   UNL     1      24.510  47.353  49.350  1.00  0.00     0.080 A 
BRANCH  23  24
HETATM   24  C   UNL     1      25.629  48.151  49.857  1.00  0.00     0.296 C 
HETATM   25  O   UNL     1      26.154  47.951  50.947  1.00  0.00    -0.259 OA
BRANCH  24  26
HETATM   26  O   UNL     1      25.976  49.165  49.017  1.00  0.00    -0.322 OA
HETATM   27  C   UNL     1      27.383  49.295  48.814  1.00  0.00     0.213 C 
ENDBRANCH  24  26
ENDBRANCH  23  24
ENDBRANCH  14  17
ENDBRANCH  12  13
ENDBRANCH   2  12
BRANCH   1  28
HETATM   28  C   UNL     1      28.008  41.725  52.573  1.00  0.00    -0.027 A 
HETATM   29  C   UNL     1      29.374  42.024  52.515  1.00  0.00     0.011 A 
HETATM   30  C   UNL     1      29.965  42.886  53.454  1.00  0.00     0.030 A 
HETATM   31  C   UNL     1      29.239  43.486  54.494  1.00  0.00     0.030 A 
HETATM   32  C   UNL     1      27.900  43.086  54.594  1.00  0.00     0.030 A 
HETATM   33  C   UNL     1      27.292  42.248  53.649  1.00  0.00     0.011 A 
BRANCH  31  34
HETATM   34  N   UNL     1      29.794  44.420  55.366  1.00  0.00    -0.382 N 
BRANCH  34  35
HETATM   35  C   UNL     1      29.152  45.735  55.555  1.00  0.00     0.118 C 
HETATM   36  C   UNL     1      29.042  46.064  57.035  1.00  0.00     0.026 C 
ENDBRANCH  34  35
BRANCH  34  37
HETATM   37  C   UNL     1      31.193  44.334  55.814  1.00  0.00     0.118 C 
HETATM   38  C   UNL     1      31.373  43.247  56.862  1.00  0.00     0.026 C 
ENDBRANCH  34  37
ENDBRANCH  31  34
ENDBRANCH   1  28
BRANCH   6  39
HETATM   39  O   UNL     1      26.584  38.386  50.375  1.00  0.00    -0.389 OA
HETATM   40  H   UNL     1      26.042  38.954  50.956  1.00  0.00     0.210 HD
ENDBRANCH   6  39
TORSDOF 10
ENDMDL
MODEL 2
REMARK VINA RESULT:      -8.8      0.966      1.745
REMARK  10 active torsions:
REMARK  status: ('A' for Active; 'I' for Inactive)
REMARK    1  A    between atoms: C_2  and  N_3 
REMARK    2  A    between atoms: N_3  and  C_4 
REMARK    3  A    between atoms: N_3  and  C_37 
REMARK    4  A    between atoms: C_7  and  C_8 
REMARK    5  A    between atoms: N_9  and  C_11 
REMARK    6  A    between atoms: C_11  and  C_12 
REMARK       I    between atoms: C_12  and  N_13 
REMARK    7  A    between atoms: N_13  and  C_14 
REMARK    8  A    between atoms: C_20  and  C_21 
REMARK    9  A    between atoms: C_21  and  O_22 
REMARK   10  A    between atoms: C_28  and  O_29 
ROOT
HETATM    1  C   UNL     1      26.811  41.460  51.304  1.00  0.00     0.228 C 
HETATM    2  N   UNL     1      25.693  42.218  50.584  1.00  0.00    -0.054 N 
HETATM    3  H   UNL     1      25.065  42.430  51.368  1.00  0.00     0.281 HD
HETATM    4  C   UNL     1      24.850  41.337  49.697  1.00  0.00     0.239 C 
HETATM    5  C   UNL     1      25.650  40.428  48.778  1.00  0.00     0.066 C 
HETATM    6  C   UNL     1      26.734  39.655  49.526  1.00  0.00     0.065 C 
HETATM    7  C   UNL     1      27.649  40.610  50.322  1.00  0.00     0.055 C 
HETATM    8  C   UNL     1      27.560  38.794  48.551  1.00  0.00     0.038 C 
HETATM    9  C   UNL     1      28.664  38.017  49.266  1.00  0.00     0.003 C 
HETATM   10  C   UNL     1      29.553  38.938  50.089  1.00  0.00     0.001 C 
HETATM   11  C   UNL     1      28.743  39.796  51.056  1.00  0.00     0.010 C 
ENDROOT
BRANCH   2  12
HETATM   12  C   UNL     1      25.965  43.622  50.032  1.00  0.00     0.338 C 
BRANCH  12  13
HETATM   13  C   UNL     1      24.916  44.723  50.214  1.00  0.00     0.248 C 
HETATM   14  N   UNL     1      24.467  45.225  49.006  1.00  0.00    -0.319 N 
HETATM   15  H   UNL     1      25.050  45.156  48.179  1.00  0.00     0.169 HD
HETATM   16  O   UNL     1      24.590  45.140  51.319  1.00  0.00    -0.271 OA
BRANCH  14  17
HETATM   17  C   UNL     1      23.409  46.103  48.875  1.00  0.00     0.094 A 
HETATM   18  S   UNL     1      21.944  45.255  48.730  1.00  0.00    -0.076 SA
HETATM   19  C   UNL     1      21.048  46.690  48.526  1.00  0.00    -0.012 A 
HETATM   20  C   UNL     1      19.572  46.605  48.295  1.00  0.00     0.057 C 
HETATM   21  C   UNL     1      21.841  47.820  48.663  1.00  0.00    -0.030 A 
HETATM   22  C   UNL     1      21.309  49.223  48.659  1.00  0.00     0.050 C 
HETATM   23  C   UNL     1      23.248  47.475  48.861  1.00  0.00     0.080 A 
BRANCH  23  24
HETATM   24  C   UNL     1      24.315  48.442  49.127  1.00  0.00     0.296 C 
HETATM   25  O   UNL     1      24.540  49.407  48.405  1.00  0.00    -0.259 OA
BRANCH  24  26
HETATM   26  O   UNL     1      25.059  48.119  50.223  1.00  0.00    -0.322 OA
HETATM   27  C   UNL     1      26.466  48.109  49.987  1.00  0.00     0.213 C 
ENDBRANCH  24  26
ENDBRANCH  23  24
ENDBRANCH  14  17
ENDBRANCH  12  13
ENDBRANCH   2  12
BRANCH   1  28
HETATM   28  C   UNL     1      27.607  42.304  52.284  1.00  0.00    -0.027 A 
HETATM   29  C   UNL     1      27.045  42.680  53.509  1.00  0.00     0.011 A 
HETATM   30  C   UNL     1      27.824  43.294  54.504  1.00  0.00     0.030 A 
HETATM   31  C   UNL     1      29.189  43.572  54.333  1.00  0.00     0.030 A 
HETATM   32  C   UNL     1      29.701  43.285  53.060  1.00  0.00     0.030 A 
HETATM   33  C   UNL     1      28.942  42.647  52.069  1.00  0.00     0.011 A 
BRANCH  31  34
HETATM   34  N   UNL     1      29.992  44.086  55.348  1.00  0.00    -0.382 N 
BRANCH  34  35
HETATM   35  C   UNL     1      31.079  43.271  55.924  1.00  0.00     0.118 C 
HETATM   36  C   UNL     1      31.451  43.783  57.306  1.00  0.00     0.026 C 
ENDBRANCH  34  35
BRANCH  34  37
HETATM   37  C   UNL     1      29.578  45.243  56.159  1.00  0.00     0.118 C 
HETATM   38  C   UNL     1      29.072  46.379  55.284  1.00  0.00     0.026 C 
ENDBRANCH  34  37
ENDBRANCH  31  34
ENDBRANCH   1  28
BRANCH   6  39
HETATM   39  O   UNL     1      26.052  38.803  50.459  1.00  0.00    -0.389 OA
HETATM   40  H   UNL     1      25.443  39.346  50.996  1.00  0.00     0.210 HD
ENDBRANCH   6  39
TORSDOF 10
ENDMDL
MODEL 3
REMARK VINA RESULT:      -8.7      3.055      4.585
REMARK  10 active torsions:
REMARK  status: ('A' for Active; 'I' for Inactive)
REMARK    1  A    between atoms: C_2  and  N_3 
REMARK    2  A    between atoms: N_3  and  C_4 
REMARK    3  A    between atoms: N_3  and  C_37 
REMARK    4  A    between atoms: C_7  and  C_8 
REMARK    5  A    between atoms: N_9  and  C_11 
REMARK    6  A    between atoms: C_11  and  C_12 
REMARK       I    between atoms: C_12  and  N_13 
REMARK    7  A    between atoms: N_13  and  C_14 
REMARK    8  A    between atoms: C_20  and  C_21 
REMARK    9  A    between atoms: C_21  and  O_22 
REMARK   10  A    between atoms: C_28  and  O_29 
ROOT
HETATM    1  C   UNL     1      23.838  43.660  49.976  1.00  0.00     0.228 C 
HETATM    2  N   UNL     1      22.881  44.763  49.517  1.00  0.00    -0.054 N 
HETATM    3  H   UNL     1      22.388  44.970  50.392  1.00  0.00     0.281 HD
HETATM    4  C   UNL     1      21.783  44.263  48.613  1.00  0.00     0.239 C 
HETATM    5  C   UNL     1      22.264  43.372  47.479  1.00  0.00     0.066 C 
HETATM    6  C   UNL     1      23.187  42.257  47.968  1.00  0.00     0.065 C 
HETATM    7  C   UNL     1      24.366  42.829  48.785  1.00  0.00     0.055 C 
HETATM    8  C   UNL     1      23.700  41.417  46.783  1.00  0.00     0.038 C 
HETATM    9  C   UNL     1      24.639  40.299  47.236  1.00  0.00     0.003 C 
HETATM   10  C   UNL     1      25.786  40.839  48.077  1.00  0.00     0.001 C 
HETATM   11  C   UNL     1      25.287  41.675  49.252  1.00  0.00     0.010 C 
ENDROOT
BRANCH   2  12
HETATM   12  C   UNL     1      23.439  46.144  49.154  1.00  0.00     0.338 C 
BRANCH  12  13
HETATM   13  C   UNL     1      22.518  47.188  48.514  1.00  0.00     0.248 C 
HETATM   14  N   UNL     1      21.620  47.723  49.419  1.00  0.00    -0.319 N 
HETATM   15  H   UNL     1      21.359  47.198  50.246  1.00  0.00     0.169 HD
HETATM   16  O   UNL     1      22.551  47.441  47.315  1.00  0.00    -0.271 OA
BRANCH  14  17
HETATM   17  C   UNL     1      20.792  48.794  49.151  1.00  0.00     0.094 A 
HETATM   18  S   UNL     1      19.198  48.268  48.889  1.00  0.00    -0.076 SA
HETATM   19  C   UNL     1      18.654  49.845  48.547  1.00  0.00    -0.012 A 
HETATM   20  C   UNL     1      17.221  50.059  48.172  1.00  0.00     0.057 C 
HETATM   21  C   UNL     1      19.655  50.789  48.723  1.00  0.00    -0.030 A 
HETATM   22  C   UNL     1      19.439  52.270  48.616  1.00  0.00     0.050 C 
HETATM   23  C   UNL     1      20.932  50.167  49.073  1.00  0.00     0.080 A 
BRANCH  23  24
HETATM   24  C   UNL     1      22.153  50.901  49.411  1.00  0.00     0.296 C 
HETATM   25  O   UNL     1      22.474  51.173  50.563  1.00  0.00    -0.259 OA
BRANCH  24  26
HETATM   26  O   UNL     1      22.853  51.294  48.310  1.00  0.00    -0.322 OA
HETATM   27  C   UNL     1      24.041  50.539  48.077  1.00  0.00     0.213 C 
ENDBRANCH  24  26
ENDBRANCH  23  24
ENDBRANCH  14  17
ENDBRANCH  12  13
ENDBRANCH   2  12
BRANCH   1  28
HETATM   28  C   UNL     1      24.890  44.120  50.970  1.00  0.00    -0.027 A 
HETATM   29  C   UNL     1      24.581  44.208  52.332  1.00  0.00     0.011 A 
HETATM   30  C   UNL     1      25.584  44.446  53.287  1.00  0.00     0.030 A 
HETATM   31  C   UNL     1      26.934  44.614  52.942  1.00  0.00     0.030 A 
HETATM   32  C   UNL     1      27.200  44.629  51.565  1.00  0.00     0.030 A 
HETATM   33  C   UNL     1      26.213  44.365  50.605  1.00  0.00     0.011 A 
BRANCH  31  34
HETATM   34  N   UNL     1      27.948  44.748  53.887  1.00  0.00    -0.382 N 
BRANCH  34  35
HETATM   35  C   UNL     1      28.056  45.977  54.696  1.00  0.00     0.118 C 
HETATM   36  C   UNL     1      29.142  45.827  55.748  1.00  0.00     0.026 C 
ENDBRANCH  34  35
BRANCH  34  37
HETATM   37  C   UNL     1      29.156  43.907  53.860  1.00  0.00     0.118 C 
HETATM   38  C   UNL     1      28.810  42.435  54.023  1.00  0.00     0.026 C 
ENDBRANCH  34  37
ENDBRANCH  31  34
ENDBRANCH   1  28
BRANCH   6  39
HETATM   39  O   UNL     1      22.397  41.430  48.836  1.00  0.00    -0.389 OA
HETATM   40  H   UNL     1      22.379  41.833  49.725  1.00  0.00     0.210 HD
ENDBRANCH   6  39
TORSDOF 10
ENDMDL
MODEL 4
REMARK VINA RESULT:      -8.7      2.863      7.809
REMARK  10 active torsions:
REMARK  status: ('A' for Active; 'I' for Inactive)
REMARK    1  A    between atoms: C_2  and  N_3 
REMARK    2  A    between atoms: N_3  and  C_4 
REMARK    3  A    between atoms: N_3  and  C_37 
REMARK    4  A    between atoms: C_7  and  C_8 
REMARK    5  A    between atoms: N_9  and  C_11 
REMARK    6  A    between atoms: C_11  and  C_12 
REMARK       I    between atoms: C_12  and  N_13 
REMARK    7  A    between atoms: N_13  and  C_14 
REMARK    8  A    between atoms: C_20  and  C_21 
REMARK    9  A    between atoms: C_21  and  O_22 
REMARK   10  A    between atoms: C_28  and  O_29 
ROOT
HETATM    1  C   UNL     1      26.251  43.807  49.896  1.00  0.00     0.228 C 
HETATM    2  N   UNL     1      26.975  43.598  51.228  1.00  0.00    -0.054 N 
HETATM    3  H   UNL     1      27.630  44.388  51.220  1.00  0.00     0.281 HD
HETATM    4  C   UNL     1      27.887  42.397  51.230  1.00  0.00     0.239 C 
HETATM    5  C   UNL     1      27.250  41.129  50.685  1.00  0.00     0.066 C 
HETATM    6  C   UNL     1      26.566  41.354  49.338  1.00  0.00     0.065 C 
HETATM    7  C   UNL     1      25.551  42.515  49.418  1.00  0.00     0.055 C 
HETATM    8  C   UNL     1      25.882  40.063  48.852  1.00  0.00     0.038 C 
HETATM    9  C   UNL     1      25.175  40.258  47.511  1.00  0.00     0.003 C 
HETATM   10  C   UNL     1      24.198  41.424  47.558  1.00  0.00     0.001 C 
HETATM   11  C   UNL     1      24.867  42.707  48.042  1.00  0.00     0.010 C 
ENDROOT
BRANCH   2  12
HETATM   12  C   UNL     1      26.226  43.845  52.543  1.00  0.00     0.338 C 
BRANCH  12  13
HETATM   13  C   UNL     1      26.981  43.756  53.872  1.00  0.00     0.248 C 
HETATM   14  N   UNL     1      28.220  44.369  53.815  1.00  0.00    -0.319 N 
HETATM   15  H   UNL     1      28.692  44.477  52.924  1.00  0.00     0.169 HD
HETATM   16  O   UNL     1      26.540  43.140  54.835  1.00  0.00    -0.271 OA
BRANCH  14  17
HETATM   17  C   UNL     1      29.034  44.580  54.910  1.00  0.00     0.094 A 
HETATM   18  S   UNL     1      30.274  43.419  54.966  1.00  0.00    -0.076 SA
HETATM   19  C   UNL     1      30.886  44.036  56.432  1.00  0.00    -0.012 A 
HETATM   20  C   UNL     1      32.058  43.364  57.075  1.00  0.00     0.057 C 
HETATM   21  C   UNL     1      30.214  45.180  56.834  1.00  0.00    -0.030 A 
HETATM   22  C   UNL     1      30.610  46.013  58.017  1.00  0.00     0.050 C 
HETATM   23  C   UNL     1      29.104  45.503  55.936  1.00  0.00     0.080 A 
BRANCH  23  24
HETATM   24  C   UNL     1      28.265  46.698  56.042  1.00  0.00     0.296 C 
HETATM   25  O   UNL     1      27.777  47.082  57.099  1.00  0.00    -0.259 OA
BRANCH  24  26
HETATM   26  O   UNL     1      28.042  47.294  54.837  1.00  0.00    -0.322 OA
HETATM   27  C   UNL     1      26.663  47.524  54.549  1.00  0.00     0.213 C 
ENDBRANCH  24  26
ENDBRANCH  23  24
ENDBRANCH  14  17
ENDBRANCH  12  13
ENDBRANCH   2  12
BRANCH   1  28
HETATM   28  C   UNL     1      25.409  45.070  49.834  1.00  0.00    -0.027 A 
HETATM   29  C   UNL     1      26.023  46.327  49.841  1.00  0.00     0.011 A 
HETATM   30  C   UNL     1      25.281  47.495  49.594  1.00  0.00     0.030 A 
HETATM   31  C   UNL     1      23.901  47.476  49.337  1.00  0.00     0.030 A 
HETATM   32  C   UNL     1      23.292  46.218  49.444  1.00  0.00     0.030 A 
HETATM   33  C   UNL     1      24.025  45.043  49.662  1.00  0.00     0.011 A 
BRANCH  31  34
HETATM   34  N   UNL     1      23.178  48.615  48.991  1.00  0.00    -0.382 N 
BRANCH  34  35
HETATM   35  C   UNL     1      21.704  48.599  49.022  1.00  0.00     0.118 C 
HETATM   36  C   UNL     1      21.146  48.339  47.633  1.00  0.00     0.026 C 
ENDBRANCH  34  35
BRANCH  34  37
HETATM   37  C   UNL     1      23.778  49.714  48.218  1.00  0.00     0.118 C 
HETATM   38  C   UNL     1      23.226  51.063  48.654  1.00  0.00     0.026 C 
ENDBRANCH  34  37
ENDBRANCH  31  34
ENDBRANCH   1  28
BRANCH   6  39
HETATM   39  O   UNL     1      27.602  41.725  48.417  1.00  0.00    -0.389 OA
HETATM   40  H   UNL     1      28.459  41.716  48.885  1.00  0.00     0.210 HD
ENDBRANCH   6  39
TORSDOF 10
ENDMDL
MODEL 5
REMARK VINA RESULT:      -8.6      2.998      7.900
REMARK  10 active torsions:
REMARK  status: ('A' for Active; 'I' for Inactive)
REMARK    1  A    between atoms: C_2  and  N_3 
REMARK    2  A    between atoms: N_3  and  C_4 
REMARK    3  A    between atoms: N_3  and  C_37 
REMARK    4  A    between atoms: C_7  and  C_8 
REMARK    5  A    between atoms: N_9  and  C_11 
REMARK    6  A    between atoms: C_11  and  C_12 
REMARK       I    between atoms: C_12  and  N_13 
REMARK    7  A    between atoms: N_13  and  C_14 
REMARK    8  A    between atoms: C_20  and  C_21 
REMARK    9  A    between atoms: C_21  and  O_22 
REMARK   10  A    between atoms: C_28  and  O_29 
ROOT
HETATM    1  C   UNL     1      25.215  42.464  50.480  1.00  0.00     0.228 C 
HETATM    2  N   UNL     1      25.799  42.997  51.791  1.00  0.00    -0.054 N 
HETATM    3  H   UNL     1      25.718  42.169  52.391  1.00  0.00     0.281 HD
HETATM    4  C   UNL     1      24.909  44.005  52.474  1.00  0.00     0.239 C 
HETATM    5  C   UNL     1      24.387  45.099  51.557  1.00  0.00     0.066 C 
HETATM    6  C   UNL     1      23.776  44.540  50.274  1.00  0.00     0.065 C 
HETATM    7  C   UNL     1      24.769  43.610  49.544  1.00  0.00     0.055 C 
HETATM    8  C   UNL     1      23.315  45.681  49.347  1.00  0.00     0.038 C 
HETATM    9  C   UNL     1      22.711  45.155  48.046  1.00  0.00     0.003 C 
HETATM   10  C   UNL     1      23.661  44.205  47.332  1.00  0.00     0.001 C 
HETATM   11  C   UNL     1      24.124  43.072  48.244  1.00  0.00     0.010 C 
ENDROOT
BRANCH   2  12
HETATM   12  C   UNL     1      27.301  43.290  51.885  1.00  0.00     0.338 C 
BRANCH  12  13
HETATM   13  C   UNL     1      28.012  43.168  53.236  1.00  0.00     0.248 C 
HETATM   14  N   UNL     1      28.765  44.288  53.536  1.00  0.00    -0.319 N 
HETATM   15  H   UNL     1      29.106  44.886  52.791  1.00  0.00     0.169 HD
HETATM   16  O   UNL     1      27.957  42.150  53.915  1.00  0.00    -0.271 OA
BRANCH  14  17
HETATM   17  C   UNL     1      29.371  44.513  54.756  1.00  0.00     0.094 A 
HETATM   18  S   UNL     1      30.664  43.436  54.990  1.00  0.00    -0.076 SA
HETATM   19  C   UNL     1      30.981  44.039  56.552  1.00  0.00    -0.012 A 
HETATM   20  C   UNL     1      32.076  43.423  57.364  1.00  0.00     0.057 C 
HETATM   21  C   UNL     1      30.173  45.122  56.864  1.00  0.00    -0.030 A 
HETATM   22  C   UNL     1      30.310  45.936  58.116  1.00  0.00     0.050 C 
HETATM   23  C   UNL     1      29.207  45.402  55.802  1.00  0.00     0.080 A 
BRANCH  23  24
HETATM   24  C   UNL     1      28.279  46.535  55.795  1.00  0.00     0.296 C 
HETATM   25  O   UNL     1      27.770  46.989  56.814  1.00  0.00    -0.259 OA
BRANCH  24  26
HETATM   26  O   UNL     1      28.003  46.983  54.538  1.00  0.00    -0.322 OA
HETATM   27  C   UNL     1      26.648  47.389  54.351  1.00  0.00     0.213 C 
ENDBRANCH  24  26
ENDBRANCH  23  24
ENDBRANCH  14  17
ENDBRANCH  12  13
ENDBRANCH   2  12
BRANCH   1  28
HETATM   28  C   UNL     1      26.042  41.370  49.827  1.00  0.00    -0.027 A 
HETATM   29  C   UNL     1      26.997  41.693  48.857  1.00  0.00     0.011 A 
HETATM   30  C   UNL     1      27.900  40.727  48.382  1.00  0.00     0.030 A 
HETATM   31  C   UNL     1      27.898  39.399  48.835  1.00  0.00     0.030 A 
HETATM   32  C   UNL     1      26.864  39.075  49.725  1.00  0.00     0.030 A 
HETATM   33  C   UNL     1      25.975  40.035  50.228  1.00  0.00     0.011 A 
BRANCH  31  34
HETATM   34  N   UNL     1      28.852  38.463  48.446  1.00  0.00    -0.382 N 
BRANCH  34  35
HETATM   35  C   UNL     1      28.474  37.327  47.585  1.00  0.00     0.118 C 
HETATM   36  C   UNL     1      27.649  37.809  46.402  1.00  0.00     0.026 C 
ENDBRANCH  34  35
BRANCH  34  37
HETATM   37  C   UNL     1      30.132  38.311  49.158  1.00  0.00     0.118 C 
HETATM   38  C   UNL     1      29.922  37.766  50.563  1.00  0.00     0.026 C 
ENDBRANCH  34  37
ENDBRANCH  31  34
ENDBRANCH   1  28
BRANCH   6  39
HETATM   39  O   UNL     1      22.639  43.759  50.675  1.00  0.00    -0.389 OA
HETATM   40  H   UNL     1      22.111  44.275  51.314  1.00  0.00     0.210 HD
ENDBRANCH   6  39
TORSDOF 10
ENDMDL
MODEL 6
REMARK VINA RESULT:      -8.3      2.986      8.870
REMARK  10 active torsions:
REMARK  status: ('A' for Active; 'I' for Inactive)
REMARK    1  A    between atoms: C_2  and  N_3 
REMARK    2  A    between atoms: N_3  and  C_4 
REMARK    3  A    between atoms: N_3  and  C_37 
REMARK    4  A    between atoms: C_7  and  C_8 
REMARK    5  A    between atoms: N_9  and  C_11 
REMARK    6  A    between atoms: C_11  and  C_12 
REMARK       I    between atoms: C_12  and  N_13 
REMARK    7  A    between atoms: N_13  and  C_14 
REMARK    8  A    between atoms: C_20  and  C_21 
REMARK    9  A    between atoms: C_21  and  O_22 
REMARK   10  A    between atoms: C_28  and  O_29 
ROOT
HETATM    1  C   UNL     1      26.299  43.671  52.601  1.00  0.00     0.228 C 
HETATM    2  N   UNL     1      27.259  42.480  52.662  1.00  0.00    -0.054 N 
HETATM    3  H   UNL     1      26.598  41.696  52.651  1.00  0.00     0.281 HD
HETATM    4  C   UNL     1      27.943  42.334  53.998  1.00  0.00     0.239 C 
HETATM    5  C   UNL     1      28.544  43.622  54.536  1.00  0.00     0.066 C 
HETATM    6  C   UNL     1      27.555  44.786  54.499  1.00  0.00     0.065 C 
HETATM    7  C   UNL     1      26.974  44.975  53.081  1.00  0.00     0.055 C 
HETATM    8  C   UNL     1      28.222  46.083  54.994  1.00  0.00     0.038 C 
HETATM    9  C   UNL     1      27.262  47.272  54.956  1.00  0.00     0.003 C 
HETATM   10  C   UNL     1      26.647  47.450  53.575  1.00  0.00     0.001 C 
HETATM   11  C   UNL     1      25.987  46.169  53.076  1.00  0.00     0.010 C 
ENDROOT
BRANCH   2  12
HETATM   12  C   UNL     1      28.134  42.151  51.447  1.00  0.00     0.338 C 
BRANCH  12  13
HETATM   13  C   UNL     1      27.697  41.050  50.476  1.00  0.00     0.248 C 
HETATM   14  N   UNL     1      28.466  41.028  49.327  1.00  0.00    -0.319 N 
HETATM   15  H   UNL     1      28.948  41.866  49.022  1.00  0.00     0.169 HD
HETATM   16  O   UNL     1      26.725  40.337  50.691  1.00  0.00    -0.271 OA
BRANCH  14  17
HETATM   17  C   UNL     1      28.397  40.040  48.365  1.00  0.00     0.094 A 
HETATM   18  S   UNL     1      27.618  40.616  46.970  1.00  0.00    -0.076 SA
HETATM   19  C   UNL     1      27.717  39.101  46.198  1.00  0.00    -0.012 A 
HETATM   20  C   UNL     1      27.123  38.934  44.835  1.00  0.00     0.057 C 
HETATM   21  C   UNL     1      28.425  38.179  46.955  1.00  0.00    -0.030 A 
HETATM   22  C   UNL     1      28.782  36.801  46.479  1.00  0.00     0.050 C 
HETATM   23  C   UNL     1      28.824  38.730  48.249  1.00  0.00     0.080 A 
BRANCH  23  24
HETATM   24  C   UNL     1      29.658  38.035  49.232  1.00  0.00     0.296 C 
HETATM   25  O   UNL     1      30.884  38.044  49.195  1.00  0.00    -0.259 OA
BRANCH  24  26
HETATM   26  O   UNL     1      28.927  37.337  50.145  1.00  0.00    -0.322 OA
HETATM   27  C   UNL     1      29.690  36.842  51.244  1.00  0.00     0.213 C 
ENDBRANCH  24  26
ENDBRANCH  23  24
ENDBRANCH  14  17
ENDBRANCH  12  13
ENDBRANCH   2  12
BRANCH   1  28
HETATM   28  C   UNL     1      25.519  43.777  51.301  1.00  0.00    -0.027 A 
HETATM   29  C   UNL     1      24.307  43.095  51.150  1.00  0.00     0.011 A 
HETATM   30  C   UNL     1      23.480  43.329  50.038  1.00  0.00     0.030 A 
HETATM   31  C   UNL     1      23.815  44.239  49.023  1.00  0.00     0.030 A 
HETATM   32  C   UNL     1      25.082  44.827  49.144  1.00  0.00     0.030 A 
HETATM   33  C   UNL     1      25.903  44.623  50.261  1.00  0.00     0.011 A 
BRANCH  31  34
HETATM   34  N   UNL     1      22.957  44.552  47.972  1.00  0.00    -0.382 N 
BRANCH  34  35
HETATM   35  C   UNL     1      22.017  45.683  48.088  1.00  0.00     0.118 C 
HETATM   36  C   UNL     1      20.594  45.176  48.251  1.00  0.00     0.026 C 
ENDBRANCH  34  35
BRANCH  34  37
HETATM   37  C   UNL     1      22.649  43.588  46.903  1.00  0.00     0.118 C 
HETATM   38  C   UNL     1      23.106  44.102  45.546  1.00  0.00     0.026 C 
ENDBRANCH  34  37
ENDBRANCH  31  34
ENDBRANCH   1  28
BRANCH   6  39
HETATM   39  O   UNL     1      26.481  44.430  55.383  1.00  0.00    -0.389 OA
HETATM   40  H   UNL     1      25.649  44.807  55.036  1.00  0.00     0.210 HD
ENDBRANCH   6  39
TORSDOF 10
ENDMDL
MODEL 7
REMARK VINA RESULT:      -8.3      2.807      8.283
REMARK  10 active torsions:
REMARK  status: ('A' for Active; 'I' for Inactive)
REMARK    1  A    between atoms: C_2  and  N_3 
REMARK    2  A    between atoms: N_3  and  C_4 
REMARK    3  A    between atoms: N_3  and  C_37 
REMARK    4  A    between atoms: C_7  and  C_8 
REMARK    5  A    between atoms: N_9  and  C_11 
REMARK    6  A    between atoms: C_11  and  C_12 
REMARK       I    between atoms: C_12  and  N_13 
REMARK    7  A    between atoms: N_13  and  C_14 
REMARK    8  A    between atoms: C_20  and  C_21 
REMARK    9  A    between atoms: C_21  and  O_22 
REMARK   10  A    between atoms: C_28  and  O_29 
ROOT
HETATM    1  C   UNL     1      26.312  43.629  51.979  1.00  0.00     0.228 C 
HETATM    2  N   UNL     1      26.479  42.456  51.009  1.00  0.00    -0.054 N 
HETATM    3  H   UNL     1      25.500  42.186  50.860  1.00  0.00     0.281 HD
HETATM    4  C   UNL     1      27.079  41.232  51.653  1.00  0.00     0.239 C 
HETATM    5  C   UNL     1      28.321  41.508  52.485  1.00  0.00     0.066 C 
HETATM    6  C   UNL     1      28.117  42.658  53.469  1.00  0.00     0.065 C 
HETATM    7  C   UNL     1      27.619  43.928  52.746  1.00  0.00     0.055 C 
HETATM    8  C   UNL     1      29.415  42.945  54.247  1.00  0.00     0.038 C 
HETATM    9  C   UNL     1      29.249  44.101  55.233  1.00  0.00     0.003 C 
HETATM   10  C   UNL     1      28.721  45.352  54.545  1.00  0.00     0.001 C 
HETATM   11  C   UNL     1      27.436  45.075  53.769  1.00  0.00     0.010 C 
ENDROOT
BRANCH   2  12
HETATM   12  C   UNL     1      26.939  42.724  49.572  1.00  0.00     0.338 C 
BRANCH  12  13
HETATM   13  C   UNL     1      26.756  41.639  48.505  1.00  0.00     0.248 C 
HETATM   14  N   UNL     1      27.963  41.137  48.055  1.00  0.00    -0.319 N 
HETATM   15  H   UNL     1      28.805  41.697  48.126  1.00  0.00     0.169 HD
HETATM   16  O   UNL     1      25.654  41.330  48.070  1.00  0.00    -0.271 OA
BRANCH  14  17
HETATM   17  C   UNL     1      28.087  40.043  47.221  1.00  0.00     0.094 A 
HETATM   18  S   UNL     1      28.049  40.524  45.593  1.00  0.00    -0.076 SA
HETATM   19  C   UNL     1      28.146  38.917  45.038  1.00  0.00    -0.012 A 
HETATM   20  C   UNL     1      28.116  38.648  43.566  1.00  0.00     0.057 C 
HETATM   21  C   UNL     1      28.304  38.016  46.081  1.00  0.00    -0.030 A 
HETATM   22  C   UNL     1      28.542  36.547  45.892  1.00  0.00     0.050 C 
HETATM   23  C   UNL     1      28.260  38.681  47.383  1.00  0.00     0.080 A 
BRANCH  23  24
HETATM   24  C   UNL     1      28.486  38.016  48.668  1.00  0.00     0.296 C 
HETATM   25  O   UNL     1      27.602  37.433  49.285  1.00  0.00    -0.259 OA
BRANCH  24  26
HETATM   26  O   UNL     1      29.762  38.169  49.123  1.00  0.00    -0.322 OA
HETATM   27  C   UNL     1      29.940  37.795  50.489  1.00  0.00     0.213 C 
ENDBRANCH  24  26
ENDBRANCH  23  24
ENDBRANCH  14  17
ENDBRANCH  12  13
ENDBRANCH   2  12
BRANCH   1  28
HETATM   28  C   UNL     1      25.613  44.838  51.381  1.00  0.00    -0.027 A 
HETATM   29  C   UNL     1      26.284  46.061  51.281  1.00  0.00     0.011 A 
HETATM   30  C   UNL     1      25.728  47.134  50.563  1.00  0.00     0.030 A 
HETATM   31  C   UNL     1      24.484  47.051  49.919  1.00  0.00     0.030 A 
HETATM   32  C   UNL     1      23.785  45.854  50.125  1.00  0.00     0.030 A 
HETATM   33  C   UNL     1      24.340  44.767  50.815  1.00  0.00     0.011 A 
BRANCH  31  34
HETATM   34  N   UNL     1      23.973  48.072  49.122  1.00  0.00    -0.382 N 
BRANCH  34  35
HETATM   35  C   UNL     1      24.820  49.222  48.749  1.00  0.00     0.118 C 
HETATM   36  C   UNL     1      23.961  50.376  48.257  1.00  0.00     0.026 C 
ENDBRANCH  34  35
BRANCH  34  37
HETATM   37  C   UNL     1      22.526  48.278  48.950  1.00  0.00     0.118 C 
HETATM   38  C   UNL     1      21.996  47.514  47.746  1.00  0.00     0.026 C 
ENDBRANCH  34  37
ENDBRANCH  31  34
ENDBRANCH   1  28
BRANCH   6  39
HETATM   39  O   UNL     1      27.094  42.230  54.383  1.00  0.00    -0.389 OA
HETATM   40  H   UNL     1      27.292  42.591  55.269  1.00  0.00     0.210 HD
ENDBRANCH   6  39
TORSDOF 10
ENDMDL
MODEL 8
REMARK VINA RESULT:      -8.2      1.774      2.779
REMARK  10 active torsions:
REMARK  status: ('A' for Active; 'I' for Inactive)
REMARK    1  A    between atoms: C_2  and  N_3 
REMARK    2  A    between atoms: N_3  and  C_4 
REMARK    3  A    between atoms: N_3  and  C_37 
REMARK    4  A    between atoms: C_7  and  C_8 
REMARK    5  A    between atoms: N_9  and  C_11 
REMARK    6  A    between atoms: C_11  and  C_12 
REMARK       I    between atoms: C_12  and  N_13 
REMARK    7  A    between atoms: N_13  and  C_14 
REMARK    8  A    between atoms: C_20  and  C_21 
REMARK    9  A    between atoms: C_21  and  O_22 
REMARK   10  A    between atoms: C_28  and  O_29 
ROOT
HETATM    1  C   UNL     1      27.176  41.568  51.959  1.00  0.00     0.228 C 
HETATM    2  N   UNL     1      26.189  42.569  51.353  1.00  0.00    -0.054 N 
HETATM    3  H   UNL     1      25.582  42.756  52.158  1.00  0.00     0.281 HD
HETATM    4  C   UNL     1      25.250  41.948  50.350  1.00  0.00     0.239 C 
HETATM    5  C   UNL     1      25.933  41.072  49.313  1.00  0.00     0.066 C 
HETATM    6  C   UNL     1      26.884  40.057  49.944  1.00  0.00     0.065 C 
HETATM    7  C   UNL     1      27.907  40.754  50.867  1.00  0.00     0.055 C 
HETATM    8  C   UNL     1      27.601  39.233  48.858  1.00  0.00     0.038 C 
HETATM    9  C   UNL     1      28.572  38.216  49.457  1.00  0.00     0.003 C 
HETATM   10  C   UNL     1      29.564  38.879  50.402  1.00  0.00     0.001 C 
HETATM   11  C   UNL     1      28.862  39.700  51.479  1.00  0.00     0.010 C 
ENDROOT
BRANCH   2  12
HETATM   12  C   UNL     1      26.666  43.983  51.004  1.00  0.00     0.338 C 
BRANCH  12  13
HETATM   13  C   UNL     1      25.937  44.781  49.918  1.00  0.00     0.248 C 
HETATM   14  N   UNL     1      24.692  45.216  50.333  1.00  0.00    -0.319 N 
HETATM   15  H   UNL     1      24.201  44.724  51.072  1.00  0.00     0.169 HD
HETATM   16  O   UNL     1      26.402  44.934  48.795  1.00  0.00    -0.271 OA
BRANCH  14  17
HETATM   17  C   UNL     1      23.896  46.090  49.619  1.00  0.00     0.094 A 
HETATM   18  S   UNL     1      24.472  47.682  49.769  1.00  0.00    -0.076 SA
HETATM   19  C   UNL     1      23.188  48.313  48.845  1.00  0.00    -0.012 A 
HETATM   20  C   UNL     1      23.101  49.790  48.626  1.00  0.00     0.057 C 
HETATM   21  C   UNL     1      22.372  47.312  48.339  1.00  0.00    -0.030 A 
HETATM   22  C   UNL     1      21.237  47.555  47.389  1.00  0.00     0.050 C 
HETATM   23  C   UNL     1      22.784  45.988  48.805  1.00  0.00     0.080 A 
BRANCH  23  24
HETATM   24  C   UNL     1      22.179  44.726  48.375  1.00  0.00     0.296 C 
HETATM   25  O   UNL     1      20.989  44.469  48.522  1.00  0.00    -0.259 OA
BRANCH  24  26
HETATM   26  O   UNL     1      23.089  43.855  47.854  1.00  0.00    -0.322 OA
HETATM   27  C   UNL     1      22.529  42.897  46.957  1.00  0.00     0.213 C 
ENDBRANCH  24  26
ENDBRANCH  23  24
ENDBRANCH  14  17
ENDBRANCH  12  13
ENDBRANCH   2  12
BRANCH   1  28
HETATM   28  C   UNL     1      28.063  42.147  53.048  1.00  0.00    -0.027 A 
HETATM   29  C   UNL     1      29.432  42.322  52.822  1.00  0.00     0.011 A 
HETATM   30  C   UNL     1      30.231  43.027  53.739  1.00  0.00     0.030 A 
HETATM   31  C   UNL     1      29.718  43.584  54.920  1.00  0.00     0.030 A 
HETATM   32  C   UNL     1      28.369  43.301  55.175  1.00  0.00     0.030 A 
HETATM   33  C   UNL     1      27.555  42.624  54.257  1.00  0.00     0.011 A 
BRANCH  31  34
HETATM   34  N   UNL     1      30.479  44.369  55.782  1.00  0.00    -0.382 N 
BRANCH  34  35
HETATM   35  C   UNL     1      31.566  43.766  56.576  1.00  0.00     0.118 C 
HETATM   36  C   UNL     1      31.574  44.337  57.985  1.00  0.00     0.026 C 
ENDBRANCH  34  35
BRANCH  34  37
HETATM   37  C   UNL     1      30.018  45.687  56.249  1.00  0.00     0.118 C 
HETATM   38  C   UNL     1      29.116  46.354  55.221  1.00  0.00     0.026 C 
ENDBRANCH  34  37
ENDBRANCH  31  34
ENDBRANCH   1  28
BRANCH   6  39
HETATM   39  O   UNL     1      26.071  39.188  50.748  1.00  0.00    -0.389 OA
HETATM   40  H   UNL     1      25.164  39.181  50.387  1.00  0.00     0.210 HD
ENDBRANCH   6  39
TORSDOF 10
ENDMDL
MODEL 9
REMARK VINA RESULT:      -7.7      2.889      8.584
REMARK  10 active torsions:
REMARK  status: ('A' for Active; 'I' for Inactive)
REMARK    1  A    between atoms: C_2  and  N_3 
REMARK    2  A    between atoms: N_3  and  C_4 
REMARK    3  A    between atoms: N_3  and  C_37 
REMARK    4  A    between atoms: C_7  and  C_8 
REMARK    5  A    between atoms: N_9  and  C_11 
REMARK    6  A    between atoms: C_11  and  C_12 
REMARK       I    between atoms: C_12  and  N_13 
REMARK    7  A    between atoms: N_13  and  C_14 
REMARK    8  A    between atoms: C_20  and  C_21 
REMARK    9  A    between atoms: C_21  and  O_22 
REMARK   10  A    between atoms: C_28  and  O_29 
ROOT
HETATM    1  C   UNL     1      25.952  43.389  51.881  1.00  0.00     0.228 C 
HETATM    2  N   UNL     1      26.662  42.247  51.149  1.00  0.00    -0.054 N 
HETATM    3  H   UNL     1      25.878  41.609  50.976  1.00  0.00     0.281 HD
HETATM    4  C   UNL     1      27.571  41.441  52.042  1.00  0.00     0.239 C 
HETATM    5  C   UNL     1      28.503  42.277  52.903  1.00  0.00     0.066 C 
HETATM    6  C   UNL     1      27.766  43.386  53.651  1.00  0.00     0.065 C 
HETATM    7  C   UNL     1      26.946  44.262  52.679  1.00  0.00     0.055 C 
HETATM    8  C   UNL     1      28.753  44.247  54.462  1.00  0.00     0.038 C 
HETATM    9  C   UNL     1      28.048  45.376  55.212  1.00  0.00     0.003 C 
HETATM   10  C   UNL     1      27.203  46.227  54.276  1.00  0.00     0.001 C 
HETATM   11  C   UNL     1      26.223  45.382  53.467  1.00  0.00     0.010 C 
ENDROOT
BRANCH   2  12
HETATM   12  C   UNL     1      27.185  42.471  49.726  1.00  0.00     0.338 C 
BRANCH  12  13
HETATM   13  C   UNL     1      27.320  41.279  48.773  1.00  0.00     0.248 C 
HETATM   14  N   UNL     1      26.307  40.353  48.943  1.00  0.00    -0.319 N 
HETATM   15  H   UNL     1      25.818  40.292  49.829  1.00  0.00     0.169 HD
HETATM   16  O   UNL     1      28.272  41.154  48.012  1.00  0.00    -0.271 OA
BRANCH  14  17
HETATM   17  C   UNL     1      26.094  39.273  48.110  1.00  0.00     0.094 A 
HETATM   18  S   UNL     1      25.049  39.695  46.838  1.00  0.00    -0.076 SA
HETATM   19  C   UNL     1      25.053  38.112  46.210  1.00  0.00    -0.012 A 
HETATM   20  C   UNL     1      24.221  37.801  45.006  1.00  0.00     0.057 C 
HETATM   21  C   UNL     1      25.920  37.281  46.903  1.00  0.00    -0.030 A 
HETATM   22  C   UNL     1      26.228  35.869  46.502  1.00  0.00     0.050 C 
HETATM   23  C   UNL     1      26.535  37.965  48.041  1.00  0.00     0.080 A 
BRANCH  23  24
HETATM   24  C   UNL     1      27.561  37.384  48.909  1.00  0.00     0.296 C 
HETATM   25  O   UNL     1      27.300  36.647  49.853  1.00  0.00    -0.259 OA
BRANCH  24  26
HETATM   26  O   UNL     1      28.819  37.799  48.590  1.00  0.00    -0.322 OA
HETATM   27  C   UNL     1      29.626  38.130  49.720  1.00  0.00     0.213 C 
ENDBRANCH  24  26
ENDBRANCH  23  24
ENDBRANCH  14  17
ENDBRANCH  12  13
ENDBRANCH   2  12
BRANCH   1  28
HETATM   28  C   UNL     1      24.951  44.150  51.027  1.00  0.00    -0.027 A 
HETATM   29  C   UNL     1      25.271  45.417  50.529  1.00  0.00     0.011 A 
HETATM   30  C   UNL     1      24.444  46.053  49.587  1.00  0.00     0.030 A 
HETATM   31  C   UNL     1      23.263  45.472  49.102  1.00  0.00     0.030 A 
HETATM   32  C   UNL     1      22.910  44.253  49.697  1.00  0.00     0.030 A 
HETATM   33  C   UNL     1      23.739  43.596  50.616  1.00  0.00     0.011 A 
BRANCH  31  34
HETATM   34  N   UNL     1      22.492  46.048  48.095  1.00  0.00    -0.382 N 
BRANCH  34  35
HETATM   35  C   UNL     1      22.144  45.275  46.888  1.00  0.00     0.118 C 
HETATM   36  C   UNL     1      20.671  44.901  46.903  1.00  0.00     0.026 C 
ENDBRANCH  34  35
BRANCH  34  37
HETATM   37  C   UNL     1      22.329  47.506  47.975  1.00  0.00     0.118 C 
HETATM   38  C   UNL     1      21.184  48.009  48.840  1.00  0.00     0.026 C 
ENDBRANCH  34  37
ENDBRANCH  31  34
ENDBRANCH   1  28
BRANCH   6  39
HETATM   39  O   UNL     1      26.853  42.731  54.546  1.00  0.00    -0.389 OA
HETATM   40  H   UNL     1      27.353  42.391  55.313  1.00  0.00     0.210 HD
ENDBRANCH   6  39
TORSDOF 10
ENDMDL
MODEL 10
REMARK VINA RESULT:      -7.7      3.700     10.654
REMARK  10 active torsions:
REMARK  status: ('A' for Active; 'I' for Inactive)
REMARK    1  A    between atoms: C_2  and  N_3 
REMARK    2  A    between atoms: N_3  and  C_4 
REMARK    3  A    between atoms: N_3  and  C_37 
REMARK    4  A    between atoms: C_7  and  C_8 
REMARK    5  A    between atoms: N_9  and  C_11 
REMARK    6  A    between atoms: C_11  and  C_12 
REMARK       I    between atoms: C_12  and  N_13 
REMARK    7  A    between atoms: N_13  and  C_14 
REMARK    8  A    between atoms: C_20  and  C_21 
REMARK    9  A    between atoms: C_21  and  O_22 
REMARK   10  A    between atoms: C_28  and  O_29 
ROOT
HETATM    1  C   UNL     1      20.708  48.472  48.843  1.00  0.00     0.228 C 
HETATM    2  N   UNL     1      22.034  48.788  49.539  1.00  0.00    -0.054 N 
HETATM    3  H   UNL     1      22.044  48.072  50.274  1.00  0.00     0.281 HD
HETATM    4  C   UNL     1      22.006  50.079  50.317  1.00  0.00     0.239 C 
HETATM    5  C   UNL     1      21.432  51.259  49.550  1.00  0.00     0.066 C 
HETATM    6  C   UNL     1      20.092  50.930  48.895  1.00  0.00     0.065 C 
HETATM    7  C   UNL     1      20.200  49.670  48.010  1.00  0.00     0.055 C 
HETATM    8  C   UNL     1      19.576  52.130  48.078  1.00  0.00     0.038 C 
HETATM    9  C   UNL     1      18.241  51.829  47.398  1.00  0.00     0.003 C 
HETATM   10  C   UNL     1      18.317  50.567  46.551  1.00  0.00     0.001 C 
HETATM   11  C   UNL     1      18.830  49.374  47.352  1.00  0.00     0.010 C 
ENDROOT
BRANCH   2  12
HETATM   12  C   UNL     1      23.354  48.494  48.818  1.00  0.00     0.338 C 
BRANCH  12  13
HETATM   13  C   UNL     1      24.573  48.041  49.628  1.00  0.00     0.248 C 
HETATM   14  N   UNL     1      24.282  46.980  50.466  1.00  0.00    -0.319 N 
HETATM   15  H   UNL     1      23.330  46.826  50.779  1.00  0.00     0.169 HD
HETATM   16  O   UNL     1      25.650  48.622  49.570  1.00  0.00    -0.271 OA
BRANCH  14  17
HETATM   17  C   UNL     1      25.228  46.272  51.180  1.00  0.00     0.094 A 
HETATM   18  S   UNL     1      25.441  46.947  52.725  1.00  0.00    -0.076 SA
HETATM   19  C   UNL     1      26.671  45.838  53.122  1.00  0.00    -0.012 A 
HETATM   20  C   UNL     1      27.348  45.942  54.452  1.00  0.00     0.057 C 
HETATM   21  C   UNL     1      26.859  44.892  52.125  1.00  0.00    -0.030 A 
HETATM   22  C   UNL     1      27.784  43.718  52.247  1.00  0.00     0.050 C 
HETATM   23  C   UNL     1      26.009  45.152  50.963  1.00  0.00     0.080 A 
BRANCH  23  24
HETATM   24  C   UNL     1      25.911  44.283  49.789  1.00  0.00     0.296 C 
HETATM   25  O   UNL     1      26.891  43.842  49.198  1.00  0.00    -0.259 OA
BRANCH  24  26
HETATM   26  O   UNL     1      24.624  44.070  49.395  1.00  0.00    -0.322 OA
HETATM   27  C   UNL     1      24.041  42.884  49.934  1.00  0.00     0.213 C 
ENDBRANCH  24  26
ENDBRANCH  23  24
ENDBRANCH  14  17
ENDBRANCH  12  13
ENDBRANCH   2  12
BRANCH   1  28
HETATM   28  C   UNL     1      20.677  47.126  48.140  1.00  0.00    -0.027 A 
HETATM   29  C   UNL     1      21.032  47.028  46.790  1.00  0.00     0.011 A 
HETATM   30  C   UNL     1      21.193  45.775  46.174  1.00  0.00     0.030 A 
HETATM   31  C   UNL     1      21.006  44.565  46.859  1.00  0.00     0.030 A 
HETATM   32  C   UNL     1      20.547  44.690  48.178  1.00  0.00     0.030 A 
HETATM   33  C   UNL     1      20.408  45.933  48.811  1.00  0.00     0.011 A 
BRANCH  31  34
HETATM   34  N   UNL     1      21.263  43.321  46.287  1.00  0.00    -0.382 N 
BRANCH  34  35
HETATM   35  C   UNL     1      20.151  42.473  45.817  1.00  0.00     0.118 C 
HETATM   36  C   UNL     1      20.090  42.471  44.298  1.00  0.00     0.026 C 
ENDBRANCH  34  35
BRANCH  34  37
HETATM   37  C   UNL     1      22.546  42.625  46.476  1.00  0.00     0.118 C 
HETATM   38  C   UNL     1      22.342  41.238  47.066  1.00  0.00     0.026 C 
ENDBRANCH  34  37
ENDBRANCH  31  34
ENDBRANCH   1  28
BRANCH   6  39
HETATM   39  O   UNL     1      19.178  50.650  49.967  1.00  0.00    -0.389 OA
HETATM   40  H   UNL     1      19.353  51.269  50.702  1.00  0.00     0.210 HD
ENDBRANCH   6  39
TORSDOF 10
ENDMDL
