MODEL 1
REMARK VINA RESULT:      -8.8      0.000      0.000
REMARK  8 active torsions:
REMARK  status: ('A' for Active; 'I' for Inactive)
REMARK    1  A    between atoms: C_6  and  O_7 
REMARK    2  A    between atoms: O_7  and  C_8 
REMARK    3  A    between atoms: C_8  and  C_9 
REMARK    4  A    between atoms: C_9  and  C_10 
REMARK    5  A    between atoms: C_10  and  C_11 
REMARK    6  A    between atoms: C_11  and  N_12 
REMARK       I    between atoms: N_12  and  C_13 
REMARK    7  A    between atoms: C_13  and  C_14 
REMARK    8  A    between atoms: C_18  and  C_19 
ROOT
HETATM    1  N   UNL     1      25.171  46.539  51.012  1.00  0.00    -0.345 N 
HETATM    2  C   UNL     1      25.114  45.586  51.998  1.00  0.00     0.270 C 
HETATM    3  O   UNL     1      24.238  44.730  52.048  1.00  0.00    -0.266 OA
HETATM    4  H   UNL     1      25.885  47.251  51.035  1.00  0.00     0.163 HD
ENDROOT
BRANCH   2   5
HETATM    5  C   UNL     1      26.170  45.642  52.973  1.00  0.00     0.120 A 
HETATM    6  N   UNL     1      26.240  46.656  53.886  1.00  0.00    -0.272 N 
HETATM    7  H   UNL     1      25.606  47.445  53.967  1.00  0.00     0.189 HD
HETATM    8  N   UNL     1      27.261  46.552  54.748  1.00  0.00    -0.174 NA
HETATM    9  C   UNL     1      27.877  45.408  54.409  1.00  0.00     0.089 A 
HETATM   10  C   UNL     1      27.236  44.821  53.280  1.00  0.00     0.071 A 
BRANCH   9  11
HETATM   11  C   UNL     1      29.029  44.906  55.165  1.00  0.00    -0.005 A 
HETATM   12  C   UNL     1      29.670  43.709  54.803  1.00  0.00     0.017 A 
HETATM   13  C   UNL     1      30.757  43.232  55.543  1.00  0.00     0.043 A 
HETATM   14  C   UNL     1      31.207  43.950  56.644  1.00  0.00     0.116 A 
HETATM   15  F   UNL     1      32.245  43.488  57.351  1.00  0.00    -0.206 F 
HETATM   16  C   UNL     1      30.591  45.135  57.024  1.00  0.00     0.043 A 
HETATM   17  C   UNL     1      29.503  45.611  56.286  1.00  0.00     0.017 A 
ENDBRANCH   9  11
ENDBRANCH   2   5
BRANCH   1  18
HETATM   18  C   UNL     1      24.270  46.524  49.893  1.00  0.00     0.217 C 
BRANCH  18  19
HETATM   19  C   UNL     1      23.851  47.939  49.531  1.00  0.00    -0.085 C 
BRANCH  19  20
HETATM   20  C   UNL     1      23.491  49.154  49.223  1.00  0.00    -0.078 C 
BRANCH  20  21
HETATM   21  C   UNL     1      23.099  50.525  48.869  1.00  0.00     0.269 C 
BRANCH  21  22
HETATM   22  O   UNL     1      21.901  50.860  49.567  1.00  0.00    -0.340 OA
BRANCH  22  23
HETATM   23  C   UNL     1      20.757  50.966  48.826  1.00  0.00     0.071 A 
HETATM   24  C   UNL     1      19.705  51.622  49.473  1.00  0.00     0.055 A 
HETATM   25  C   UNL     1      18.483  51.797  48.825  1.00  0.00     0.013 A 
HETATM   26  C   UNL     1      18.297  51.325  47.528  1.00  0.00     0.019 A 
HETATM   27 BR   UNL     1      17.067  52.682  49.712  1.00  0.00    -0.051 Br
HETATM   28  C   UNL     1      19.344  50.672  46.878  1.00  0.00     0.004 A 
HETATM   29  C   UNL     1      20.572  50.493  47.524  1.00  0.00     0.037 A 
ENDBRANCH  22  23
ENDBRANCH  21  22
ENDBRANCH  20  21
ENDBRANCH  19  20
ENDBRANCH  18  19
ENDBRANCH   1  18
TORSDOF 8
ENDMDL
MODEL 2
REMARK VINA RESULT:      -8.7      5.828     12.404
REMARK  8 active torsions:
REMARK  status: ('A' for Active; 'I' for Inactive)
REMARK    1  A    between atoms: C_6  and  O_7 
REMARK    2  A    between atoms: O_7  and  C_8 
REMARK    3  A    between atoms: C_8  and  C_9 
REMARK    4  A    between atoms: C_9  and  C_10 
REMARK    5  A    between atoms: C_10  and  C_11 
REMARK    6  A    between atoms: C_11  and  N_12 
REMARK       I    between atoms: N_12  and  C_13 
REMARK    7  A    between atoms: C_13  and  C_14 
REMARK    8  A    between atoms: C_18  and  C_19 
ROOT
HETATM    1  N   UNL     1      23.502  48.002  49.921  1.00  0.00    -0.345 N 
HETATM    2  C   UNL     1      23.091  49.223  49.448  1.00  0.00     0.270 C 
HETATM    3  O   UNL     1      23.873  50.096  49.087  1.00  0.00    -0.266 OA
HETATM    4  H   UNL     1      22.825  47.330  50.247  1.00  0.00     0.163 HD
ENDROOT
BRANCH   2   5
HETATM    5  C   UNL     1      21.666  49.411  49.381  1.00  0.00     0.120 A 
HETATM    6  N   UNL     1      20.803  48.371  49.583  1.00  0.00    -0.272 N 
HETATM    7  H   UNL     1      21.051  47.404  49.774  1.00  0.00     0.189 HD
HETATM    8  N   UNL     1      19.508  48.710  49.522  1.00  0.00    -0.174 NA
HETATM    9  C   UNL     1      19.513  50.033  49.297  1.00  0.00     0.089 A 
HETATM   10  C   UNL     1      20.852  50.506  49.176  1.00  0.00     0.071 A 
BRANCH   9  11
HETATM   11  C   UNL     1      18.266  50.801  49.220  1.00  0.00    -0.005 A 
HETATM   12  C   UNL     1      18.143  52.051  49.850  1.00  0.00     0.017 A 
HETATM   13  C   UNL     1      16.942  52.766  49.784  1.00  0.00     0.043 A 
HETATM   14  C   UNL     1      15.863  52.234  49.089  1.00  0.00     0.116 A 
HETATM   15  F   UNL     1      14.715  52.919  49.031  1.00  0.00    -0.206 F 
HETATM   16  C   UNL     1      15.958  51.000  48.459  1.00  0.00     0.043 A 
HETATM   17  C   UNL     1      17.157  50.285  48.527  1.00  0.00     0.017 A 
ENDBRANCH   9  11
ENDBRANCH   2   5
BRANCH   1  18
HETATM   18  C   UNL     1      24.887  47.615  49.912  1.00  0.00     0.217 C 
BRANCH  18  19
HETATM   19  C   UNL     1      25.165  46.621  51.027  1.00  0.00    -0.085 C 
BRANCH  19  20
HETATM   20  C   UNL     1      25.405  45.768  51.983  1.00  0.00    -0.078 C 
BRANCH  20  21
HETATM   21  C   UNL     1      25.687  44.815  53.067  1.00  0.00     0.269 C 
BRANCH  21  22
HETATM   22  O   UNL     1      26.863  45.233  53.758  1.00  0.00    -0.340 OA
BRANCH  22  23
HETATM   23  C   UNL     1      27.963  44.427  53.658  1.00  0.00     0.071 A 
HETATM   24  C   UNL     1      28.811  44.464  54.769  1.00  0.00     0.055 A 
HETATM   25  C   UNL     1      29.969  43.687  54.794  1.00  0.00     0.013 A 
HETATM   26  C   UNL     1      30.291  42.865  53.716  1.00  0.00     0.019 A 
HETATM   27 BR   UNL     1      31.110  43.748  56.300  1.00  0.00    -0.051 Br
HETATM   28  C   UNL     1      29.447  42.824  52.608  1.00  0.00     0.004 A 
HETATM   29  C   UNL     1      28.285  43.602  52.578  1.00  0.00     0.037 A 
ENDBRANCH  22  23
ENDBRANCH  21  22
ENDBRANCH  20  21
ENDBRANCH  19  20
ENDBRANCH  18  19
ENDBRANCH   1  18
TORSDOF 8
ENDMDL
MODEL 3
REMARK VINA RESULT:      -8.7      1.896      2.373
REMARK  8 active torsions:
REMARK  status: ('A' for Active; 'I' for Inactive)
REMARK    1  A    between atoms: C_6  and  O_7 
REMARK    2  A    between atoms: O_7  and  C_8 
REMARK    3  A    between atoms: C_8  and  C_9 
REMARK    4  A    between atoms: C_9  and  C_10 
REMARK    5  A    between atoms: C_10  and  C_11 
REMARK    6  A    between atoms: C_11  and  N_12 
REMARK       I    between atoms: N_12  and  C_13 
REMARK    7  A    between atoms: C_13  and  C_14 
REMARK    8  A    between atoms: C_18  and  C_19 
ROOT
HETATM    1  N   UNL     1      25.405  45.864  51.041  1.00  0.00    -0.345 N 
HETATM    2  C   UNL     1      25.320  44.939  52.051  1.00  0.00     0.270 C 
HETATM    3  O   UNL     1      24.269  44.389  52.365  1.00  0.00    -0.266 OA
HETATM    4  H   UNL     1      26.282  46.322  50.845  1.00  0.00     0.163 HD
ENDROOT
BRANCH   2   5
HETATM    5  C   UNL     1      26.559  44.632  52.714  1.00  0.00     0.120 A 
HETATM    6  N   UNL     1      27.615  44.096  52.032  1.00  0.00    -0.272 N 
HETATM    7  H   UNL     1      27.640  43.852  51.046  1.00  0.00     0.189 HD
HETATM    8  N   UNL     1      28.710  43.898  52.779  1.00  0.00    -0.174 NA
HETATM    9  C   UNL     1      28.374  44.347  53.999  1.00  0.00     0.089 A 
HETATM   10  C   UNL     1      27.021  44.791  54.005  1.00  0.00     0.071 A 
BRANCH   9  11
HETATM   11  C   UNL     1      29.340  44.353  55.104  1.00  0.00    -0.005 A 
HETATM   12  C   UNL     1      29.362  45.397  56.043  1.00  0.00     0.017 A 
HETATM   13  C   UNL     1      30.298  45.401  57.081  1.00  0.00     0.043 A 
HETATM   14  C   UNL     1      31.214  44.361  57.185  1.00  0.00     0.116 A 
HETATM   15  F   UNL     1      32.110  44.369  58.179  1.00  0.00    -0.206 F 
HETATM   16  C   UNL     1      31.214  43.317  56.270  1.00  0.00     0.043 A 
HETATM   17  C   UNL     1      30.279  43.315  55.230  1.00  0.00     0.017 A 
ENDBRANCH   9  11
ENDBRANCH   2   5
BRANCH   1  18
HETATM   18  C   UNL     1      24.282  46.167  50.196  1.00  0.00     0.217 C 
BRANCH  18  19
HETATM   19  C   UNL     1      24.482  47.509  49.511  1.00  0.00    -0.085 C 
BRANCH  19  20
HETATM   20  C   UNL     1      24.654  48.660  48.925  1.00  0.00    -0.078 C 
BRANCH  20  21
HETATM   21  C   UNL     1      24.834  49.959  48.261  1.00  0.00     0.269 C 
BRANCH  21  22
HETATM   22  O   UNL     1      23.761  50.164  47.345  1.00  0.00    -0.340 OA
BRANCH  22  23
HETATM   23  C   UNL     1      22.497  50.220  47.866  1.00  0.00     0.071 A 
HETATM   24  C   UNL     1      21.683  49.135  47.530  1.00  0.00     0.055 A 
HETATM   25  C   UNL     1      20.371  49.071  47.999  1.00  0.00     0.013 A 
HETATM   26  C   UNL     1      19.860  50.082  48.809  1.00  0.00     0.019 A 
HETATM   27 BR   UNL     1      19.278  47.600  47.534  1.00  0.00    -0.051 Br
HETATM   28  C   UNL     1      20.671  51.165  49.149  1.00  0.00     0.004 A 
HETATM   29  C   UNL     1      21.987  51.234  48.680  1.00  0.00     0.037 A 
ENDBRANCH  22  23
ENDBRANCH  21  22
ENDBRANCH  20  21
ENDBRANCH  19  20
ENDBRANCH  18  19
ENDBRANCH   1  18
TORSDOF 8
ENDMDL
MODEL 4
REMARK VINA RESULT:      -8.6      5.365     11.674
REMARK  8 active torsions:
REMARK  status: ('A' for Active; 'I' for Inactive)
REMARK    1  A    between atoms: C_6  and  O_7 
REMARK    2  A    between atoms: O_7  and  C_8 
REMARK    3  A    between atoms: C_8  and  C_9 
REMARK    4  A    between atoms: C_9  and  C_10 
REMARK    5  A    between atoms: C_10  and  C_11 
REMARK    6  A    between atoms: C_11  and  N_12 
REMARK       I    between atoms: N_12  and  C_13 
REMARK    7  A    between atoms: C_13  and  C_14 
REMARK    8  A    between atoms: C_18  and  C_19 
ROOT
HETATM    1  N   UNL     1      25.399  48.223  49.596  1.00  0.00    -0.345 N 
HETATM    2  C   UNL     1      24.888  49.225  48.810  1.00  0.00     0.270 C 
HETATM    3  O   UNL     1      25.581  49.896  48.051  1.00  0.00    -0.266 OA
HETATM    4  H   UNL     1      24.800  47.726  50.237  1.00  0.00     0.163 HD
ENDROOT
BRANCH   2   5
HETATM    5  C   UNL     1      23.469  49.432  48.917  1.00  0.00     0.120 A 
HETATM    6  N   UNL     1      22.632  48.419  49.292  1.00  0.00    -0.272 N 
HETATM    7  H   UNL     1      22.894  47.462  49.508  1.00  0.00     0.189 HD
HETATM    8  N   UNL     1      21.342  48.774  49.379  1.00  0.00    -0.174 NA
HETATM    9  C   UNL     1      21.329  50.082  49.076  1.00  0.00     0.089 A 
HETATM   10  C   UNL     1      22.644  50.525  48.753  1.00  0.00     0.071 A 
BRANCH   9  11
HETATM   11  C   UNL     1      20.088  50.863  49.114  1.00  0.00    -0.005 A 
HETATM   12  C   UNL     1      19.913  51.989  48.292  1.00  0.00     0.017 A 
HETATM   13  C   UNL     1      18.732  52.736  48.351  1.00  0.00     0.043 A 
HETATM   14  C   UNL     1      17.724  52.361  49.230  1.00  0.00     0.116 A 
HETATM   15  F   UNL     1      16.597  53.080  49.285  1.00  0.00    -0.206 F 
HETATM   16  C   UNL     1      17.872  51.254  50.054  1.00  0.00     0.043 A 
HETATM   17  C   UNL     1      19.053  50.508  49.997  1.00  0.00     0.017 A 
ENDBRANCH   9  11
ENDBRANCH   2   5
BRANCH   1  18
HETATM   18  C   UNL     1      26.771  47.806  49.493  1.00  0.00     0.217 C 
BRANCH  18  19
HETATM   19  C   UNL     1      26.896  46.321  49.791  1.00  0.00    -0.085 C 
BRANCH  19  20
HETATM   20  C   UNL     1      27.003  45.047  50.046  1.00  0.00    -0.078 C 
BRANCH  20  21
HETATM   21  C   UNL     1      27.136  43.613  50.340  1.00  0.00     0.269 C 
BRANCH  21  22
HETATM   22  O   UNL     1      26.901  43.401  51.731  1.00  0.00    -0.340 OA
BRANCH  22  23
HETATM   23  C   UNL     1      27.995  43.382  52.552  1.00  0.00     0.071 A 
HETATM   24  C   UNL     1      27.960  44.321  53.587  1.00  0.00     0.055 A 
HETATM   25  C   UNL     1      29.015  44.404  54.495  1.00  0.00     0.013 A 
HETATM   26  C   UNL     1      30.110  43.551  54.384  1.00  0.00     0.019 A 
HETATM   27 BR   UNL     1      28.958  45.681  55.888  1.00  0.00    -0.051 Br
HETATM   28  C   UNL     1      30.148  42.611  53.356  1.00  0.00     0.004 A 
HETATM   29  C   UNL     1      29.093  42.525  52.441  1.00  0.00     0.037 A 
ENDBRANCH  22  23
ENDBRANCH  21  22
ENDBRANCH  20  21
ENDBRANCH  19  20
ENDBRANCH  18  19
ENDBRANCH   1  18
TORSDOF 8
ENDMDL
MODEL 5
REMARK VINA RESULT:      -8.6      5.633     11.684
REMARK  8 active torsions:
REMARK  status: ('A' for Active; 'I' for Inactive)
REMARK    1  A    between atoms: C_6  and  O_7 
REMARK    2  A    between atoms: O_7  and  C_8 
REMARK    3  A    between atoms: C_8  and  C_9 
REMARK    4  A    between atoms: C_9  and  C_10 
REMARK    5  A    between atoms: C_10  and  C_11 
REMARK    6  A    between atoms: C_11  and  N_12 
REMARK       I    between atoms: N_12  and  C_13 
REMARK    7  A    between atoms: C_13  and  C_14 
REMARK    8  A    between atoms: C_18  and  C_19 
ROOT
HETATM    1  N   UNL     1      25.462  46.198  49.570  1.00  0.00    -0.345 N 
HETATM    2  C   UNL     1      25.272  47.543  49.768  1.00  0.00     0.270 C 
HETATM    3  O   UNL     1      26.175  48.301  50.107  1.00  0.00    -0.266 OA
HETATM    4  H   UNL     1      24.682  45.605  49.333  1.00  0.00     0.163 HD
ENDROOT
BRANCH   2   5
HETATM    5  C   UNL     1      23.936  48.019  49.530  1.00  0.00     0.120 A 
HETATM    6  N   UNL     1      22.924  47.160  49.205  1.00  0.00    -0.272 N 
HETATM    7  H   UNL     1      22.997  46.154  49.084  1.00  0.00     0.189 HD
HETATM    8  N   UNL     1      21.730  47.749  49.048  1.00  0.00    -0.174 NA
HETATM    9  C   UNL     1      21.956  49.047  49.306  1.00  0.00     0.089 A 
HETATM   10  C   UNL     1      23.336  49.260  49.586  1.00  0.00     0.071 A 
BRANCH   9  11
HETATM   11  C   UNL     1      20.867  50.030  49.292  1.00  0.00    -0.005 A 
HETATM   12  C   UNL     1      19.722  49.856  50.088  1.00  0.00     0.017 A 
HETATM   13  C   UNL     1      18.682  50.791  50.052  1.00  0.00     0.043 A 
HETATM   14  C   UNL     1      18.784  51.901  49.224  1.00  0.00     0.116 A 
HETATM   15  F   UNL     1      17.786  52.792  49.191  1.00  0.00    -0.206 F 
HETATM   16  C   UNL     1      19.904  52.096  48.426  1.00  0.00     0.043 A 
HETATM   17  C   UNL     1      20.942  51.160  48.460  1.00  0.00     0.017 A 
ENDBRANCH   9  11
ENDBRANCH   2   5
BRANCH   1  18
HETATM   18  C   UNL     1      26.769  45.602  49.630  1.00  0.00     0.217 C 
BRANCH  18  19
HETATM   19  C   UNL     1      26.892  44.719  50.861  1.00  0.00    -0.085 C 
BRANCH  19  20
HETATM   20  C   UNL     1      26.999  43.962  51.916  1.00  0.00    -0.078 C 
BRANCH  20  21
HETATM   21  C   UNL     1      27.132  43.116  53.111  1.00  0.00     0.269 C 
BRANCH  21  22
HETATM   22  O   UNL     1      28.513  42.995  53.442  1.00  0.00    -0.340 OA
BRANCH  22  23
HETATM   23  C   UNL     1      29.014  43.874  54.362  1.00  0.00     0.071 A 
HETATM   24  C   UNL     1      30.028  43.353  55.171  1.00  0.00     0.055 A 
HETATM   25  C   UNL     1      30.624  44.149  56.149  1.00  0.00     0.013 A 
HETATM   26  C   UNL     1      30.218  45.469  56.329  1.00  0.00     0.019 A 
HETATM   27 BR   UNL     1      31.991  43.432  57.240  1.00  0.00    -0.051 Br
HETATM   28  C   UNL     1      29.209  45.993  55.522  1.00  0.00     0.004 A 
HETATM   29  C   UNL     1      28.608  45.199  54.540  1.00  0.00     0.037 A 
ENDBRANCH  22  23
ENDBRANCH  21  22
ENDBRANCH  20  21
ENDBRANCH  19  20
ENDBRANCH  18  19
ENDBRANCH   1  18
TORSDOF 8
ENDMDL
MODEL 6
REMARK VINA RESULT:      -8.5      1.182      1.605
REMARK  8 active torsions:
REMARK  status: ('A' for Active; 'I' for Inactive)
REMARK    1  A    between atoms: C_6  and  O_7 
REMARK    2  A    between atoms: O_7  and  C_8 
REMARK    3  A    between atoms: C_8  and  C_9 
REMARK    4  A    between atoms: C_9  and  C_10 
REMARK    5  A    between atoms: C_10  and  C_11 
REMARK    6  A    between atoms: C_11  and  N_12 
REMARK       I    between atoms: N_12  and  C_13 
REMARK    7  A    between atoms: C_13  and  C_14 
REMARK    8  A    between atoms: C_18  and  C_19 
ROOT
HETATM    1  N   UNL     1      25.077  45.612  50.623  1.00  0.00    -0.345 N 
HETATM    2  C   UNL     1      25.078  44.775  51.710  1.00  0.00     0.270 C 
HETATM    3  O   UNL     1      24.265  43.868  51.854  1.00  0.00    -0.266 OA
HETATM    4  H   UNL     1      25.737  46.372  50.567  1.00  0.00     0.163 HD
ENDROOT
BRANCH   2   5
HETATM    5  C   UNL     1      26.117  45.017  52.674  1.00  0.00     0.120 A 
HETATM    6  N   UNL     1      26.150  46.169  53.408  1.00  0.00    -0.272 N 
HETATM    7  H   UNL     1      25.496  46.944  53.351  1.00  0.00     0.189 HD
HETATM    8  N   UNL     1      27.159  46.233  54.288  1.00  0.00    -0.174 NA
HETATM    9  C   UNL     1      27.806  45.065  54.149  1.00  0.00     0.089 A 
HETATM   10  C   UNL     1      27.197  44.284  53.125  1.00  0.00     0.071 A 
BRANCH   9  11
HETATM   11  C   UNL     1      28.957  44.723  54.991  1.00  0.00    -0.005 A 
HETATM   12  C   UNL     1      29.387  45.582  56.016  1.00  0.00     0.017 A 
HETATM   13  C   UNL     1      30.498  45.254  56.801  1.00  0.00     0.043 A 
HETATM   14  C   UNL     1      31.180  44.067  56.564  1.00  0.00     0.116 A 
HETATM   15  F   UNL     1      32.244  43.758  57.315  1.00  0.00    -0.206 F 
HETATM   16  C   UNL     1      30.776  43.201  55.557  1.00  0.00     0.043 A 
HETATM   17  C   UNL     1      29.668  43.530  54.771  1.00  0.00     0.017 A 
ENDBRANCH   9  11
ENDBRANCH   2   5
BRANCH   1  18
HETATM   18  C   UNL     1      24.190  45.406  49.510  1.00  0.00     0.217 C 
BRANCH  18  19
HETATM   19  C   UNL     1      23.466  46.696  49.164  1.00  0.00    -0.085 C 
BRANCH  19  20
HETATM   20  C   UNL     1      22.846  47.804  48.867  1.00  0.00    -0.078 C 
BRANCH  20  21
HETATM   21  C   UNL     1      22.151  49.058  48.545  1.00  0.00     0.269 C 
BRANCH  21  22
HETATM   22  O   UNL     1      20.889  49.074  49.210  1.00  0.00    -0.340 OA
BRANCH  22  23
HETATM   23  C   UNL     1      20.031  50.091  48.895  1.00  0.00     0.071 A 
HETATM   24  C   UNL     1      18.711  49.689  48.674  1.00  0.00     0.055 A 
HETATM   25  C   UNL     1      17.736  50.631  48.347  1.00  0.00     0.013 A 
HETATM   26  C   UNL     1      18.065  51.980  48.240  1.00  0.00     0.019 A 
HETATM   27 BR   UNL     1      15.954  50.075  48.046  1.00  0.00    -0.051 Br
HETATM   28  C   UNL     1      19.381  52.385  48.462  1.00  0.00     0.004 A 
HETATM   29  C   UNL     1      20.363  51.444  48.790  1.00  0.00     0.037 A 
ENDBRANCH  22  23
ENDBRANCH  21  22
ENDBRANCH  20  21
ENDBRANCH  19  20
ENDBRANCH  18  19
ENDBRANCH   1  18
TORSDOF 8
ENDMDL
MODEL 7
REMARK VINA RESULT:      -8.3      5.509     12.066
REMARK  8 active torsions:
REMARK  status: ('A' for Active; 'I' for Inactive)
REMARK    1  A    between atoms: C_6  and  O_7 
REMARK    2  A    between atoms: O_7  and  C_8 
REMARK    3  A    between atoms: C_8  and  C_9 
REMARK    4  A    between atoms: C_9  and  C_10 
REMARK    5  A    between atoms: C_10  and  C_11 
REMARK    6  A    between atoms: C_11  and  N_12 
REMARK       I    between atoms: N_12  and  C_13 
REMARK    7  A    between atoms: C_13  and  C_14 
REMARK    8  A    between atoms: C_18  and  C_19 
ROOT
HETATM    1  N   UNL     1      24.187  47.495  50.279  1.00  0.00    -0.345 N 
HETATM    2  C   UNL     1      23.906  48.645  49.583  1.00  0.00     0.270 C 
HETATM    3  O   UNL     1      24.777  49.381  49.133  1.00  0.00    -0.266 OA
HETATM    4  H   UNL     1      23.439  46.942  50.668  1.00  0.00     0.163 HD
ENDROOT
BRANCH   2   5
HETATM    5  C   UNL     1      22.508  48.926  49.394  1.00  0.00     0.120 A 
HETATM    6  N   UNL     1      21.590  47.919  49.289  1.00  0.00    -0.272 N 
HETATM    7  H   UNL     1      21.778  46.921  49.313  1.00  0.00     0.189 HD
HETATM    8  N   UNL     1      20.325  48.340  49.150  1.00  0.00    -0.174 NA
HETATM    9  C   UNL     1      20.406  49.679  49.192  1.00  0.00     0.089 A 
HETATM   10  C   UNL     1      21.765  50.086  49.318  1.00  0.00     0.071 A 
BRANCH   9  11
HETATM   11  C   UNL     1      19.206  50.520  49.127  1.00  0.00    -0.005 A 
HETATM   12  C   UNL     1      17.920  49.952  49.132  1.00  0.00     0.017 A 
HETATM   13  C   UNL     1      16.784  50.764  49.052  1.00  0.00     0.043 A 
HETATM   14  C   UNL     1      16.929  52.143  48.968  1.00  0.00     0.116 A 
HETATM   15  F   UNL     1      15.839  52.916  48.888  1.00  0.00    -0.206 F 
HETATM   16  C   UNL     1      18.187  52.729  48.959  1.00  0.00     0.043 A 
HETATM   17  C   UNL     1      19.323  51.918  49.037  1.00  0.00     0.017 A 
ENDBRANCH   9  11
ENDBRANCH   2   5
BRANCH   1  18
HETATM   18  C   UNL     1      25.532  47.009  50.424  1.00  0.00     0.217 C 
BRANCH  18  19
HETATM   19  C   UNL     1      25.864  46.802  51.893  1.00  0.00    -0.085 C 
BRANCH  19  20
HETATM   20  C   UNL     1      26.149  46.627  53.152  1.00  0.00    -0.078 C 
BRANCH  20  21
HETATM   21  C   UNL     1      26.471  46.443  54.575  1.00  0.00     0.269 C 
BRANCH  21  22
HETATM   22  O   UNL     1      27.833  46.805  54.792  1.00  0.00    -0.340 OA
BRANCH  22  23
HETATM   23  C   UNL     1      28.717  45.791  55.041  1.00  0.00     0.071 A 
HETATM   24  C   UNL     1      28.597  44.694  54.182  1.00  0.00     0.055 A 
HETATM   25  C   UNL     1      29.440  43.593  54.329  1.00  0.00     0.013 A 
HETATM   26  C   UNL     1      30.410  43.574  55.328  1.00  0.00     0.019 A 
HETATM   27 BR   UNL     1      29.266  42.114  53.163  1.00  0.00    -0.051 Br
HETATM   28  C   UNL     1      30.534  44.667  56.185  1.00  0.00     0.004 A 
HETATM   29  C   UNL     1      29.690  45.774  56.042  1.00  0.00     0.037 A 
ENDBRANCH  22  23
ENDBRANCH  21  22
ENDBRANCH  20  21
ENDBRANCH  19  20
ENDBRANCH  18  19
ENDBRANCH   1  18
TORSDOF 8
ENDMDL
MODEL 8
REMARK VINA RESULT:      -8.3      2.389      3.185
REMARK  8 active torsions:
REMARK  status: ('A' for Active; 'I' for Inactive)
REMARK    1  A    between atoms: C_6  and  O_7 
REMARK    2  A    between atoms: O_7  and  C_8 
REMARK    3  A    between atoms: C_8  and  C_9 
REMARK    4  A    between atoms: C_9  and  C_10 
REMARK    5  A    between atoms: C_10  and  C_11 
REMARK    6  A    between atoms: C_11  and  N_12 
REMARK       I    between atoms: N_12  and  C_13 
REMARK    7  A    between atoms: C_13  and  C_14 
REMARK    8  A    between atoms: C_18  and  C_19 
ROOT
HETATM    1  N   UNL     1      25.003  42.752  50.135  1.00  0.00    -0.345 N 
HETATM    2  C   UNL     1      26.313  43.155  50.205  1.00  0.00     0.270 C 
HETATM    3  O   UNL     1      27.023  43.293  49.215  1.00  0.00    -0.266 OA
HETATM    4  H   UNL     1      24.470  42.611  50.978  1.00  0.00     0.163 HD
ENDROOT
BRANCH   2   5
HETATM    5  C   UNL     1      26.804  43.429  51.529  1.00  0.00     0.120 A 
HETATM    6  N   UNL     1      25.965  43.447  52.607  1.00  0.00    -0.272 N 
HETATM    7  H   UNL     1      24.960  43.296  52.598  1.00  0.00     0.189 HD
HETATM    8  N   UNL     1      26.576  43.683  53.777  1.00  0.00    -0.174 NA
HETATM    9  C   UNL     1      27.876  43.799  53.464  1.00  0.00     0.089 A 
HETATM   10  C   UNL     1      28.056  43.672  52.057  1.00  0.00     0.071 A 
BRANCH   9  11
HETATM   11  C   UNL     1      28.895  44.009  54.498  1.00  0.00    -0.005 A 
HETATM   12  C   UNL     1      29.882  43.042  54.752  1.00  0.00     0.017 A 
HETATM   13  C   UNL     1      30.838  43.246  55.752  1.00  0.00     0.043 A 
HETATM   14  C   UNL     1      30.811  44.417  56.499  1.00  0.00     0.116 A 
HETATM   15  F   UNL     1      31.726  44.608  57.458  1.00  0.00    -0.206 F 
HETATM   16  C   UNL     1      29.847  45.389  56.269  1.00  0.00     0.043 A 
HETATM   17  C   UNL     1      28.890  45.183  55.271  1.00  0.00     0.017 A 
ENDBRANCH   9  11
ENDBRANCH   2   5
BRANCH   1  18
HETATM   18  C   UNL     1      24.332  42.580  48.875  1.00  0.00     0.217 C 
BRANCH  18  19
HETATM   19  C   UNL     1      23.629  43.865  48.470  1.00  0.00    -0.085 C 
BRANCH  19  20
HETATM   20  C   UNL     1      23.026  44.966  48.121  1.00  0.00    -0.078 C 
BRANCH  20  21
HETATM   21  C   UNL     1      22.343  46.211  47.742  1.00  0.00     0.269 C 
BRANCH  21  22
HETATM   22  O   UNL     1      22.222  47.043  48.894  1.00  0.00    -0.340 OA
BRANCH  22  23
HETATM   23  C   UNL     1      22.501  48.373  48.736  1.00  0.00     0.071 A 
HETATM   24  C   UNL     1      21.378  49.206  48.741  1.00  0.00     0.055 A 
HETATM   25  C   UNL     1      21.527  50.584  48.589  1.00  0.00     0.013 A 
HETATM   26  C   UNL     1      22.792  51.145  48.434  1.00  0.00     0.019 A 
HETATM   27 BR   UNL     1      20.001  51.700  48.593  1.00  0.00    -0.051 Br
HETATM   28  C   UNL     1      23.914  50.318  48.431  1.00  0.00     0.004 A 
HETATM   29  C   UNL     1      23.771  48.935  48.582  1.00  0.00     0.037 A 
ENDBRANCH  22  23
ENDBRANCH  21  22
ENDBRANCH  20  21
ENDBRANCH  19  20
ENDBRANCH  18  19
ENDBRANCH   1  18
TORSDOF 8
ENDMDL
MODEL 9
REMARK VINA RESULT:      -7.9      5.823     12.230
REMARK  8 active torsions:
REMARK  status: ('A' for Active; 'I' for Inactive)
REMARK    1  A    between atoms: C_6  and  O_7 
REMARK    2  A    between atoms: O_7  and  C_8 
REMARK    3  A    between atoms: C_8  and  C_9 
REMARK    4  A    between atoms: C_9  and  C_10 
REMARK    5  A    between atoms: C_10  and  C_11 
REMARK    6  A    between atoms: C_11  and  N_12 
REMARK       I    between atoms: N_12  and  C_13 
REMARK    7  A    between atoms: C_13  and  C_14 
REMARK    8  A    between atoms: C_18  and  C_19 
ROOT
HETATM    1  N   UNL     1      23.502  48.263  49.812  1.00  0.00    -0.345 N 
HETATM    2  C   UNL     1      23.032  48.926  48.706  1.00  0.00     0.270 C 
HETATM    3  O   UNL     1      23.753  49.260  47.771  1.00  0.00    -0.266 OA
HETATM    4  H   UNL     1      22.880  48.046  50.575  1.00  0.00     0.163 HD
ENDROOT
BRANCH   2   5
HETATM    5  C   UNL     1      21.618  49.192  48.700  1.00  0.00     0.120 A 
HETATM    6  N   UNL     1      20.795  48.675  49.660  1.00  0.00    -0.272 N 
HETATM    7  H   UNL     1      21.065  48.068  50.429  1.00  0.00     0.189 HD
HETATM    8  N   UNL     1      19.511  49.039  49.539  1.00  0.00    -0.174 NA
HETATM    9  C   UNL     1      19.487  49.852  48.471  1.00  0.00     0.089 A 
HETATM   10  C   UNL     1      20.789  49.952  47.900  1.00  0.00     0.071 A 
BRANCH   9  11
HETATM   11  C   UNL     1      18.251  50.513  48.039  1.00  0.00    -0.005 A 
HETATM   12  C   UNL     1      17.023  50.235  48.665  1.00  0.00     0.017 A 
HETATM   13  C   UNL     1      15.848  50.858  48.233  1.00  0.00     0.043 A 
HETATM   14  C   UNL     1      15.896  51.759  47.177  1.00  0.00     0.116 A 
HETATM   15  F   UNL     1      14.768  52.351  46.764  1.00  0.00    -0.206 F 
HETATM   16  C   UNL     1      17.095  52.050  46.541  1.00  0.00     0.043 A 
HETATM   17  C   UNL     1      18.270  51.426  46.971  1.00  0.00     0.017 A 
ENDBRANCH   9  11
ENDBRANCH   2   5
BRANCH   1  18
HETATM   18  C   UNL     1      24.861  47.803  49.897  1.00  0.00     0.217 C 
BRANCH  18  19
HETATM   19  C   UNL     1      24.971  46.659  50.891  1.00  0.00    -0.085 C 
BRANCH  19  20
HETATM   20  C   UNL     1      25.066  45.677  51.743  1.00  0.00    -0.078 C 
BRANCH  20  21
HETATM   21  C   UNL     1      25.169  44.579  52.714  1.00  0.00     0.269 C 
BRANCH  21  22
HETATM   22  O   UNL     1      25.260  45.128  54.027  1.00  0.00    -0.340 OA
BRANCH  22  23
HETATM   23  C   UNL     1      26.486  45.582  54.429  1.00  0.00     0.071 A 
HETATM   24  C   UNL     1      27.476  44.598  54.496  1.00  0.00     0.055 A 
HETATM   25  C   UNL     1      28.771  44.932  54.891  1.00  0.00     0.013 A 
HETATM   26  C   UNL     1      29.093  46.246  55.221  1.00  0.00     0.019 A 
HETATM   27 BR   UNL     1      30.101  43.591  54.981  1.00  0.00    -0.051 Br
HETATM   28  C   UNL     1      28.108  47.231  55.153  1.00  0.00     0.004 A 
HETATM   29  C   UNL     1      26.807  46.902  54.758  1.00  0.00     0.037 A 
ENDBRANCH  22  23
ENDBRANCH  21  22
ENDBRANCH  20  21
ENDBRANCH  19  20
ENDBRANCH  18  19
ENDBRANCH   1  18
TORSDOF 8
ENDMDL
MODEL 10
REMARK VINA RESULT:      -7.8      2.528      3.233
REMARK  8 active torsions:
REMARK  status: ('A' for Active; 'I' for Inactive)
REMARK    1  A    between atoms: C_6  and  O_7 
REMARK    2  A    between atoms: O_7  and  C_8 
REMARK    3  A    between atoms: C_8  and  C_9 
REMARK    4  A    between atoms: C_9  and  C_10 
REMARK    5  A    between atoms: C_10  and  C_11 
REMARK    6  A    between atoms: C_11  and  N_12 
REMARK       I    between atoms: N_12  and  C_13 
REMARK    7  A    between atoms: C_13  and  C_14 
REMARK    8  A    between atoms: C_18  and  C_19 
ROOT
HETATM    1  N   UNL     1      23.391  44.678  49.420  1.00  0.00    -0.345 N 
HETATM    2  C   UNL     1      23.656  43.875  50.501  1.00  0.00     0.270 C 
HETATM    3  O   UNL     1      23.006  42.867  50.759  1.00  0.00    -0.266 OA
HETATM    4  H   UNL     1      23.924  45.520  49.271  1.00  0.00     0.163 HD
ENDROOT
BRANCH   2   5
HETATM    5  C   UNL     1      24.772  44.281  51.313  1.00  0.00     0.120 A 
HETATM    6  N   UNL     1      24.949  45.588  51.671  1.00  0.00    -0.272 N 
HETATM    7  H   UNL     1      24.363  46.375  51.409  1.00  0.00     0.189 HD
HETATM    8  N   UNL     1      26.014  45.804  52.456  1.00  0.00    -0.174 NA
HETATM    9  C   UNL     1      26.548  44.587  52.647  1.00  0.00     0.089 A 
HETATM   10  C   UNL     1      25.811  43.607  51.922  1.00  0.00     0.071 A 
BRANCH   9  11
HETATM   11  C   UNL     1      27.717  44.393  53.511  1.00  0.00    -0.005 A 
HETATM   12  C   UNL     1      27.995  45.276  54.568  1.00  0.00     0.017 A 
HETATM   13  C   UNL     1      29.122  45.090  55.373  1.00  0.00     0.043 A 
HETATM   14  C   UNL     1      29.974  44.021  55.127  1.00  0.00     0.116 A 
HETATM   15  F   UNL     1      31.054  43.848  55.898  1.00  0.00    -0.206 F 
HETATM   16  C   UNL     1      29.724  43.134  54.089  1.00  0.00     0.043 A 
HETATM   17  C   UNL     1      28.598  43.321  53.281  1.00  0.00     0.017 A 
ENDBRANCH   9  11
ENDBRANCH   2   5
BRANCH   1  18
HETATM   18  C   UNL     1      22.400  44.323  48.440  1.00  0.00     0.217 C 
BRANCH  18  19
HETATM   19  C   UNL     1      21.201  45.252  48.540  1.00  0.00    -0.085 C 
BRANCH  19  20
HETATM   20  C   UNL     1      20.172  46.047  48.625  1.00  0.00    -0.078 C 
BRANCH  20  21
HETATM   21  C   UNL     1      19.017  46.952  48.709  1.00  0.00     0.269 C 
BRANCH  21  22
HETATM   22  O   UNL     1      19.237  47.889  49.761  1.00  0.00    -0.340 OA
BRANCH  22  23
HETATM   23  C   UNL     1      19.561  49.168  49.399  1.00  0.00     0.071 A 
HETATM   24  C   UNL     1      20.909  49.357  49.082  1.00  0.00     0.055 A 
HETATM   25  C   UNL     1      21.369  50.616  48.696  1.00  0.00     0.013 A 
HETATM   26  C   UNL     1      20.492  51.695  48.620  1.00  0.00     0.019 A 
HETATM   27 BR   UNL     1      23.195  50.860  48.272  1.00  0.00    -0.051 Br
HETATM   28  C   UNL     1      19.146  51.510  48.934  1.00  0.00     0.004 A 
HETATM   29  C   UNL     1      18.680  50.250  49.322  1.00  0.00     0.037 A 
ENDBRANCH  22  23
ENDBRANCH  21  22
ENDBRANCH  20  21
ENDBRANCH  19  20
ENDBRANCH  18  19
ENDBRANCH   1  18
TORSDOF 8
ENDMDL
