MODEL 1
REMARK VINA RESULT:     -10.6      0.000      0.000
REMARK  3 active torsions:
REMARK  status: ('A' for Active; 'I' for Inactive)
REMARK    1  A    between atoms: N_7  and  N_8 
REMARK       I    between atoms: N_8  and  C_9 
REMARK    2  A    between atoms: C_9  and  C_10 
REMARK    3  A    between atoms: C_14  and  C_15 
ROOT
HETATM    1  C   UNL     1      24.818  48.196  49.407  1.00  0.00     0.121 A 
HETATM    2  N   UNL     1      25.072  49.401  48.811  1.00  0.00    -0.272 N 
HETATM    3  H   UNL     1      25.980  49.763  48.536  1.00  0.00     0.189 HD
HETATM    4  N   UNL     1      23.976  50.144  48.585  1.00  0.00    -0.178 NA
HETATM    5  C   UNL     1      22.966  49.397  49.050  1.00  0.00     0.066 A 
HETATM    6  C   UNL     1      23.449  48.169  49.576  1.00  0.00     0.066 A 
ENDROOT
BRANCH   1   7
HETATM    7  C   UNL     1      25.877  47.267  49.719  1.00  0.00     0.289 C 
HETATM    8  N   UNL     1      25.533  46.314  50.662  1.00  0.00    -0.241 N 
HETATM    9  H   UNL     1      24.600  46.318  51.073  1.00  0.00     0.192 HD
HETATM   10  O   UNL     1      26.977  47.344  49.176  1.00  0.00    -0.264 OA
BRANCH   8  11
HETATM   11  N   UNL     1      26.420  45.350  51.059  1.00  0.00    -0.165 NA
HETATM   12  C   UNL     1      26.854  45.447  52.276  1.00  0.00     0.157 A 
HETATM   13  C   UNL     1      27.795  44.542  52.924  1.00  0.00     0.027 A 
HETATM   14  C   UNL     1      26.504  46.508  53.327  1.00  0.00     0.277 A 
HETATM   15  C   UNL     1      28.432  43.414  52.452  1.00  0.00     0.016 A 
HETATM   16  C   UNL     1      27.980  45.023  54.221  1.00  0.00     0.048 A 
HETATM   17  C   UNL     1      29.287  42.755  53.339  1.00  0.00     0.001 A 
HETATM   18  C   UNL     1      29.479  43.236  54.652  1.00  0.00     0.002 A 
HETATM   19  C   UNL     1      28.820  44.385  55.107  1.00  0.00     0.030 A 
HETATM   20  N   UNL     1      27.225  46.170  54.451  1.00  0.00    -0.321 N 
HETATM   21  H   UNL     1      27.193  46.696  55.311  1.00  0.00     0.169 HD
HETATM   22  O   UNL     1      25.739  47.432  53.147  1.00  0.00    -0.266 OA
ENDBRANCH   8  11
ENDBRANCH   1   7
BRANCH   5  23
HETATM   23  C   UNL     1      21.524  49.863  48.984  1.00  0.00     0.007 C 
HETATM   24  C   UNL     1      21.161  50.498  47.610  1.00  0.00     0.020 C 
HETATM   25  C   UNL     1      19.692  50.956  47.582  1.00  0.00    -0.013 C 
HETATM   26  C   UNL     1      19.466  52.000  48.687  1.00  0.00     0.009 C 
HETATM   27  C   UNL     1      18.778  49.746  47.829  1.00  0.00     0.009 C 
HETATM   28  C   UNL     1      19.785  51.386  50.059  1.00  0.00    -0.013 C 
HETATM   29  C   UNL     1      21.254  50.930  50.083  1.00  0.00     0.020 C 
HETATM   30  C   UNL     1      18.873  50.171  50.298  1.00  0.00     0.009 C 
HETATM   31  C   UNL     1      19.094  49.123  49.197  1.00  0.00    -0.013 C 
HETATM   32  C   UNL     1      20.562  48.665  49.220  1.00  0.00     0.020 C 
ENDBRANCH   5  23
TORSDOF 3
ENDMDL
MODEL 2
REMARK VINA RESULT:     -10.6      0.375      1.451
REMARK  3 active torsions:
REMARK  status: ('A' for Active; 'I' for Inactive)
REMARK    1  A    between atoms: N_7  and  N_8 
REMARK       I    between atoms: N_8  and  C_9 
REMARK    2  A    between atoms: C_9  and  C_10 
REMARK    3  A    between atoms: C_14  and  C_15 
ROOT
HETATM    1  C   UNL     1      25.001  47.958  49.496  1.00  0.00     0.121 A 
HETATM    2  N   UNL     1      25.293  49.235  49.103  1.00  0.00    -0.272 N 
HETATM    3  H   UNL     1      26.218  49.630  48.961  1.00  0.00     0.189 HD
HETATM    4  N   UNL     1      24.214  50.007  48.895  1.00  0.00    -0.178 NA
HETATM    5  C   UNL     1      23.175  49.204  49.161  1.00  0.00     0.066 A 
HETATM    6  C   UNL     1      23.623  47.911  49.543  1.00  0.00     0.066 A 
ENDROOT
BRANCH   1   7
HETATM    7  C   UNL     1      26.038  46.989  49.758  1.00  0.00     0.289 C 
HETATM    8  N   UNL     1      25.697  46.038  50.704  1.00  0.00    -0.241 N 
HETATM    9  H   UNL     1      24.781  46.070  51.151  1.00  0.00     0.192 HD
HETATM   10  O   UNL     1      27.119  47.034  49.174  1.00  0.00    -0.264 OA
BRANCH   8  11
HETATM   11  N   UNL     1      26.564  45.041  51.058  1.00  0.00    -0.165 NA
HETATM   12  C   UNL     1      27.066  45.123  52.249  1.00  0.00     0.157 A 
HETATM   13  C   UNL     1      28.003  44.182  52.850  1.00  0.00     0.027 A 
HETATM   14  C   UNL     1      26.817  46.200  53.312  1.00  0.00     0.277 A 
HETATM   15  C   UNL     1      28.568  43.028  52.351  1.00  0.00     0.016 A 
HETATM   16  C   UNL     1      28.277  44.658  54.133  1.00  0.00     0.048 A 
HETATM   17  C   UNL     1      29.442  42.337  53.194  1.00  0.00     0.001 A 
HETATM   18  C   UNL     1      29.724  42.813  54.492  1.00  0.00     0.002 A 
HETATM   19  C   UNL     1      29.137  43.989  54.976  1.00  0.00     0.030 A 
HETATM   20  N   UNL     1      27.582  45.836  54.397  1.00  0.00    -0.321 N 
HETATM   21  H   UNL     1      27.619  46.365  55.255  1.00  0.00     0.169 HD
HETATM   22  O   UNL     1      26.081  47.154  53.169  1.00  0.00    -0.266 OA
ENDBRANCH   8  11
ENDBRANCH   1   7
BRANCH   5  23
HETATM   23  C   UNL     1      21.740  49.681  49.042  1.00  0.00     0.007 C 
HETATM   24  C   UNL     1      20.708  48.536  49.254  1.00  0.00     0.020 C 
HETATM   25  C   UNL     1      19.266  49.058  49.128  1.00  0.00    -0.013 C 
HETATM   26  C   UNL     1      19.064  49.656  47.727  1.00  0.00     0.009 C 
HETATM   27  C   UNL     1      19.027  50.147  50.185  1.00  0.00     0.009 C 
HETATM   28  C   UNL     1      20.050  50.813  47.505  1.00  0.00    -0.013 C 
HETATM   29  C   UNL     1      21.490  50.286  47.631  1.00  0.00     0.020 C 
HETATM   30  C   UNL     1      19.811  51.896  48.570  1.00  0.00     0.009 C 
HETATM   31  C   UNL     1      20.011  51.306  49.974  1.00  0.00    -0.013 C 
HETATM   32  C   UNL     1      21.451  50.780  50.102  1.00  0.00     0.020 C 
ENDBRANCH   5  23
TORSDOF 3
ENDMDL
MODEL 3
REMARK VINA RESULT:      -9.9      1.869      2.491
REMARK  3 active torsions:
REMARK  status: ('A' for Active; 'I' for Inactive)
REMARK    1  A    between atoms: N_7  and  N_8 
REMARK       I    between atoms: N_8  and  C_9 
REMARK    2  A    between atoms: C_9  and  C_10 
REMARK    3  A    between atoms: C_14  and  C_15 
ROOT
HETATM    1  C   UNL     1      23.504  47.777  49.557  1.00  0.00     0.121 A 
HETATM    2  N   UNL     1      22.635  46.888  48.987  1.00  0.00    -0.272 N 
HETATM    3  H   UNL     1      22.813  45.908  48.788  1.00  0.00     0.189 HD
HETATM    4  N   UNL     1      21.437  47.411  48.679  1.00  0.00    -0.178 NA
HETATM    5  C   UNL     1      21.524  48.691  49.063  1.00  0.00     0.066 A 
HETATM    6  C   UNL     1      22.804  48.965  49.617  1.00  0.00     0.066 A 
ENDROOT
BRANCH   1   7
HETATM    7  C   UNL     1      24.835  47.387  49.957  1.00  0.00     0.289 C 
HETATM    8  N   UNL     1      24.881  46.226  50.710  1.00  0.00    -0.241 N 
HETATM    9  H   UNL     1      24.018  45.734  50.939  1.00  0.00     0.192 HD
HETATM   10  O   UNL     1      25.820  48.050  49.639  1.00  0.00    -0.264 OA
BRANCH   8  11
HETATM   11  N   UNL     1      26.067  45.713  51.158  1.00  0.00    -0.165 NA
HETATM   12  C   UNL     1      26.090  44.433  51.360  1.00  0.00     0.157 A 
HETATM   13  C   UNL     1      27.233  43.660  51.829  1.00  0.00     0.027 A 
HETATM   14  C   UNL     1      24.953  43.421  51.166  1.00  0.00     0.277 A 
HETATM   15  C   UNL     1      28.513  44.053  52.159  1.00  0.00     0.016 A 
HETATM   16  C   UNL     1      26.811  42.332  51.904  1.00  0.00     0.048 A 
HETATM   17  C   UNL     1      29.392  43.051  52.580  1.00  0.00     0.001 A 
HETATM   18  C   UNL     1      28.972  41.706  52.658  1.00  0.00     0.002 A 
HETATM   19  C   UNL     1      27.665  41.333  52.318  1.00  0.00     0.030 A 
HETATM   20  N   UNL     1      25.481  42.198  51.516  1.00  0.00    -0.321 N 
HETATM   21  H   UNL     1      24.956  41.337  51.488  1.00  0.00     0.169 HD
HETATM   22  O   UNL     1      23.839  43.701  50.777  1.00  0.00    -0.266 OA
ENDBRANCH   8  11
ENDBRANCH   1   7
BRANCH   5  23
HETATM   23  C   UNL     1      20.368  49.659  48.902  1.00  0.00     0.007 C 
HETATM   24  C   UNL     1      20.839  51.132  48.722  1.00  0.00     0.020 C 
HETATM   25  C   UNL     1      19.639  52.082  48.559  1.00  0.00    -0.013 C 
HETATM   26  C   UNL     1      18.749  51.993  49.809  1.00  0.00     0.009 C 
HETATM   27  C   UNL     1      18.826  51.665  47.325  1.00  0.00     0.009 C 
HETATM   28  C   UNL     1      18.242  50.553  49.989  1.00  0.00    -0.013 C 
HETATM   29  C   UNL     1      19.445  49.608  50.152  1.00  0.00     0.020 C 
HETATM   30  C   UNL     1      17.436  50.139  48.748  1.00  0.00     0.009 C 
HETATM   31  C   UNL     1      18.319  50.225  47.493  1.00  0.00    -0.013 C 
HETATM   32  C   UNL     1      19.521  49.279  47.654  1.00  0.00     0.020 C 
ENDBRANCH   5  23
TORSDOF 3
ENDMDL
MODEL 4
REMARK VINA RESULT:      -9.6      1.530      2.306
REMARK  3 active torsions:
REMARK  status: ('A' for Active; 'I' for Inactive)
REMARK    1  A    between atoms: N_7  and  N_8 
REMARK       I    between atoms: N_8  and  C_9 
REMARK    2  A    between atoms: C_9  and  C_10 
REMARK    3  A    between atoms: C_14  and  C_15 
ROOT
HETATM    1  C   UNL     1      23.939  46.415  49.438  1.00  0.00     0.121 A 
HETATM    2  N   UNL     1      23.124  45.688  48.616  1.00  0.00    -0.272 N 
HETATM    3  H   UNL     1      23.269  44.730  48.310  1.00  0.00     0.189 HD
HETATM    4  N   UNL     1      22.032  46.349  48.199  1.00  0.00    -0.178 NA
HETATM    5  C   UNL     1      22.136  47.556  48.770  1.00  0.00     0.066 A 
HETATM    6  C   UNL     1      23.318  47.642  49.553  1.00  0.00     0.066 A 
ENDROOT
BRANCH   1   7
HETATM    7  C   UNL     1      25.154  45.861  49.985  1.00  0.00     0.289 C 
HETATM    8  N   UNL     1      25.040  45.437  51.298  1.00  0.00    -0.241 N 
HETATM    9  H   UNL     1      24.153  45.539  51.790  1.00  0.00     0.192 HD
HETATM   10  O   UNL     1      26.182  45.786  49.316  1.00  0.00    -0.264 OA
BRANCH   8  11
HETATM   11  N   UNL     1      26.097  44.875  51.961  1.00  0.00    -0.165 NA
HETATM   12  C   UNL     1      26.582  45.567  52.943  1.00  0.00     0.157 A 
HETATM   13  C   UNL     1      27.698  45.177  53.796  1.00  0.00     0.027 A 
HETATM   14  C   UNL     1      26.125  46.939  53.455  1.00  0.00     0.277 A 
HETATM   15  C   UNL     1      28.484  44.045  53.791  1.00  0.00     0.016 A 
HETATM   16  C   UNL     1      27.879  46.213  54.712  1.00  0.00     0.048 A 
HETATM   17  C   UNL     1      29.489  43.970  54.759  1.00  0.00     0.001 A 
HETATM   18  C   UNL     1      29.678  45.014  55.689  1.00  0.00     0.002 A 
HETATM   19  C   UNL     1      28.866  46.155  55.672  1.00  0.00     0.030 A 
HETATM   20  N   UNL     1      26.959  47.238  54.509  1.00  0.00    -0.321 N 
HETATM   21  H   UNL     1      26.893  48.090  55.046  1.00  0.00     0.169 HD
HETATM   22  O   UNL     1      25.207  47.580  52.987  1.00  0.00    -0.266 OA
ENDBRANCH   8  11
ENDBRANCH   1   7
BRANCH   5  23
HETATM   23  C   UNL     1      21.090  48.636  48.565  1.00  0.00     0.007 C 
HETATM   24  C   UNL     1      20.067  48.709  49.736  1.00  0.00     0.020 C 
HETATM   25  C   UNL     1      19.025  49.815  49.494  1.00  0.00    -0.013 C 
HETATM   26  C   UNL     1      18.268  49.520  48.189  1.00  0.00     0.009 C 
HETATM   27  C   UNL     1      19.742  51.169  49.371  1.00  0.00     0.009 C 
HETATM   28  C   UNL     1      19.253  49.477  47.010  1.00  0.00    -0.013 C 
HETATM   29  C   UNL     1      20.292  48.369  47.257  1.00  0.00     0.020 C 
HETATM   30  C   UNL     1      19.971  50.831  46.898  1.00  0.00     0.009 C 
HETATM   31  C   UNL     1      20.732  51.133  48.198  1.00  0.00    -0.013 C 
HETATM   32  C   UNL     1      21.772  50.027  48.445  1.00  0.00     0.020 C 
ENDBRANCH   5  23
TORSDOF 3
ENDMDL
MODEL 5
REMARK VINA RESULT:      -9.4      2.285      9.756
REMARK  3 active torsions:
REMARK  status: ('A' for Active; 'I' for Inactive)
REMARK    1  A    between atoms: N_7  and  N_8 
REMARK       I    between atoms: N_8  and  C_9 
REMARK    2  A    between atoms: C_9  and  C_10 
REMARK    3  A    between atoms: C_14  and  C_15 
ROOT
HETATM    1  C   UNL     1      24.283  44.468  49.682  1.00  0.00     0.121 A 
HETATM    2  N   UNL     1      25.300  44.120  48.837  1.00  0.00    -0.272 N 
HETATM    3  H   UNL     1      25.296  44.187  47.823  1.00  0.00     0.189 HD
HETATM    4  N   UNL     1      26.394  43.647  49.457  1.00  0.00    -0.178 NA
HETATM    5  C   UNL     1      26.082  43.689  50.758  1.00  0.00     0.066 A 
HETATM    6  C   UNL     1      24.767  44.194  50.945  1.00  0.00     0.066 A 
ENDROOT
BRANCH   1   7
HETATM    7  C   UNL     1      23.035  44.999  49.190  1.00  0.00     0.289 C 
HETATM    8  N   UNL     1      23.008  46.379  49.092  1.00  0.00    -0.241 N 
HETATM    9  H   UNL     1      23.825  46.925  49.365  1.00  0.00     0.192 HD
HETATM   10  O   UNL     1      22.098  44.262  48.892  1.00  0.00    -0.264 OA
BRANCH   8  11
HETATM   11  N   UNL     1      21.903  47.040  48.630  1.00  0.00    -0.165 NA
HETATM   12  C   UNL     1      21.893  48.323  48.811  1.00  0.00     0.157 A 
HETATM   13  C   UNL     1      20.834  49.238  48.404  1.00  0.00     0.027 A 
HETATM   14  C   UNL     1      22.961  49.195  49.484  1.00  0.00     0.277 A 
HETATM   15  C   UNL     1      19.639  49.003  47.757  1.00  0.00     0.016 A 
HETATM   16  C   UNL     1      21.237  50.514  48.798  1.00  0.00     0.048 A 
HETATM   17  C   UNL     1      18.830  50.114  47.503  1.00  0.00     0.001 A 
HETATM   18  C   UNL     1      19.232  51.408  47.899  1.00  0.00     0.002 A 
HETATM   19  C   UNL     1      20.450  51.619  48.556  1.00  0.00     0.030 A 
HETATM   20  N   UNL     1      22.479  50.483  49.428  1.00  0.00    -0.321 N 
HETATM   21  H   UNL     1      22.974  51.280  49.798  1.00  0.00     0.169 HD
HETATM   22  O   UNL     1      24.000  48.777  49.950  1.00  0.00    -0.266 OA
ENDBRANCH   8  11
ENDBRANCH   1   7
BRANCH   5  23
HETATM   23  C   UNL     1      27.056  43.243  51.833  1.00  0.00     0.007 C 
HETATM   24  C   UNL     1      28.457  43.902  51.683  1.00  0.00     0.020 C 
HETATM   25  C   UNL     1      29.415  43.428  52.790  1.00  0.00    -0.013 C 
HETATM   26  C   UNL     1      29.570  41.901  52.706  1.00  0.00     0.009 C 
HETATM   27  C   UNL     1      28.831  43.806  54.160  1.00  0.00     0.009 C 
HETATM   28  C   UNL     1      28.202  41.225  52.887  1.00  0.00    -0.013 C 
HETATM   29  C   UNL     1      27.249  41.701  51.778  1.00  0.00     0.020 C 
HETATM   30  C   UNL     1      27.620  41.613  54.257  1.00  0.00     0.009 C 
HETATM   31  C   UNL     1      27.461  43.138  54.348  1.00  0.00    -0.013 C 
HETATM   32  C   UNL     1      26.508  43.616  53.240  1.00  0.00     0.020 C 
ENDBRANCH   5  23
TORSDOF 3
ENDMDL
MODEL 6
REMARK VINA RESULT:      -9.1      7.005      9.149
REMARK  3 active torsions:
REMARK  status: ('A' for Active; 'I' for Inactive)
REMARK    1  A    between atoms: N_7  and  N_8 
REMARK       I    between atoms: N_8  and  C_9 
REMARK    2  A    between atoms: C_9  and  C_10 
REMARK    3  A    between atoms: C_14  and  C_15 
ROOT
HETATM    1  C   UNL     1      26.943  42.887  51.161  1.00  0.00     0.121 A 
HETATM    2  N   UNL     1      26.834  43.579  49.987  1.00  0.00    -0.272 N 
HETATM    3  H   UNL     1      26.740  44.585  49.882  1.00  0.00     0.189 HD
HETATM    4  N   UNL     1      26.861  42.806  48.888  1.00  0.00    -0.178 NA
HETATM    5  C   UNL     1      26.994  41.561  49.362  1.00  0.00     0.066 A 
HETATM    6  C   UNL     1      27.047  41.564  50.781  1.00  0.00     0.066 A 
ENDROOT
BRANCH   1   7
HETATM    7  C   UNL     1      26.938  43.557  52.439  1.00  0.00     0.289 C 
HETATM    8  N   UNL     1      28.171  44.058  52.819  1.00  0.00    -0.241 N 
HETATM    9  H   UNL     1      28.981  43.931  52.213  1.00  0.00     0.192 HD
HETATM   10  O   UNL     1      25.911  43.656  53.107  1.00  0.00    -0.264 OA
BRANCH   8  11
HETATM   11  N   UNL     1      28.335  44.732  53.998  1.00  0.00    -0.165 NA
HETATM   12  C   UNL     1      29.307  44.327  54.753  1.00  0.00     0.157 A 
HETATM   13  C   UNL     1      29.679  44.888  56.046  1.00  0.00     0.027 A 
HETATM   14  C   UNL     1      30.295  43.183  54.494  1.00  0.00     0.277 A 
HETATM   15  C   UNL     1      29.138  45.931  56.766  1.00  0.00     0.016 A 
HETATM   16  C   UNL     1      30.772  44.148  56.500  1.00  0.00     0.048 A 
HETATM   17  C   UNL     1      29.736  46.228  57.993  1.00  0.00     0.001 A 
HETATM   18  C   UNL     1      30.841  45.485  58.459  1.00  0.00     0.002 A 
HETATM   19  C   UNL     1      31.372  44.428  57.708  1.00  0.00     0.030 A 
HETATM   20  N   UNL     1      31.127  43.155  55.591  1.00  0.00    -0.321 N 
HETATM   21  H   UNL     1      31.884  42.496  55.699  1.00  0.00     0.169 HD
HETATM   22  O   UNL     1      30.296  42.481  53.504  1.00  0.00    -0.266 OA
ENDBRANCH   8  11
ENDBRANCH   1   7
BRANCH   5  23
HETATM   23  C   UNL     1      27.076  40.356  48.443  1.00  0.00     0.007 C 
HETATM   24  C   UNL     1      28.075  40.564  47.268  1.00  0.00     0.020 C 
HETATM   25  C   UNL     1      28.131  39.322  46.362  1.00  0.00    -0.013 C 
HETATM   26  C   UNL     1      26.732  39.053  45.784  1.00  0.00     0.009 C 
HETATM   27  C   UNL     1      28.581  38.109  47.190  1.00  0.00     0.009 C 
HETATM   28  C   UNL     1      25.733  38.810  46.925  1.00  0.00    -0.013 C 
HETATM   29  C   UNL     1      25.679  40.054  47.828  1.00  0.00     0.020 C 
HETATM   30  C   UNL     1      26.192  37.600  47.755  1.00  0.00     0.009 C 
HETATM   31  C   UNL     1      27.590  37.861  48.337  1.00  0.00    -0.013 C 
HETATM   32  C   UNL     1      27.538  39.105  49.241  1.00  0.00     0.020 C 
ENDBRANCH   5  23
TORSDOF 3
ENDMDL
MODEL 7
REMARK VINA RESULT:      -9.0      2.017      3.064
REMARK  3 active torsions:
REMARK  status: ('A' for Active; 'I' for Inactive)
REMARK    1  A    between atoms: N_7  and  N_8 
REMARK       I    between atoms: N_8  and  C_9 
REMARK    2  A    between atoms: C_9  and  C_10 
REMARK    3  A    between atoms: C_14  and  C_15 
ROOT
HETATM    1  C   UNL     1      23.138  47.873  49.237  1.00  0.00     0.121 A 
HETATM    2  N   UNL     1      22.805  46.773  48.496  1.00  0.00    -0.272 N 
HETATM    3  H   UNL     1      23.332  45.908  48.422  1.00  0.00     0.189 HD
HETATM    4  N   UNL     1      21.653  46.897  47.815  1.00  0.00    -0.178 NA
HETATM    5  C   UNL     1      21.215  48.124  48.124  1.00  0.00     0.066 A 
HETATM    6  C   UNL     1      22.116  48.772  49.010  1.00  0.00     0.066 A 
ENDROOT
BRANCH   1   7
HETATM    7  C   UNL     1      24.339  47.913  50.036  1.00  0.00     0.289 C 
HETATM    8  N   UNL     1      24.265  47.176  51.205  1.00  0.00    -0.241 N 
HETATM    9  H   UNL     1      23.409  46.672  51.436  1.00  0.00     0.192 HD
HETATM   10  O   UNL     1      25.324  48.556  49.680  1.00  0.00    -0.264 OA
BRANCH   8  11
HETATM   11  N   UNL     1      25.324  47.099  52.068  1.00  0.00    -0.165 NA
HETATM   12  C   UNL     1      25.629  45.911  52.486  1.00  0.00     0.157 A 
HETATM   13  C   UNL     1      26.713  45.577  53.401  1.00  0.00     0.027 A 
HETATM   14  C   UNL     1      24.951  44.579  52.138  1.00  0.00     0.277 A 
HETATM   15  C   UNL     1      27.645  46.378  54.026  1.00  0.00     0.016 A 
HETATM   16  C   UNL     1      26.675  44.193  53.574  1.00  0.00     0.048 A 
HETATM   17  C   UNL     1      28.571  45.740  54.855  1.00  0.00     0.001 A 
HETATM   18  C   UNL     1      28.538  44.340  55.035  1.00  0.00     0.002 A 
HETATM   19  C   UNL     1      27.580  43.549  54.390  1.00  0.00     0.030 A 
HETATM   20  N   UNL     1      25.646  43.616  52.835  1.00  0.00    -0.321 N 
HETATM   21  H   UNL     1      25.421  42.633  52.800  1.00  0.00     0.169 HD
HETATM   22  O   UNL     1      24.002  44.462  51.392  1.00  0.00    -0.266 OA
ENDBRANCH   8  11
ENDBRANCH   1   7
BRANCH   5  23
HETATM   23  C   UNL     1      19.918  48.679  47.566  1.00  0.00     0.007 C 
HETATM   24  C   UNL     1      18.730  48.544  48.562  1.00  0.00     0.020 C 
HETATM   25  C   UNL     1      17.435  49.119  47.962  1.00  0.00    -0.013 C 
HETATM   26  C   UNL     1      17.092  48.355  46.673  1.00  0.00     0.009 C 
HETATM   27  C   UNL     1      17.644  50.605  47.633  1.00  0.00     0.009 C 
HETATM   28  C   UNL     1      18.236  48.502  45.658  1.00  0.00    -0.013 C 
HETATM   29  C   UNL     1      19.528  47.926  46.262  1.00  0.00     0.020 C 
HETATM   30  C   UNL     1      18.445  49.991  45.339  1.00  0.00     0.009 C 
HETATM   31  C   UNL     1      18.790  50.762  46.623  1.00  0.00    -0.013 C 
HETATM   32  C   UNL     1      20.082  50.187  47.227  1.00  0.00     0.020 C 
ENDBRANCH   5  23
TORSDOF 3
ENDMDL
MODEL 8
REMARK VINA RESULT:      -8.9      3.490      4.363
REMARK  3 active torsions:
REMARK  status: ('A' for Active; 'I' for Inactive)
REMARK    1  A    between atoms: N_7  and  N_8 
REMARK       I    between atoms: N_8  and  C_9 
REMARK    2  A    between atoms: C_9  and  C_10 
REMARK    3  A    between atoms: C_14  and  C_15 
ROOT
HETATM    1  C   UNL     1      24.680  43.415  49.704  1.00  0.00     0.121 A 
HETATM    2  N   UNL     1      23.742  42.422  49.779  1.00  0.00    -0.272 N 
HETATM    3  H   UNL     1      23.852  41.516  50.223  1.00  0.00     0.189 HD
HETATM    4  N   UNL     1      22.573  42.725  49.191  1.00  0.00    -0.178 NA
HETATM    5  C   UNL     1      22.751  43.964  48.715  1.00  0.00     0.066 A 
HETATM    6  C   UNL     1      24.058  44.434  49.012  1.00  0.00     0.066 A 
ENDROOT
BRANCH   1   7
HETATM    7  C   UNL     1      25.992  43.264  50.287  1.00  0.00     0.289 C 
HETATM    8  N   UNL     1      25.982  43.067  51.656  1.00  0.00    -0.241 N 
HETATM    9  H   UNL     1      25.097  43.045  52.162  1.00  0.00     0.192 HD
HETATM   10  O   UNL     1      27.008  43.312  49.597  1.00  0.00    -0.264 OA
BRANCH   8  11
HETATM   11  N   UNL     1      27.142  42.893  52.360  1.00  0.00    -0.165 NA
HETATM   12  C   UNL     1      27.427  43.817  53.222  1.00  0.00     0.157 A 
HETATM   13  C   UNL     1      28.599  43.850  54.088  1.00  0.00     0.027 A 
HETATM   14  C   UNL     1      26.630  45.086  53.550  1.00  0.00     0.277 A 
HETATM   15  C   UNL     1      29.648  42.967  54.219  1.00  0.00     0.016 A 
HETATM   16  C   UNL     1      28.501  45.018  54.845  1.00  0.00     0.048 A 
HETATM   17  C   UNL     1      30.632  43.289  55.158  1.00  0.00     0.001 A 
HETATM   18  C   UNL     1      30.539  44.469  55.927  1.00  0.00     0.002 A 
HETATM   19  C   UNL     1      29.462  45.351  55.774  1.00  0.00     0.030 A 
HETATM   20  N   UNL     1      27.350  45.736  54.527  1.00  0.00    -0.321 N 
HETATM   21  H   UNL     1      27.065  46.610  54.941  1.00  0.00     0.169 HD
HETATM   22  O   UNL     1      25.582  45.399  53.024  1.00  0.00    -0.266 OA
ENDBRANCH   8  11
ENDBRANCH   1   7
BRANCH   5  23
HETATM   23  C   UNL     1      21.656  44.706  47.972  1.00  0.00     0.007 C 
HETATM   24  C   UNL     1      21.072  43.883  46.787  1.00  0.00     0.020 C 
HETATM   25  C   UNL     1      19.964  44.666  46.060  1.00  0.00    -0.013 C 
HETATM   26  C   UNL     1      20.547  45.979  45.515  1.00  0.00     0.009 C 
HETATM   27  C   UNL     1      18.834  44.983  47.052  1.00  0.00     0.009 C 
HETATM   28  C   UNL     1      21.099  46.827  46.672  1.00  0.00    -0.013 C 
HETATM   29  C   UNL     1      22.207  46.040  47.394  1.00  0.00     0.020 C 
HETATM   30  C   UNL     1      19.966  47.134  47.664  1.00  0.00     0.009 C 
HETATM   31  C   UNL     1      19.378  45.826  48.214  1.00  0.00    -0.013 C 
HETATM   32  C   UNL     1      20.484  45.039  48.938  1.00  0.00     0.020 C 
ENDBRANCH   5  23
TORSDOF 3
ENDMDL
MODEL 9
REMARK VINA RESULT:      -8.8      2.498      3.356
REMARK  3 active torsions:
REMARK  status: ('A' for Active; 'I' for Inactive)
REMARK    1  A    between atoms: N_7  and  N_8 
REMARK       I    between atoms: N_8  and  C_9 
REMARK    2  A    between atoms: C_9  and  C_10 
REMARK    3  A    between atoms: C_14  and  C_15 
ROOT
HETATM    1  C   UNL     1      24.153  44.257  48.742  1.00  0.00     0.121 A 
HETATM    2  N   UNL     1      23.863  44.105  47.414  1.00  0.00    -0.272 N 
HETATM    3  H   UNL     1      24.346  43.504  46.752  1.00  0.00     0.189 HD
HETATM    4  N   UNL     1      22.826  44.845  46.989  1.00  0.00    -0.178 NA
HETATM    5  C   UNL     1      22.420  45.505  48.081  1.00  0.00     0.066 A 
HETATM    6  C   UNL     1      23.225  45.168  49.202  1.00  0.00     0.066 A 
ENDROOT
BRANCH   1   7
HETATM    7  C   UNL     1      25.233  43.534  49.369  1.00  0.00     0.289 C 
HETATM    8  N   UNL     1      26.149  44.341  50.021  1.00  0.00    -0.241 N 
HETATM    9  H   UNL     1      26.027  45.354  50.020  1.00  0.00     0.192 HD
HETATM   10  O   UNL     1      25.302  42.309  49.312  1.00  0.00    -0.264 OA
BRANCH   8  11
HETATM   11  N   UNL     1      27.226  43.812  50.678  1.00  0.00    -0.165 NA
HETATM   12  C   UNL     1      27.425  44.249  51.881  1.00  0.00     0.157 A 
HETATM   13  C   UNL     1      28.498  43.834  52.777  1.00  0.00     0.027 A 
HETATM   14  C   UNL     1      26.609  45.288  52.662  1.00  0.00     0.277 A 
HETATM   15  C   UNL     1      29.520  42.925  52.600  1.00  0.00     0.016 A 
HETATM   16  C   UNL     1      28.331  44.555  53.959  1.00  0.00     0.048 A 
HETATM   17  C   UNL     1      30.400  42.748  53.671  1.00  0.00     0.001 A 
HETATM   18  C   UNL     1      30.237  43.475  54.869  1.00  0.00     0.002 A 
HETATM   19  C   UNL     1      29.191  44.393  55.024  1.00  0.00     0.030 A 
HETATM   20  N   UNL     1      27.228  45.402  53.887  1.00  0.00    -0.321 N 
HETATM   21  H   UNL     1      26.907  46.021  54.616  1.00  0.00     0.169 HD
HETATM   22  O   UNL     1      25.627  45.857  52.234  1.00  0.00    -0.266 OA
ENDBRANCH   8  11
ENDBRANCH   1   7
BRANCH   5  23
HETATM   23  C   UNL     1      21.245  46.465  48.050  1.00  0.00     0.007 C 
HETATM   24  C   UNL     1      19.985  45.894  48.762  1.00  0.00     0.020 C 
HETATM   25  C   UNL     1      18.817  46.896  48.712  1.00  0.00    -0.013 C 
HETATM   26  C   UNL     1      18.468  47.192  47.245  1.00  0.00     0.009 C 
HETATM   27  C   UNL     1      19.237  48.199  49.409  1.00  0.00     0.009 C 
HETATM   28  C   UNL     1      19.689  47.791  46.527  1.00  0.00    -0.013 C 
HETATM   29  C   UNL     1      20.852  46.786  46.580  1.00  0.00     0.020 C 
HETATM   30  C   UNL     1      20.108  49.090  47.234  1.00  0.00     0.009 C 
HETATM   31  C   UNL     1      20.459  48.801  48.701  1.00  0.00    -0.013 C 
HETATM   32  C   UNL     1      21.623  47.798  48.756  1.00  0.00     0.020 C 
ENDBRANCH   5  23
TORSDOF 3
ENDMDL
MODEL 10
REMARK VINA RESULT:      -8.7      3.222      4.228
REMARK  3 active torsions:
REMARK  status: ('A' for Active; 'I' for Inactive)
REMARK    1  A    between atoms: N_7  and  N_8 
REMARK       I    between atoms: N_8  and  C_9 
REMARK    2  A    between atoms: C_9  and  C_10 
REMARK    3  A    between atoms: C_14  and  C_15 
ROOT
HETATM    1  C   UNL     1      21.350  46.635  48.636  1.00  0.00     0.121 A 
HETATM    2  N   UNL     1      22.200  47.599  49.101  1.00  0.00    -0.272 N 
HETATM    3  H   UNL     1      23.173  47.475  49.365  1.00  0.00     0.189 HD
HETATM    4  N   UNL     1      21.647  48.820  49.199  1.00  0.00    -0.178 NA
HETATM    5  C   UNL     1      20.386  48.647  48.781  1.00  0.00     0.066 A 
HETATM    6  C   UNL     1      20.156  47.293  48.420  1.00  0.00     0.066 A 
ENDROOT
BRANCH   1   7
HETATM    7  C   UNL     1      21.777  45.268  48.461  1.00  0.00     0.289 C 
HETATM    8  N   UNL     1      23.151  45.099  48.471  1.00  0.00    -0.241 N 
HETATM    9  H   UNL     1      23.762  45.907  48.588  1.00  0.00     0.192 HD
HETATM   10  O   UNL     1      20.965  44.356  48.319  1.00  0.00    -0.264 OA
BRANCH   8  11
HETATM   11  N   UNL     1      23.719  43.863  48.331  1.00  0.00    -0.165 NA
HETATM   12  C   UNL     1      24.420  43.444  49.337  1.00  0.00     0.157 A 
HETATM   13  C   UNL     1      25.115  42.166  49.424  1.00  0.00     0.027 A 
HETATM   14  C   UNL     1      24.697  44.161  50.665  1.00  0.00     0.277 A 
HETATM   15  C   UNL     1      25.206  41.126  48.525  1.00  0.00     0.016 A 
HETATM   16  C   UNL     1      25.737  42.136  50.673  1.00  0.00     0.048 A 
HETATM   17  C   UNL     1      25.959  40.016  48.917  1.00  0.00     0.001 A 
HETATM   18  C   UNL     1      26.591  39.979  50.178  1.00  0.00     0.002 A 
HETATM   19  C   UNL     1      26.484  41.049  51.074  1.00  0.00     0.030 A 
HETATM   20  N   UNL     1      25.490  43.302  51.392  1.00  0.00    -0.321 N 
HETATM   21  H   UNL     1      25.833  43.511  52.318  1.00  0.00     0.169 HD
HETATM   22  O   UNL     1      24.274  45.260  50.957  1.00  0.00    -0.266 OA
ENDBRANCH   8  11
ENDBRANCH   1   7
BRANCH   5  23
HETATM   23  C   UNL     1      19.394  49.794  48.724  1.00  0.00     0.007 C 
HETATM   24  C   UNL     1      18.525  49.900  50.010  1.00  0.00     0.020 C 
HETATM   25  C   UNL     1      17.535  51.075  49.914  1.00  0.00    -0.013 C 
HETATM   26  C   UNL     1      16.611  50.861  48.704  1.00  0.00     0.009 C 
HETATM   27  C   UNL     1      18.317  52.384  49.732  1.00  0.00     0.009 C 
HETATM   28  C   UNL     1      17.444  50.787  47.416  1.00  0.00    -0.013 C 
HETATM   29  C   UNL     1      18.432  49.612  47.516  1.00  0.00     0.020 C 
HETATM   30  C   UNL     1      18.230  52.097  47.243  1.00  0.00     0.009 C 
HETATM   31  C   UNL     1      19.158  52.318  48.448  1.00  0.00    -0.013 C 
HETATM   32  C   UNL     1      20.146  51.143  48.549  1.00  0.00     0.020 C 
ENDBRANCH   5  23
TORSDOF 3
ENDMDL
