MODEL 1
REMARK VINA RESULT:      -8.7      0.000      0.000
REMARK  10 active torsions:
REMARK  status: ('A' for Active; 'I' for Inactive)
REMARK    1  A    between atoms: C_2  and  C_3 
REMARK    2  A    between atoms: C_3  and  C_4 
REMARK    3  A    between atoms: N_7  and  C_9 
REMARK    4  A    between atoms: C_9  and  C_10 
REMARK    5  A    between atoms: C_11  and  O_12 
REMARK    6  A    between atoms: C_13  and  O_14 
REMARK    7  A    between atoms: O_14  and  C_15 
REMARK    8  A    between atoms: N_25  and  C_26 
REMARK    9  A    between atoms: C_26  and  C_27 
REMARK   10  A    between atoms: C_27  and  C_28 
ROOT
HETATM    1  C   UNL     1      27.041  43.730  50.279  1.00  0.00     0.026 C 
HETATM    2  C   UNL     1      27.531  45.177  50.497  1.00  0.00     0.035 C 
HETATM    3  C   UNL     1      26.425  46.177  50.792  1.00  0.00     0.235 C 
HETATM    4  N   UNL     1      25.330  46.105  49.766  1.00  0.00    -0.067 N 
HETATM    5  H   UNL     1      25.681  46.569  48.910  1.00  0.00     0.280 HD
HETATM    6  C   UNL     1      24.859  44.736  49.374  1.00  0.00     0.235 C 
HETATM    7  C   UNL     1      26.017  43.777  49.133  1.00  0.00     0.035 C 
ENDROOT
BRANCH   1   8
HETATM    8  C   UNL     1      26.573  42.955  51.563  1.00  0.00     0.119 A 
HETATM    9  N   UNL     1      25.351  43.481  52.125  1.00  0.00    -0.324 N 
HETATM   10  C   UNL     1      25.525  43.950  53.411  1.00  0.00     0.326 A 
HETATM   11  H   UNL     1      24.418  43.154  51.898  1.00  0.00     0.165 HD
HETATM   12  O   UNL     1      24.591  44.385  54.057  1.00  0.00    -0.247 OA
HETATM   13  N   UNL     1      26.839  43.862  53.741  1.00  0.00    -0.268 N 
HETATM   14  C   UNL     1      27.538  43.257  52.728  1.00  0.00     0.256 A 
HETATM   15  O   UNL     1      28.739  43.029  52.711  1.00  0.00    -0.270 OA
BRANCH   8  16
HETATM   16  C   UNL     1      26.472  41.433  51.325  1.00  0.00     0.037 C 
HETATM   17  C   UNL     1      27.623  40.820  50.528  1.00  0.00     0.008 C 
ENDBRANCH   8  16
BRANCH  13  18
HETATM   18  C   UNL     1      27.494  44.351  54.948  1.00  0.00     0.142 C 
BRANCH  18  19
HETATM   19  C   UNL     1      28.819  45.091  54.758  1.00  0.00     0.068 C 
BRANCH  19  20
HETATM   20  C   UNL     1      29.827  44.673  55.785  1.00  0.00     0.010 A 
HETATM   21  S   UNL     1      30.975  43.443  55.431  1.00  0.00    -0.085 SA
HETATM   22  C   UNL     1      31.625  43.616  57.005  1.00  0.00     0.166 A 
HETATM   23  N   UNL     1      31.047  44.515  57.769  1.00  0.00    -0.258 NA
HETATM   24  C   UNL     1      30.019  45.134  57.077  1.00  0.00     0.044 A 
HETATM   25  C   UNL     1      29.246  46.198  57.775  1.00  0.00     0.071 C 
ENDBRANCH  19  20
ENDBRANCH  18  19
ENDBRANCH  13  18
ENDBRANCH   1   8
BRANCH   4  26
HETATM   26  C   UNL     1      24.146  46.964  50.178  1.00  0.00     0.276 C 
BRANCH  26  27
HETATM   27  C   UNL     1      23.909  48.158  49.302  1.00  0.00     0.004 A 
HETATM   28  C   UNL     1      22.611  48.576  49.004  1.00  0.00     0.107 A 
HETATM   29  C   UNL     1      22.380  49.769  48.320  1.00  0.00     0.102 A 
HETATM   30  C   UNL     1      23.445  50.519  47.836  1.00  0.00     0.039 A 
HETATM   31  C   UNL     1      24.750  50.094  48.089  1.00  0.00     0.003 A 
HETATM   32  C   UNL     1      24.982  48.932  48.832  1.00  0.00     0.012 A 
BRANCH  28  33
HETATM   33  O   UNL     1      21.554  47.787  49.383  1.00  0.00    -0.357 OA
HETATM   34  H   UNL     1      20.760  48.242  49.021  1.00  0.00     0.218 HD
ENDBRANCH  28  33
BRANCH  29  35
HETATM   35  O   UNL     1      21.093  50.182  48.110  1.00  0.00    -0.349 OA
BRANCH  35  36
HETATM   36  C   UNL     1      20.734  51.221  49.038  1.00  0.00     0.171 C 
HETATM   37  C   UNL     1      19.549  51.999  48.504  1.00  0.00     0.034 C 
ENDBRANCH  35  36
ENDBRANCH  29  35
ENDBRANCH  26  27
ENDBRANCH   4  26
TORSDOF 10
ENDMDL
MODEL 2
REMARK VINA RESULT:      -8.3     12.556     15.545
REMARK  10 active torsions:
REMARK  status: ('A' for Active; 'I' for Inactive)
REMARK    1  A    between atoms: C_2  and  C_3 
REMARK    2  A    between atoms: C_3  and  C_4 
REMARK    3  A    between atoms: N_7  and  C_9 
REMARK    4  A    between atoms: C_9  and  C_10 
REMARK    5  A    between atoms: C_11  and  O_12 
REMARK    6  A    between atoms: C_13  and  O_14 
REMARK    7  A    between atoms: O_14  and  C_15 
REMARK    8  A    between atoms: N_25  and  C_26 
REMARK    9  A    between atoms: C_26  and  C_27 
REMARK   10  A    between atoms: C_27  and  C_28 
ROOT
HETATM    1  C   UNL     1      30.344  50.545  38.391  1.00  0.00     0.026 C 
HETATM    2  C   UNL     1      30.664  49.085  38.777  1.00  0.00     0.035 C 
HETATM    3  C   UNL     1      31.344  48.927  40.127  1.00  0.00     0.235 C 
HETATM    4  N   UNL     1      32.551  49.813  40.242  1.00  0.00    -0.067 N 
HETATM    5  H   UNL     1      33.305  49.380  39.680  1.00  0.00     0.280 HD
HETATM    6  C   UNL     1      32.398  51.230  39.772  1.00  0.00     0.235 C 
HETATM    7  C   UNL     1      31.674  51.316  38.435  1.00  0.00     0.035 C 
ENDROOT
BRANCH   1   8
HETATM    8  C   UNL     1      29.153  51.221  39.162  1.00  0.00     0.119 A 
HETATM    9  N   UNL     1      29.130  50.890  40.567  1.00  0.00    -0.324 N 
HETATM   10  C   UNL     1      27.975  50.227  40.929  1.00  0.00     0.326 A 
HETATM   11  H   UNL     1      29.575  51.430  41.300  1.00  0.00     0.165 HD
HETATM   12  O   UNL     1      27.762  49.912  42.085  1.00  0.00    -0.247 OA
HETATM   13  N   UNL     1      27.229  49.996  39.819  1.00  0.00    -0.268 N 
HETATM   14  C   UNL     1      27.822  50.573  38.725  1.00  0.00     0.256 A 
HETATM   15  O   UNL     1      27.406  50.547  37.576  1.00  0.00    -0.270 OA
BRANCH   8  16
HETATM   16  C   UNL     1      29.107  52.749  38.943  1.00  0.00     0.037 C 
HETATM   17  C   UNL     1      29.388  53.594  40.185  1.00  0.00     0.008 C 
ENDBRANCH   8  16
BRANCH  13  18
HETATM   18  C   UNL     1      25.996  49.225  39.712  1.00  0.00     0.142 C 
BRANCH  18  19
HETATM   19  C   UNL     1      26.077  47.744  40.086  1.00  0.00     0.068 C 
BRANCH  19  20
HETATM   20  C   UNL     1      27.148  47.044  39.306  1.00  0.00     0.010 A 
HETATM   21  S   UNL     1      28.491  46.335  40.111  1.00  0.00    -0.085 SA
HETATM   22  C   UNL     1      29.114  45.834  38.599  1.00  0.00     0.166 A 
HETATM   23  N   UNL     1      28.399  46.160  37.546  1.00  0.00    -0.258 NA
HETATM   24  C   UNL     1      27.263  46.847  37.940  1.00  0.00     0.044 A 
HETATM   25  C   UNL     1      26.314  47.294  36.885  1.00  0.00     0.071 C 
ENDBRANCH  19  20
ENDBRANCH  18  19
ENDBRANCH  13  18
ENDBRANCH   1   8
BRANCH   4  26
HETATM   26  C   UNL     1      33.104  49.793  41.658  1.00  0.00     0.276 C 
BRANCH  26  27
HETATM   27  C   UNL     1      34.421  50.491  41.821  1.00  0.00     0.004 A 
HETATM   28  C   UNL     1      34.578  51.503  42.770  1.00  0.00     0.107 A 
HETATM   29  C   UNL     1      35.833  52.050  43.035  1.00  0.00     0.102 A 
HETATM   30  C   UNL     1      36.940  51.664  42.288  1.00  0.00     0.039 A 
HETATM   31  C   UNL     1      36.793  50.683  41.307  1.00  0.00     0.003 A 
HETATM   32  C   UNL     1      35.547  50.086  41.086  1.00  0.00     0.012 A 
BRANCH  28  33
HETATM   33  O   UNL     1      33.473  51.968  43.436  1.00  0.00    -0.357 OA
HETATM   34  H   UNL     1      33.822  52.644  44.059  1.00  0.00     0.218 HD
ENDBRANCH  28  33
BRANCH  29  35
HETATM   35  O   UNL     1      35.959  52.989  44.021  1.00  0.00    -0.349 OA
BRANCH  35  36
HETATM   36  C   UNL     1      37.178  52.790  44.759  1.00  0.00     0.171 C 
HETATM   37  C   UNL     1      37.828  54.128  45.046  1.00  0.00     0.034 C 
ENDBRANCH  35  36
ENDBRANCH  29  35
ENDBRANCH  26  27
ENDBRANCH   4  26
TORSDOF 10
ENDMDL
MODEL 3
REMARK VINA RESULT:      -8.3     12.376     16.054
REMARK  10 active torsions:
REMARK  status: ('A' for Active; 'I' for Inactive)
REMARK    1  A    between atoms: C_2  and  C_3 
REMARK    2  A    between atoms: C_3  and  C_4 
REMARK    3  A    between atoms: N_7  and  C_9 
REMARK    4  A    between atoms: C_9  and  C_10 
REMARK    5  A    between atoms: C_11  and  O_12 
REMARK    6  A    between atoms: C_13  and  O_14 
REMARK    7  A    between atoms: O_14  and  C_15 
REMARK    8  A    between atoms: N_25  and  C_26 
REMARK    9  A    between atoms: C_26  and  C_27 
REMARK   10  A    between atoms: C_27  and  C_28 
ROOT
HETATM    1  C   UNL     1      32.618  50.592  41.810  1.00  0.00     0.026 C 
HETATM    2  C   UNL     1      33.205  51.245  43.078  1.00  0.00     0.035 C 
HETATM    3  C   UNL     1      34.673  51.625  42.968  1.00  0.00     0.235 C 
HETATM    4  N   UNL     1      35.507  50.468  42.497  1.00  0.00    -0.067 N 
HETATM    5  H   UNL     1      35.613  49.820  43.298  1.00  0.00     0.280 HD
HETATM    6  C   UNL     1      34.970  49.670  41.345  1.00  0.00     0.235 C 
HETATM    7  C   UNL     1      33.487  49.360  41.503  1.00  0.00     0.035 C 
ENDROOT
BRANCH   1   8
HETATM    8  C   UNL     1      32.362  51.550  40.590  1.00  0.00     0.119 A 
HETATM    9  N   UNL     1      32.043  52.900  40.991  1.00  0.00    -0.324 N 
HETATM   10  C   UNL     1      30.788  53.288  40.570  1.00  0.00     0.326 A 
HETATM   11  H   UNL     1      32.718  53.647  41.108  1.00  0.00     0.165 HD
HETATM   12  O   UNL     1      30.371  54.412  40.777  1.00  0.00    -0.247 OA
HETATM   13  N   UNL     1      30.175  52.235  39.973  1.00  0.00    -0.268 N 
HETATM   14  C   UNL     1      31.033  51.168  39.905  1.00  0.00     0.256 A 
HETATM   15  O   UNL     1      30.789  50.069  39.427  1.00  0.00    -0.270 OA
BRANCH   8  16
HETATM   16  C   UNL     1      33.523  51.525  39.572  1.00  0.00     0.037 C 
HETATM   17  C   UNL     1      34.321  52.823  39.461  1.00  0.00     0.008 C 
ENDBRANCH   8  16
BRANCH  13  18
HETATM   18  C   UNL     1      28.802  52.153  39.488  1.00  0.00     0.142 C 
BRANCH  18  19
HETATM   19  C   UNL     1      27.741  51.716  40.499  1.00  0.00     0.068 C 
BRANCH  19  20
HETATM   20  C   UNL     1      27.357  50.281  40.297  1.00  0.00     0.010 A 
HETATM   21  S   UNL     1      26.207  49.847  39.096  1.00  0.00    -0.085 SA
HETATM   22  C   UNL     1      26.378  48.205  39.546  1.00  0.00     0.166 A 
HETATM   23  N   UNL     1      27.222  47.963  40.523  1.00  0.00    -0.258 NA
HETATM   24  C   UNL     1      27.797  49.145  40.957  1.00  0.00     0.044 A 
HETATM   25  C   UNL     1      28.795  49.077  42.058  1.00  0.00     0.071 C 
ENDBRANCH  19  20
ENDBRANCH  18  19
ENDBRANCH  13  18
ENDBRANCH   1   8
BRANCH   4  26
HETATM   26  C   UNL     1      36.930  50.910  42.203  1.00  0.00     0.276 C 
BRANCH  26  27
HETATM   27  C   UNL     1      37.322  52.210  42.840  1.00  0.00     0.004 A 
HETATM   28  C   UNL     1      37.845  52.241  44.133  1.00  0.00     0.107 A 
HETATM   29  C   UNL     1      38.353  53.422  44.675  1.00  0.00     0.102 A 
HETATM   30  C   UNL     1      38.259  54.615  43.970  1.00  0.00     0.039 A 
HETATM   31  C   UNL     1      37.700  54.611  42.691  1.00  0.00     0.003 A 
HETATM   32  C   UNL     1      37.251  53.415  42.121  1.00  0.00     0.012 A 
BRANCH  28  33
HETATM   33  O   UNL     1      37.844  51.089  44.880  1.00  0.00    -0.357 OA
HETATM   34  H   UNL     1      38.380  51.306  45.675  1.00  0.00     0.218 HD
ENDBRANCH  28  33
BRANCH  29  35
HETATM   35  O   UNL     1      38.923  53.396  45.918  1.00  0.00    -0.349 OA
BRANCH  35  36
HETATM   36  C   UNL     1      38.221  54.273  46.817  1.00  0.00     0.171 C 
HETATM   37  C   UNL     1      38.531  53.894  48.251  1.00  0.00     0.034 C 
ENDBRANCH  35  36
ENDBRANCH  29  35
ENDBRANCH  26  27
ENDBRANCH   4  26
TORSDOF 10
ENDMDL
MODEL 4
REMARK VINA RESULT:      -8.2     12.371     14.889
REMARK  10 active torsions:
REMARK  status: ('A' for Active; 'I' for Inactive)
REMARK    1  A    between atoms: C_2  and  C_3 
REMARK    2  A    between atoms: C_3  and  C_4 
REMARK    3  A    between atoms: N_7  and  C_9 
REMARK    4  A    between atoms: C_9  and  C_10 
REMARK    5  A    between atoms: C_11  and  O_12 
REMARK    6  A    between atoms: C_13  and  O_14 
REMARK    7  A    between atoms: O_14  and  C_15 
REMARK    8  A    between atoms: N_25  and  C_26 
REMARK    9  A    between atoms: C_26  and  C_27 
REMARK   10  A    between atoms: C_27  and  C_28 
ROOT
HETATM    1  C   UNL     1      32.352  49.193  42.415  1.00  0.00     0.026 C 
HETATM    2  C   UNL     1      32.846  48.055  41.497  1.00  0.00     0.035 C 
HETATM    3  C   UNL     1      31.941  47.768  40.310  1.00  0.00     0.235 C 
HETATM    4  N   UNL     1      30.517  47.561  40.741  1.00  0.00    -0.067 N 
HETATM    5  H   UNL     1      30.459  46.617  41.164  1.00  0.00     0.280 HD
HETATM    6  C   UNL     1      29.963  48.534  41.739  1.00  0.00     0.235 C 
HETATM    7  C   UNL     1      30.937  48.806  42.878  1.00  0.00     0.035 C 
ENDROOT
BRANCH   1   8
HETATM    8  C   UNL     1      32.494  50.652  41.850  1.00  0.00     0.119 A 
HETATM    9  N   UNL     1      32.118  50.758  40.460  1.00  0.00    -0.324 N 
HETATM   10  C   UNL     1      33.166  51.175  39.665  1.00  0.00     0.326 A 
HETATM   11  H   UNL     1      31.191  50.992  40.124  1.00  0.00     0.165 HD
HETATM   12  O   UNL     1      33.019  51.365  38.473  1.00  0.00    -0.247 OA
HETATM   13  N   UNL     1      34.287  51.275  40.424  1.00  0.00    -0.268 N 
HETATM   14  C   UNL     1      33.989  51.018  41.738  1.00  0.00     0.256 A 
HETATM   15  O   UNL     1      34.774  51.025  42.675  1.00  0.00    -0.270 OA
BRANCH   8  16
HETATM   16  C   UNL     1      31.746  51.691  42.715  1.00  0.00     0.037 C 
HETATM   17  C   UNL     1      32.256  51.833  44.148  1.00  0.00     0.008 C 
ENDBRANCH   8  16
BRANCH  13  18
HETATM   18  C   UNL     1      35.646  51.564  39.983  1.00  0.00     0.142 C 
BRANCH  18  19
HETATM   19  C   UNL     1      35.898  52.956  39.402  1.00  0.00     0.068 C 
BRANCH  19  20
HETATM   20  C   UNL     1      36.598  53.839  40.391  1.00  0.00     0.010 A 
HETATM   21  S   UNL     1      37.463  53.156  41.710  1.00  0.00    -0.085 SA
HETATM   22  C   UNL     1      37.871  54.731  42.239  1.00  0.00     0.166 A 
HETATM   23  N   UNL     1      37.407  55.720  41.509  1.00  0.00    -0.258 NA
HETATM   24  C   UNL     1      36.682  55.220  40.440  1.00  0.00     0.044 A 
HETATM   25  C   UNL     1      36.081  56.191  39.486  1.00  0.00     0.071 C 
ENDBRANCH  19  20
ENDBRANCH  18  19
ENDBRANCH  13  18
ENDBRANCH   1   8
BRANCH   4  26
HETATM   26  C   UNL     1      29.595  47.471  39.536  1.00  0.00     0.276 C 
BRANCH  26  27
HETATM   27  C   UNL     1      28.742  48.684  39.313  1.00  0.00     0.004 A 
HETATM   28  C   UNL     1      29.243  49.789  38.624  1.00  0.00     0.107 A 
HETATM   29  C   UNL     1      28.414  50.856  38.279  1.00  0.00     0.102 A 
HETATM   30  C   UNL     1      27.090  50.882  38.701  1.00  0.00     0.039 A 
HETATM   31  C   UNL     1      26.584  49.804  39.428  1.00  0.00     0.003 A 
HETATM   32  C   UNL     1      27.397  48.703  39.717  1.00  0.00     0.012 A 
BRANCH  28  33
HETATM   33  O   UNL     1      30.575  49.822  38.297  1.00  0.00    -0.357 OA
HETATM   34  H   UNL     1      30.960  49.031  38.736  1.00  0.00     0.218 HD
ENDBRANCH  28  33
BRANCH  29  35
HETATM   35  O   UNL     1      28.924  51.888  37.541  1.00  0.00    -0.349 OA
BRANCH  35  36
HETATM   36  C   UNL     1      28.719  53.144  38.213  1.00  0.00     0.171 C 
HETATM   37  C   UNL     1      29.557  53.192  39.475  1.00  0.00     0.034 C 
ENDBRANCH  35  36
ENDBRANCH  29  35
ENDBRANCH  26  27
ENDBRANCH   4  26
TORSDOF 10
ENDMDL
MODEL 5
REMARK VINA RESULT:      -8.2     12.484     13.909
REMARK  10 active torsions:
REMARK  status: ('A' for Active; 'I' for Inactive)
REMARK    1  A    between atoms: C_2  and  C_3 
REMARK    2  A    between atoms: C_3  and  C_4 
REMARK    3  A    between atoms: N_7  and  C_9 
REMARK    4  A    between atoms: C_9  and  C_10 
REMARK    5  A    between atoms: C_11  and  O_12 
REMARK    6  A    between atoms: C_13  and  O_14 
REMARK    7  A    between atoms: O_14  and  C_15 
REMARK    8  A    between atoms: N_25  and  C_26 
REMARK    9  A    between atoms: C_26  and  C_27 
REMARK   10  A    between atoms: C_27  and  C_28 
ROOT
HETATM    1  C   UNL     1      29.280  52.164  40.136  1.00  0.00     0.026 C 
HETATM    2  C   UNL     1      28.352  51.528  41.193  1.00  0.00     0.035 C 
HETATM    3  C   UNL     1      27.596  50.301  40.708  1.00  0.00     0.235 C 
HETATM    4  N   UNL     1      26.873  50.574  39.420  1.00  0.00    -0.067 N 
HETATM    5  H   UNL     1      26.039  51.143  39.651  1.00  0.00     0.280 HD
HETATM    6  C   UNL     1      27.636  51.309  38.358  1.00  0.00     0.235 C 
HETATM    7  C   UNL     1      28.401  52.500  38.920  1.00  0.00     0.035 C 
ENDROOT
BRANCH   1   8
HETATM    8  C   UNL     1      30.601  51.378  39.809  1.00  0.00     0.119 A 
HETATM    9  N   UNL     1      30.542  49.988  40.198  1.00  0.00    -0.324 N 
HETATM   10  C   UNL     1      31.497  49.667  41.140  1.00  0.00     0.326 A 
HETATM   11  H   UNL     1      30.244  49.228  39.597  1.00  0.00     0.165 HD
HETATM   12  O   UNL     1      31.625  48.529  41.548  1.00  0.00    -0.247 OA
HETATM   13  N   UNL     1      32.163  50.794  41.499  1.00  0.00    -0.268 N 
HETATM   14  C   UNL     1      31.731  51.856  40.746  1.00  0.00     0.256 A 
HETATM   15  O   UNL     1      32.127  53.009  40.823  1.00  0.00    -0.270 OA
BRANCH   8  16
HETATM   16  C   UNL     1      31.023  51.531  38.332  1.00  0.00     0.037 C 
HETATM   17  C   UNL     1      32.456  51.105  38.015  1.00  0.00     0.008 C 
ENDBRANCH   8  16
BRANCH  13  18
HETATM   18  C   UNL     1      33.167  50.948  42.545  1.00  0.00     0.142 C 
BRANCH  18  19
HETATM   19  C   UNL     1      34.594  50.523  42.194  1.00  0.00     0.068 C 
BRANCH  19  20
HETATM   20  C   UNL     1      35.518  51.703  42.157  1.00  0.00     0.010 A 
HETATM   21  S   UNL     1      36.228  52.302  43.604  1.00  0.00    -0.085 SA
HETATM   22  C   UNL     1      37.025  53.512  42.695  1.00  0.00     0.166 A 
HETATM   23  N   UNL     1      36.797  53.503  41.401  1.00  0.00    -0.258 NA
HETATM   24  C   UNL     1      35.940  52.464  41.079  1.00  0.00     0.044 A 
HETATM   25  C   UNL     1      35.568  52.280  39.650  1.00  0.00     0.071 C 
ENDBRANCH  19  20
ENDBRANCH  18  19
ENDBRANCH  13  18
ENDBRANCH   1   8
BRANCH   4  26
HETATM   26  C   UNL     1      26.287  49.295  38.847  1.00  0.00     0.276 C 
BRANCH  26  27
HETATM   27  C   UNL     1      24.859  49.040  39.228  1.00  0.00     0.004 A 
HETATM   28  C   UNL     1      23.831  49.823  38.702  1.00  0.00     0.107 A 
HETATM   29  C   UNL     1      22.493  49.499  38.928  1.00  0.00     0.102 A 
HETATM   30  C   UNL     1      22.159  48.441  39.764  1.00  0.00     0.039 A 
HETATM   31  C   UNL     1      23.175  47.672  40.333  1.00  0.00     0.003 A 
HETATM   32  C   UNL     1      24.515  47.956  40.053  1.00  0.00     0.012 A 
BRANCH  28  33
HETATM   33  O   UNL     1      24.152  50.934  37.963  1.00  0.00    -0.357 OA
HETATM   34  H   UNL     1      24.471  50.579  37.103  1.00  0.00     0.218 HD
ENDBRANCH  28  33
BRANCH  29  35
HETATM   35  O   UNL     1      21.514  50.249  38.336  1.00  0.00    -0.349 OA
BRANCH  35  36
HETATM   36  C   UNL     1      20.479  50.570  39.282  1.00  0.00     0.171 C 
HETATM   37  C   UNL     1      20.958  51.663  40.215  1.00  0.00     0.034 C 
ENDBRANCH  35  36
ENDBRANCH  29  35
ENDBRANCH  26  27
ENDBRANCH   4  26
TORSDOF 10
ENDMDL
MODEL 6
REMARK VINA RESULT:      -8.2      3.593      8.849
REMARK  10 active torsions:
REMARK  status: ('A' for Active; 'I' for Inactive)
REMARK    1  A    between atoms: C_2  and  C_3 
REMARK    2  A    between atoms: C_3  and  C_4 
REMARK    3  A    between atoms: N_7  and  C_9 
REMARK    4  A    between atoms: C_9  and  C_10 
REMARK    5  A    between atoms: C_11  and  O_12 
REMARK    6  A    between atoms: C_13  and  O_14 
REMARK    7  A    between atoms: O_14  and  C_15 
REMARK    8  A    between atoms: N_25  and  C_26 
REMARK    9  A    between atoms: C_26  and  C_27 
REMARK   10  A    between atoms: C_27  and  C_28 
ROOT
HETATM    1  C   UNL     1      27.917  44.093  52.780  1.00  0.00     0.026 C 
HETATM    2  C   UNL     1      28.126  43.910  51.262  1.00  0.00     0.035 C 
HETATM    3  C   UNL     1      27.445  42.683  50.677  1.00  0.00     0.235 C 
HETATM    4  N   UNL     1      27.796  41.441  51.444  1.00  0.00    -0.067 N 
HETATM    5  H   UNL     1      28.762  41.177  51.176  1.00  0.00     0.280 HD
HETATM    6  C   UNL     1      27.756  41.534  52.941  1.00  0.00     0.235 C 
HETATM    7  C   UNL     1      28.420  42.805  53.455  1.00  0.00     0.035 C 
ENDROOT
BRANCH   1   8
HETATM    8  C   UNL     1      26.489  44.570  53.231  1.00  0.00     0.119 A 
HETATM    9  N   UNL     1      25.421  43.851  52.578  1.00  0.00    -0.324 N 
HETATM   10  C   UNL     1      24.616  44.680  51.825  1.00  0.00     0.326 A 
HETATM   11  H   UNL     1      24.976  43.015  52.939  1.00  0.00     0.165 HD
HETATM   12  O   UNL     1      23.637  44.253  51.242  1.00  0.00    -0.247 OA
HETATM   13  N   UNL     1      25.129  45.936  51.847  1.00  0.00    -0.268 N 
HETATM   14  C   UNL     1      26.219  45.985  52.677  1.00  0.00     0.256 A 
HETATM   15  O   UNL     1      26.908  46.966  52.914  1.00  0.00    -0.270 OA
BRANCH   8  16
HETATM   16  C   UNL     1      26.323  44.550  54.767  1.00  0.00     0.037 C 
HETATM   17  C   UNL     1      25.418  43.445  55.310  1.00  0.00     0.008 C 
ENDBRANCH   8  16
BRANCH  13  18
HETATM   18  C   UNL     1      24.677  47.103  51.098  1.00  0.00     0.142 C 
BRANCH  18  19
HETATM   19  C   UNL     1      25.508  47.500  49.877  1.00  0.00     0.068 C 
BRANCH  19  20
HETATM   20  C   UNL     1      24.813  48.551  49.065  1.00  0.00     0.010 A 
HETATM   21  S   UNL     1      23.108  48.500  48.850  1.00  0.00    -0.085 SA
HETATM   22  C   UNL     1      23.201  49.919  47.898  1.00  0.00     0.166 A 
HETATM   23  N   UNL     1      24.403  50.419  47.728  1.00  0.00    -0.258 NA
HETATM   24  C   UNL     1      25.336  49.648  48.401  1.00  0.00     0.044 A 
HETATM   25  C   UNL     1      26.764  50.062  48.338  1.00  0.00     0.071 C 
ENDBRANCH  19  20
ENDBRANCH  18  19
ENDBRANCH  13  18
ENDBRANCH   1   8
BRANCH   4  26
HETATM   26  C   UNL     1      26.961  40.261  50.975  1.00  0.00     0.276 C 
BRANCH  26  27
HETATM   27  C   UNL     1      27.607  39.425  49.911  1.00  0.00     0.004 A 
HETATM   28  C   UNL     1      26.988  39.246  48.672  1.00  0.00     0.107 A 
HETATM   29  C   UNL     1      27.647  38.600  47.627  1.00  0.00     0.102 A 
HETATM   30  C   UNL     1      28.901  38.036  47.828  1.00  0.00     0.039 A 
HETATM   31  C   UNL     1      29.517  38.170  49.073  1.00  0.00     0.003 A 
HETATM   32  C   UNL     1      28.884  38.875  50.102  1.00  0.00     0.012 A 
BRANCH  28  33
HETATM   33  O   UNL     1      25.706  39.704  48.497  1.00  0.00    -0.357 OA
HETATM   34  H   UNL     1      25.442  39.373  47.609  1.00  0.00     0.218 HD
ENDBRANCH  28  33
BRANCH  29  35
HETATM   35  O   UNL     1      27.035  38.507  46.407  1.00  0.00    -0.349 OA
BRANCH  35  36
HETATM   36  C   UNL     1      27.866  39.073  45.378  1.00  0.00     0.171 C 
HETATM   37  C   UNL     1      27.846  40.585  45.474  1.00  0.00     0.034 C 
ENDBRANCH  35  36
ENDBRANCH  29  35
ENDBRANCH  26  27
ENDBRANCH   4  26
TORSDOF 10
ENDMDL
MODEL 7
REMARK VINA RESULT:      -8.2      6.366     11.633
REMARK  10 active torsions:
REMARK  status: ('A' for Active; 'I' for Inactive)
REMARK    1  A    between atoms: C_2  and  C_3 
REMARK    2  A    between atoms: C_3  and  C_4 
REMARK    3  A    between atoms: N_7  and  C_9 
REMARK    4  A    between atoms: C_9  and  C_10 
REMARK    5  A    between atoms: C_11  and  O_12 
REMARK    6  A    between atoms: C_13  and  O_14 
REMARK    7  A    between atoms: O_14  and  C_15 
REMARK    8  A    between atoms: N_25  and  C_26 
REMARK    9  A    between atoms: C_26  and  C_27 
REMARK   10  A    between atoms: C_27  and  C_28 
ROOT
HETATM    1  C   UNL     1      17.398  51.486  47.735  1.00  0.00     0.026 C 
HETATM    2  C   UNL     1      18.213  52.381  48.693  1.00  0.00     0.035 C 
HETATM    3  C   UNL     1      17.436  52.878  49.901  1.00  0.00     0.235 C 
HETATM    4  N   UNL     1      16.143  53.524  49.496  1.00  0.00    -0.067 N 
HETATM    5  H   UNL     1      16.373  54.459  49.113  1.00  0.00     0.280 HD
HETATM    6  C   UNL     1      15.321  52.808  48.466  1.00  0.00     0.235 C 
HETATM    7  C   UNL     1      16.168  52.303  47.305  1.00  0.00     0.035 C 
ENDROOT
BRANCH   1   8
HETATM    8  C   UNL     1      17.091  50.030  48.238  1.00  0.00     0.119 A 
HETATM    9  N   UNL     1      17.505  49.806  49.604  1.00  0.00    -0.324 N 
HETATM   10  C   UNL     1      18.457  48.812  49.705  1.00  0.00     0.326 A 
HETATM   11  H   UNL     1      16.918  49.937  50.419  1.00  0.00     0.165 HD
HETATM   12  O   UNL     1      18.887  48.456  50.786  1.00  0.00    -0.247 OA
HETATM   13  N   UNL     1      18.798  48.394  48.459  1.00  0.00    -0.268 N 
HETATM   14  C   UNL     1      18.023  49.029  47.523  1.00  0.00     0.256 A 
HETATM   15  O   UNL     1      18.080  48.879  46.311  1.00  0.00    -0.270 OA
BRANCH   8  16
HETATM   16  C   UNL     1      15.613  49.637  48.028  1.00  0.00     0.037 C 
HETATM   17  C   UNL     1      15.386  48.258  47.410  1.00  0.00     0.008 C 
ENDBRANCH   8  16
BRANCH  13  18
HETATM   18  C   UNL     1      19.844  47.451  48.085  1.00  0.00     0.142 C 
BRANCH  18  19
HETATM   19  C   UNL     1      21.081  48.033  47.400  1.00  0.00     0.068 C 
BRANCH  19  20
HETATM   20  C   UNL     1      22.220  48.174  48.364  1.00  0.00     0.010 A 
HETATM   21  S   UNL     1      23.154  46.804  48.818  1.00  0.00    -0.085 SA
HETATM   22  C   UNL     1      24.104  47.805  49.829  1.00  0.00     0.166 A 
HETATM   23  N   UNL     1      23.772  49.076  49.855  1.00  0.00    -0.258 NA
HETATM   24  C   UNL     1      22.698  49.302  49.011  1.00  0.00     0.044 A 
HETATM   25  C   UNL     1      22.179  50.692  48.894  1.00  0.00     0.071 C 
ENDBRANCH  19  20
ENDBRANCH  18  19
ENDBRANCH  13  18
ENDBRANCH   1   8
BRANCH   4  26
HETATM   26  C   UNL     1      15.290  53.838  50.714  1.00  0.00     0.276 C 
BRANCH  26  27
HETATM   27  C   UNL     1      15.155  55.300  51.020  1.00  0.00     0.004 A 
HETATM   28  C   UNL     1      15.146  55.754  52.340  1.00  0.00     0.107 A 
HETATM   29  C   UNL     1      15.175  57.118  52.631  1.00  0.00     0.102 A 
HETATM   30  C   UNL     1      15.117  58.056  51.607  1.00  0.00     0.039 A 
HETATM   31  C   UNL     1      15.084  57.620  50.282  1.00  0.00     0.003 A 
HETATM   32  C   UNL     1      15.122  56.252  49.988  1.00  0.00     0.012 A 
BRANCH  28  33
HETATM   33  O   UNL     1      15.093  54.836  53.359  1.00  0.00    -0.357 OA
HETATM   34  H   UNL     1      14.987  53.968  52.908  1.00  0.00     0.218 HD
ENDBRANCH  28  33
BRANCH  29  35
HETATM   35  O   UNL     1      15.238  57.522  53.936  1.00  0.00    -0.349 OA
BRANCH  35  36
HETATM   36  C   UNL     1      15.227  58.957  54.024  1.00  0.00     0.171 C 
HETATM   37  C   UNL     1      15.751  59.392  55.378  1.00  0.00     0.034 C 
ENDBRANCH  35  36
ENDBRANCH  29  35
ENDBRANCH  26  27
ENDBRANCH   4  26
TORSDOF 10
ENDMDL
MODEL 8
REMARK VINA RESULT:      -8.1     11.346     14.030
REMARK  10 active torsions:
REMARK  status: ('A' for Active; 'I' for Inactive)
REMARK    1  A    between atoms: C_2  and  C_3 
REMARK    2  A    between atoms: C_3  and  C_4 
REMARK    3  A    between atoms: N_7  and  C_9 
REMARK    4  A    between atoms: C_9  and  C_10 
REMARK    5  A    between atoms: C_11  and  O_12 
REMARK    6  A    between atoms: C_13  and  O_14 
REMARK    7  A    between atoms: O_14  and  C_15 
REMARK    8  A    between atoms: N_25  and  C_26 
REMARK    9  A    between atoms: C_26  and  C_27 
REMARK   10  A    between atoms: C_27  and  C_28 
ROOT
HETATM    1  C   UNL     1      29.526  52.388  40.238  1.00  0.00     0.026 C 
HETATM    2  C   UNL     1      28.561  51.929  41.351  1.00  0.00     0.035 C 
HETATM    3  C   UNL     1      27.703  50.729  40.985  1.00  0.00     0.235 C 
HETATM    4  N   UNL     1      26.992  50.939  39.679  1.00  0.00    -0.067 N 
HETATM    5  H   UNL     1      26.208  51.593  39.858  1.00  0.00     0.280 HD
HETATM    6  C   UNL     1      27.800  51.509  38.551  1.00  0.00     0.235 C 
HETATM    7  C   UNL     1      28.665  52.680  38.998  1.00  0.00     0.035 C 
ENDROOT
BRANCH   1   8
HETATM    8  C   UNL     1      30.776  51.470  39.982  1.00  0.00     0.119 A 
HETATM    9  N   UNL     1      30.625  50.144  40.533  1.00  0.00    -0.324 N 
HETATM   10  C   UNL     1      31.580  49.863  41.488  1.00  0.00     0.326 A 
HETATM   11  H   UNL     1      30.255  49.344  40.032  1.00  0.00     0.165 HD
HETATM   12  O   UNL     1      31.635  48.773  42.027  1.00  0.00    -0.247 OA
HETATM   13  N   UNL     1      32.337  50.970  41.699  1.00  0.00    -0.268 N 
HETATM   14  C   UNL     1      31.963  51.966  40.834  1.00  0.00     0.256 A 
HETATM   15  O   UNL     1      32.446  53.087  40.766  1.00  0.00    -0.270 OA
BRANCH   8  16
HETATM   16  C   UNL     1      31.167  51.417  38.489  1.00  0.00     0.037 C 
HETATM   17  C   UNL     1      32.640  51.120  38.211  1.00  0.00     0.008 C 
ENDBRANCH   8  16
BRANCH  13  18
HETATM   18  C   UNL     1      33.378  51.167  42.700  1.00  0.00     0.142 C 
BRANCH  18  19
HETATM   19  C   UNL     1      34.787  50.702  42.327  1.00  0.00     0.068 C 
BRANCH  19  20
HETATM   20  C   UNL     1      35.661  51.862  41.958  1.00  0.00     0.010 A 
HETATM   21  S   UNL     1      35.915  52.273  40.308  1.00  0.00    -0.085 SA
HETATM   22  C   UNL     1      36.926  53.562  40.799  1.00  0.00     0.166 A 
HETATM   23  N   UNL     1      37.089  53.703  42.095  1.00  0.00    -0.258 NA
HETATM   24  C   UNL     1      36.361  52.738  42.771  1.00  0.00     0.044 A 
HETATM   25  C   UNL     1      36.407  52.739  44.258  1.00  0.00     0.071 C 
ENDBRANCH  19  20
ENDBRANCH  18  19
ENDBRANCH  13  18
ENDBRANCH   1   8
BRANCH   4  26
HETATM   26  C   UNL     1      26.298  49.664  39.229  1.00  0.00     0.276 C 
BRANCH  26  27
HETATM   27  C   UNL     1      27.035  48.403  39.565  1.00  0.00     0.004 A 
HETATM   28  C   UNL     1      26.542  47.525  40.532  1.00  0.00     0.107 A 
HETATM   29  C   UNL     1      27.136  46.281  40.743  1.00  0.00     0.102 A 
HETATM   30  C   UNL     1      28.292  45.930  40.058  1.00  0.00     0.039 A 
HETATM   31  C   UNL     1      28.824  46.812  39.117  1.00  0.00     0.003 A 
HETATM   32  C   UNL     1      28.191  48.032  38.857  1.00  0.00     0.012 A 
BRANCH  28  33
HETATM   33  O   UNL     1      25.465  47.909  41.291  1.00  0.00    -0.357 OA
HETATM   34  H   UNL     1      25.007  48.590  40.749  1.00  0.00     0.218 HD
ENDBRANCH  28  33
BRANCH  29  35
HETATM   35  O   UNL     1      26.580  45.420  41.649  1.00  0.00    -0.349 OA
BRANCH  35  36
HETATM   36  C   UNL     1      26.913  44.058  41.326  1.00  0.00     0.171 C 
HETATM   37  C   UNL     1      26.634  43.165  42.517  1.00  0.00     0.034 C 
ENDBRANCH  35  36
ENDBRANCH  29  35
ENDBRANCH  26  27
ENDBRANCH   4  26
TORSDOF 10
ENDMDL
MODEL 9
REMARK VINA RESULT:      -8.1      6.373     12.707
REMARK  10 active torsions:
REMARK  status: ('A' for Active; 'I' for Inactive)
REMARK    1  A    between atoms: C_2  and  C_3 
REMARK    2  A    between atoms: C_3  and  C_4 
REMARK    3  A    between atoms: N_7  and  C_9 
REMARK    4  A    between atoms: C_9  and  C_10 
REMARK    5  A    between atoms: C_11  and  O_12 
REMARK    6  A    between atoms: C_13  and  O_14 
REMARK    7  A    between atoms: O_14  and  C_15 
REMARK    8  A    between atoms: N_25  and  C_26 
REMARK    9  A    between atoms: C_26  and  C_27 
REMARK   10  A    between atoms: C_27  and  C_28 
ROOT
HETATM    1  C   UNL     1      19.502  51.183  48.129  1.00  0.00     0.026 C 
HETATM    2  C   UNL     1      19.906  50.197  47.012  1.00  0.00     0.035 C 
HETATM    3  C   UNL     1      20.662  48.972  47.500  1.00  0.00     0.235 C 
HETATM    4  N   UNL     1      21.833  49.354  48.359  1.00  0.00    -0.067 N 
HETATM    5  H   UNL     1      22.575  49.706  47.728  1.00  0.00     0.280 HD
HETATM    6  C   UNL     1      21.593  50.407  49.401  1.00  0.00     0.235 C 
HETATM    7  C   UNL     1      20.797  51.584  48.855  1.00  0.00     0.035 C 
ENDROOT
BRANCH   1   8
HETATM    8  C   UNL     1      18.324  50.727  49.065  1.00  0.00     0.119 A 
HETATM    9  N   UNL     1      17.400  49.830  48.412  1.00  0.00    -0.324 N 
HETATM   10  C   UNL     1      16.123  50.349  48.348  1.00  0.00     0.326 A 
HETATM   11  H   UNL     1      17.463  48.818  48.427  1.00  0.00     0.165 HD
HETATM   12  O   UNL     1      15.204  49.710  47.874  1.00  0.00    -0.247 OA
HETATM   13  N   UNL     1      16.133  51.613  48.843  1.00  0.00    -0.268 N 
HETATM   14  C   UNL     1      17.380  51.920  49.323  1.00  0.00     0.256 A 
HETATM   15  O   UNL     1      17.722  52.978  49.831  1.00  0.00    -0.270 OA
BRANCH   8  16
HETATM   16  C   UNL     1      18.831  50.140  50.400  1.00  0.00     0.037 C 
HETATM   17  C   UNL     1      18.586  48.643  50.588  1.00  0.00     0.008 C 
ENDBRANCH   8  16
BRANCH  13  18
HETATM   18  C   UNL     1      15.040  52.577  48.860  1.00  0.00     0.142 C 
BRANCH  18  19
HETATM   19  C   UNL     1      14.442  52.914  50.227  1.00  0.00     0.068 C 
BRANCH  19  20
HETATM   20  C   UNL     1      13.661  54.192  50.178  1.00  0.00     0.010 A 
HETATM   21  S   UNL     1      11.950  54.163  50.016  1.00  0.00    -0.085 SA
HETATM   22  C   UNL     1      11.932  55.873  50.043  1.00  0.00     0.166 A 
HETATM   23  N   UNL     1      13.103  56.458  50.158  1.00  0.00    -0.258 NA
HETATM   24  C   UNL     1      14.102  55.504  50.246  1.00  0.00     0.044 A 
HETATM   25  C   UNL     1      15.507  55.971  50.394  1.00  0.00     0.071 C 
ENDBRANCH  19  20
ENDBRANCH  18  19
ENDBRANCH  13  18
ENDBRANCH   1   8
BRANCH   4  26
HETATM   26  C   UNL     1      22.460  48.125  48.997  1.00  0.00     0.276 C 
BRANCH  26  27
HETATM   27  C   UNL     1      23.936  48.234  49.239  1.00  0.00     0.004 A 
HETATM   28  C   UNL     1      24.616  47.246  49.953  1.00  0.00     0.107 A 
HETATM   29  C   UNL     1      26.007  47.260  50.052  1.00  0.00     0.102 A 
HETATM   30  C   UNL     1      26.738  48.315  49.520  1.00  0.00     0.039 A 
HETATM   31  C   UNL     1      26.071  49.334  48.839  1.00  0.00     0.003 A 
HETATM   32  C   UNL     1      24.682  49.286  48.683  1.00  0.00     0.012 A 
BRANCH  28  33
HETATM   33  O   UNL     1      23.894  46.258  50.574  1.00  0.00    -0.357 OA
HETATM   34  H   UNL     1      24.354  45.423  50.333  1.00  0.00     0.218 HD
ENDBRANCH  28  33
BRANCH  29  35
HETATM   35  O   UNL     1      26.641  46.235  50.698  1.00  0.00    -0.349 OA
BRANCH  35  36
HETATM   36  C   UNL     1      27.095  45.245  49.758  1.00  0.00     0.171 C 
HETATM   37  C   UNL     1      26.916  43.860  50.346  1.00  0.00     0.034 C 
ENDBRANCH  35  36
ENDBRANCH  29  35
ENDBRANCH  26  27
ENDBRANCH   4  26
TORSDOF 10
ENDMDL
MODEL 10
REMARK VINA RESULT:      -8.1     12.879     16.304
REMARK  10 active torsions:
REMARK  status: ('A' for Active; 'I' for Inactive)
REMARK    1  A    between atoms: C_2  and  C_3 
REMARK    2  A    between atoms: C_3  and  C_4 
REMARK    3  A    between atoms: N_7  and  C_9 
REMARK    4  A    between atoms: C_9  and  C_10 
REMARK    5  A    between atoms: C_11  and  O_12 
REMARK    6  A    between atoms: C_13  and  O_14 
REMARK    7  A    between atoms: O_14  and  C_15 
REMARK    8  A    between atoms: N_25  and  C_26 
REMARK    9  A    between atoms: C_26  and  C_27 
REMARK   10  A    between atoms: C_27  and  C_28 
ROOT
HETATM    1  C   UNL     1      32.595  50.514  41.737  1.00  0.00     0.026 C 
HETATM    2  C   UNL     1      33.033  51.107  43.093  1.00  0.00     0.035 C 
HETATM    3  C   UNL     1      34.471  51.599  43.128  1.00  0.00     0.235 C 
HETATM    4  N   UNL     1      35.425  50.544  42.644  1.00  0.00    -0.067 N 
HETATM    5  H   UNL     1      35.522  49.846  43.403  1.00  0.00     0.280 HD
HETATM    6  C   UNL     1      35.040  49.803  41.398  1.00  0.00     0.235 C 
HETATM    7  C   UNL     1      33.578  49.376  41.413  1.00  0.00     0.035 C 
ENDROOT
BRANCH   1   8
HETATM    8  C   UNL     1      32.357  51.543  40.573  1.00  0.00     0.119 A 
HETATM    9  N   UNL     1      32.002  52.860  41.049  1.00  0.00    -0.324 N 
HETATM   10  C   UNL     1      30.753  53.253  40.615  1.00  0.00     0.326 A 
HETATM   11  H   UNL     1      32.660  53.609  41.233  1.00  0.00     0.165 HD
HETATM   12  O   UNL     1      30.309  54.354  40.880  1.00  0.00    -0.247 OA
HETATM   13  N   UNL     1      30.177  52.230  39.934  1.00  0.00    -0.268 N 
HETATM   14  C   UNL     1      31.057  51.184  39.825  1.00  0.00     0.256 A 
HETATM   15  O   UNL     1      30.847  50.114  39.272  1.00  0.00    -0.270 OA
BRANCH   8  16
HETATM   16  C   UNL     1      33.548  51.602  39.592  1.00  0.00     0.037 C 
HETATM   17  C   UNL     1      34.037  53.007  39.244  1.00  0.00     0.008 C 
ENDBRANCH   8  16
BRANCH  13  18
HETATM   18  C   UNL     1      28.821  52.157  39.403  1.00  0.00     0.142 C 
BRANCH  18  19
HETATM   19  C   UNL     1      27.723  51.731  40.379  1.00  0.00     0.068 C 
BRANCH  19  20
HETATM   20  C   UNL     1      27.373  50.284  40.205  1.00  0.00     0.010 A 
HETATM   21  S   UNL     1      26.246  49.797  39.003  1.00  0.00    -0.085 SA
HETATM   22  C   UNL     1      26.449  48.170  39.491  1.00  0.00     0.166 A 
HETATM   23  N   UNL     1      27.288  47.968  40.481  1.00  0.00    -0.258 NA
HETATM   24  C   UNL     1      27.831  49.173  40.895  1.00  0.00     0.044 A 
HETATM   25  C   UNL     1      28.819  49.151  42.007  1.00  0.00     0.071 C 
ENDBRANCH  19  20
ENDBRANCH  18  19
ENDBRANCH  13  18
ENDBRANCH   1   8
BRANCH   4  26
HETATM   26  C   UNL     1      36.828  51.110  42.498  1.00  0.00     0.276 C 
BRANCH  26  27
HETATM   27  C   UNL     1      37.055  51.896  41.242  1.00  0.00     0.004 A 
HETATM   28  C   UNL     1      37.104  53.290  41.273  1.00  0.00     0.107 A 
HETATM   29  C   UNL     1      37.466  54.022  40.141  1.00  0.00     0.102 A 
HETATM   30  C   UNL     1      37.691  53.378  38.931  1.00  0.00     0.039 A 
HETATM   31  C   UNL     1      37.605  51.986  38.871  1.00  0.00     0.003 A 
HETATM   32  C   UNL     1      37.308  51.248  40.022  1.00  0.00     0.012 A 
BRANCH  28  33
HETATM   33  O   UNL     1      36.778  53.942  42.435  1.00  0.00    -0.357 OA
HETATM   34  H   UNL     1      35.805  54.077  42.381  1.00  0.00     0.218 HD
ENDBRANCH  28  33
BRANCH  29  35
HETATM   35  O   UNL     1      37.572  55.382  40.231  1.00  0.00    -0.349 OA
BRANCH  35  36
HETATM   36  C   UNL     1      36.909  56.017  39.123  1.00  0.00     0.171 C 
HETATM   37  C   UNL     1      35.519  56.455  39.540  1.00  0.00     0.034 C 
ENDBRANCH  35  36
ENDBRANCH  29  35
ENDBRANCH  26  27
ENDBRANCH   4  26
TORSDOF 10
ENDMDL
