MODEL 1
REMARK VINA RESULT:      -8.9      0.000      0.000
REMARK  8 active torsions:
REMARK  status: ('A' for Active; 'I' for Inactive)
REMARK    1  A    between atoms: C_3  and  O_4 
REMARK    2  A    between atoms: C_11  and  C_12 
REMARK    3  A    between atoms: C_12  and  C_13 
REMARK    4  A    between atoms: C_13  and  S_14 
REMARK    5  A    between atoms: S_14  and  C_15 
REMARK    6  A    between atoms: N_16  and  C_17 
REMARK    7  A    between atoms: C_18  and  O_19 
REMARK    8  A    between atoms: C_25  and  N_26 
ROOT
HETATM    1  C   UNL     1      31.130  47.623  39.969  1.00  0.00     0.197 A 
HETATM    2  N   UNL     1      31.141  48.921  40.452  1.00  0.00    -0.259 N 
HETATM    3  C   UNL     1      32.258  48.950  41.300  1.00  0.00     0.211 A 
HETATM    4  N   UNL     1      32.840  47.764  41.279  1.00  0.00    -0.116 NA
HETATM    5  N   UNL     1      32.154  46.945  40.432  1.00  0.00    -0.121 NA
ENDROOT
BRANCH   1   6
HETATM    6  S   UNL     1      29.840  46.905  39.048  1.00  0.00    -0.082 SA
BRANCH   6   7
HETATM    7  C   UNL     1      28.584  46.789  40.355  1.00  0.00     0.166 C 
BRANCH   7   8
HETATM    8  C   UNL     1      27.206  46.466  39.811  1.00  0.00     0.169 C 
HETATM    9  O   UNL     1      26.747  45.327  39.738  1.00  0.00    -0.291 OA
BRANCH   8  10
HETATM   10  C   UNL     1      26.378  47.606  39.303  1.00  0.00     0.011 A 
HETATM   11  C   UNL     1      26.891  48.564  38.421  1.00  0.00     0.017 A 
HETATM   12  C   UNL     1      26.112  49.643  37.989  1.00  0.00     0.031 A 
HETATM   13  C   UNL     1      24.799  49.724  38.461  1.00  0.00     0.045 A 
HETATM   14  N   UNL     1      23.825  50.662  38.216  1.00  0.00    -0.336 N 
HETATM   15  C   UNL     1      24.242  48.780  39.320  1.00  0.00     0.002 A 
HETATM   16  C   UNL     1      22.674  50.344  38.879  1.00  0.00     0.147 A 
HETATM   17  H   UNL     1      23.931  51.477  37.630  1.00  0.00     0.168 HD
HETATM   18  C   UNL     1      22.887  49.173  39.580  1.00  0.00     0.001 A 
HETATM   19  C   UNL     1      21.920  48.438  40.436  1.00  0.00     0.054 C 
HETATM   20  C   UNL     1      25.046  47.700  39.743  1.00  0.00     0.029 A 
BRANCH  16  21
HETATM   21  O   UNL     1      21.621  51.141  38.755  1.00  0.00    -0.346 OA
HETATM   22  H   UNL     1      21.171  50.902  37.926  1.00  0.00     0.219 HD
ENDBRANCH  16  21
ENDBRANCH   8  10
ENDBRANCH   7   8
ENDBRANCH   6   7
ENDBRANCH   1   6
BRANCH   2  23
HETATM   23  C   UNL     1      30.236  49.968  40.130  1.00  0.00     0.077 A 
HETATM   24  C   UNL     1      30.322  50.658  38.911  1.00  0.00     0.095 A 
HETATM   25  C   UNL     1      29.365  51.640  38.628  1.00  0.00     0.039 A 
HETATM   26  C   UNL     1      28.349  51.935  39.543  1.00  0.00     0.003 A 
HETATM   27  C   UNL     1      28.281  51.261  40.757  1.00  0.00     0.002 A 
HETATM   28  C   UNL     1      29.224  50.279  41.056  1.00  0.00     0.033 A 
BRANCH  24  29
HETATM   29  O   UNL     1      31.398  50.391  38.110  1.00  0.00    -0.354 OA
HETATM   30  C   UNL     1      32.510  51.271  38.183  1.00  0.00     0.210 C 
ENDBRANCH  24  29
ENDBRANCH   2  23
BRANCH   3  31
HETATM   31  N   UNL     1      32.687  50.039  42.020  1.00  0.00    -0.251 NA
HETATM   32  C   UNL     1      34.137  50.260  42.108  1.00  0.00     0.098 C 
HETATM   33  C   UNL     1      34.409  51.679  42.609  1.00  0.00     0.015 C 
HETATM   34  C   UNL     1      33.714  51.939  43.943  1.00  0.00     0.002 C 
HETATM   35  C   UNL     1      32.226  51.618  43.847  1.00  0.00     0.015 C 
HETATM   36  C   UNL     1      31.999  50.205  43.314  1.00  0.00     0.098 C 
ENDBRANCH   3  31
TORSDOF 8
ENDMDL
MODEL 2
REMARK VINA RESULT:      -8.8     11.285     14.804
REMARK  8 active torsions:
REMARK  status: ('A' for Active; 'I' for Inactive)
REMARK    1  A    between atoms: C_3  and  O_4 
REMARK    2  A    between atoms: C_11  and  C_12 
REMARK    3  A    between atoms: C_12  and  C_13 
REMARK    4  A    between atoms: C_13  and  S_14 
REMARK    5  A    between atoms: S_14  and  C_15 
REMARK    6  A    between atoms: N_16  and  C_17 
REMARK    7  A    between atoms: C_18  and  O_19 
REMARK    8  A    between atoms: C_25  and  N_26 
ROOT
HETATM    1  C   UNL     1      23.153  47.671  49.266  1.00  0.00     0.197 A 
HETATM    2  N   UNL     1      21.909  48.028  48.775  1.00  0.00    -0.259 N 
HETATM    3  C   UNL     1      21.795  49.385  49.113  1.00  0.00     0.211 A 
HETATM    4  N   UNL     1      22.901  49.764  49.731  1.00  0.00    -0.116 NA
HETATM    5  N   UNL     1      23.756  48.705  49.805  1.00  0.00    -0.121 NA
ENDROOT
BRANCH   1   6
HETATM    6  S   UNL     1      23.766  46.046  49.360  1.00  0.00    -0.082 SA
BRANCH   6   7
HETATM    7  C   UNL     1      25.157  46.328  50.493  1.00  0.00     0.166 C 
BRANCH   7   8
HETATM    8  C   UNL     1      25.044  45.515  51.768  1.00  0.00     0.169 C 
HETATM    9  O   UNL     1      24.216  44.620  51.939  1.00  0.00    -0.291 OA
BRANCH   8  10
HETATM   10  C   UNL     1      25.977  45.851  52.890  1.00  0.00     0.011 A 
HETATM   11  C   UNL     1      25.896  47.063  53.587  1.00  0.00     0.017 A 
HETATM   12  C   UNL     1      26.802  47.375  54.607  1.00  0.00     0.031 A 
HETATM   13  C   UNL     1      27.784  46.429  54.913  1.00  0.00     0.045 A 
HETATM   14  N   UNL     1      28.794  46.468  55.844  1.00  0.00    -0.336 N 
HETATM   15  C   UNL     1      27.885  45.202  54.260  1.00  0.00     0.002 A 
HETATM   16  C   UNL     1      29.522  45.313  55.811  1.00  0.00     0.147 A 
HETATM   17  H   UNL     1      28.982  47.235  56.471  1.00  0.00     0.168 HD
HETATM   18  C   UNL     1      28.989  44.491  54.838  1.00  0.00     0.001 A 
HETATM   19  C   UNL     1      29.442  43.129  54.450  1.00  0.00     0.054 C 
HETATM   20  C   UNL     1      26.961  44.909  53.235  1.00  0.00     0.029 A 
BRANCH  16  21
HETATM   21  O   UNL     1      30.541  45.173  56.649  1.00  0.00    -0.346 OA
HETATM   22  H   UNL     1      30.706  46.042  57.055  1.00  0.00     0.219 HD
ENDBRANCH  16  21
ENDBRANCH   8  10
ENDBRANCH   7   8
ENDBRANCH   6   7
ENDBRANCH   1   6
BRANCH   2  23
HETATM   23  C   UNL     1      20.990  47.203  48.073  1.00  0.00     0.077 A 
HETATM   24  C   UNL     1      19.701  46.955  48.573  1.00  0.00     0.095 A 
HETATM   25  C   UNL     1      18.823  46.181  47.805  1.00  0.00     0.039 A 
HETATM   26  C   UNL     1      19.220  45.658  46.570  1.00  0.00     0.003 A 
HETATM   27  C   UNL     1      20.504  45.892  46.090  1.00  0.00     0.002 A 
HETATM   28  C   UNL     1      21.393  46.661  46.839  1.00  0.00     0.033 A 
BRANCH  24  29
HETATM   29  O   UNL     1      19.415  47.410  49.831  1.00  0.00    -0.354 OA
HETATM   30  C   UNL     1      18.233  48.178  50.002  1.00  0.00     0.210 C 
ENDBRANCH  24  29
ENDBRANCH   2  23
BRANCH   3  31
HETATM   31  N   UNL     1      20.719  50.192  48.831  1.00  0.00    -0.251 NA
HETATM   32  C   UNL     1      20.572  50.660  47.445  1.00  0.00     0.098 C 
HETATM   33  C   UNL     1      19.162  51.214  47.239  1.00  0.00     0.015 C 
HETATM   34  C   UNL     1      18.847  52.317  48.247  1.00  0.00     0.002 C 
HETATM   35  C   UNL     1      19.092  51.832  49.672  1.00  0.00     0.015 C 
HETATM   36  C   UNL     1      20.499  51.259  49.825  1.00  0.00     0.098 C 
ENDBRANCH   3  31
TORSDOF 8
ENDMDL
MODEL 3
REMARK VINA RESULT:      -8.7     10.781     14.354
REMARK  8 active torsions:
REMARK  status: ('A' for Active; 'I' for Inactive)
REMARK    1  A    between atoms: C_3  and  O_4 
REMARK    2  A    between atoms: C_11  and  C_12 
REMARK    3  A    between atoms: C_12  and  C_13 
REMARK    4  A    between atoms: C_13  and  S_14 
REMARK    5  A    between atoms: S_14  and  C_15 
REMARK    6  A    between atoms: N_16  and  C_17 
REMARK    7  A    between atoms: C_18  and  O_19 
REMARK    8  A    between atoms: C_25  and  N_26 
ROOT
HETATM    1  C   UNL     1      23.174  46.793  49.026  1.00  0.00     0.197 A 
HETATM    2  N   UNL     1      22.141  47.448  48.378  1.00  0.00    -0.259 N 
HETATM    3  C   UNL     1      21.663  46.495  47.466  1.00  0.00     0.211 A 
HETATM    4  N   UNL     1      22.363  45.383  47.607  1.00  0.00    -0.116 NA
HETATM    5  N   UNL     1      23.287  45.558  48.594  1.00  0.00    -0.121 NA
ENDROOT
BRANCH   1   6
HETATM    6  S   UNL     1      24.311  47.538  50.111  1.00  0.00    -0.082 SA
BRANCH   6   7
HETATM    7  C   UNL     1      25.399  46.115  50.410  1.00  0.00     0.166 C 
BRANCH   7   8
HETATM    8  C   UNL     1      25.133  45.450  51.747  1.00  0.00     0.169 C 
HETATM    9  O   UNL     1      24.207  44.666  51.950  1.00  0.00    -0.291 OA
BRANCH   8  10
HETATM   10  C   UNL     1      26.039  45.801  52.887  1.00  0.00     0.011 A 
HETATM   11  C   UNL     1      25.913  47.002  53.595  1.00  0.00     0.017 A 
HETATM   12  C   UNL     1      26.793  47.329  54.632  1.00  0.00     0.031 A 
HETATM   13  C   UNL     1      27.797  46.407  54.944  1.00  0.00     0.045 A 
HETATM   14  N   UNL     1      28.790  46.465  55.892  1.00  0.00    -0.336 N 
HETATM   15  C   UNL     1      27.942  45.191  54.281  1.00  0.00     0.002 A 
HETATM   16  C   UNL     1      29.551  45.331  55.859  1.00  0.00     0.147 A 
HETATM   17  H   UNL     1      28.946  47.230  56.530  1.00  0.00     0.168 HD
HETATM   18  C   UNL     1      29.056  44.504  54.869  1.00  0.00     0.001 A 
HETATM   19  C   UNL     1      29.554  43.160  54.475  1.00  0.00     0.054 C 
HETATM   20  C   UNL     1      27.044  44.883  53.238  1.00  0.00     0.029 A 
BRANCH  16  21
HETATM   21  O   UNL     1      30.560  45.211  56.712  1.00  0.00    -0.346 OA
HETATM   22  H   UNL     1      31.014  46.071  56.749  1.00  0.00     0.219 HD
ENDBRANCH  16  21
ENDBRANCH   8  10
ENDBRANCH   7   8
ENDBRANCH   6   7
ENDBRANCH   1   6
BRANCH   2  23
HETATM   23  C   UNL     1      21.675  48.769  48.614  1.00  0.00     0.077 A 
HETATM   24  C   UNL     1      22.293  49.880  48.018  1.00  0.00     0.095 A 
HETATM   25  C   UNL     1      21.750  51.150  48.244  1.00  0.00     0.039 A 
HETATM   26  C   UNL     1      20.622  51.314  49.054  1.00  0.00     0.003 A 
HETATM   27  C   UNL     1      20.026  50.211  49.658  1.00  0.00     0.002 A 
HETATM   28  C   UNL     1      20.551  48.939  49.443  1.00  0.00     0.033 A 
BRANCH  24  29
HETATM   29  O   UNL     1      23.450  49.659  47.323  1.00  0.00    -0.354 OA
HETATM   30  C   UNL     1      24.637  50.269  47.806  1.00  0.00     0.210 C 
ENDBRANCH  24  29
ENDBRANCH   2  23
BRANCH   3  31
HETATM   31  N   UNL     1      20.626  46.681  46.585  1.00  0.00    -0.251 NA
HETATM   32  C   UNL     1      19.263  46.462  47.092  1.00  0.00     0.098 C 
HETATM   33  C   UNL     1      18.251  47.062  46.115  1.00  0.00     0.015 C 
HETATM   34  C   UNL     1      18.432  46.493  44.710  1.00  0.00     0.002 C 
HETATM   35  C   UNL     1      19.874  46.655  44.244  1.00  0.00     0.015 C 
HETATM   36  C   UNL     1      20.852  46.071  45.261  1.00  0.00     0.098 C 
ENDBRANCH   3  31
TORSDOF 8
ENDMDL
MODEL 4
REMARK VINA RESULT:      -8.6      2.869      8.143
REMARK  8 active torsions:
REMARK  status: ('A' for Active; 'I' for Inactive)
REMARK    1  A    between atoms: C_3  and  O_4 
REMARK    2  A    between atoms: C_11  and  C_12 
REMARK    3  A    between atoms: C_12  and  C_13 
REMARK    4  A    between atoms: C_13  and  S_14 
REMARK    5  A    between atoms: S_14  and  C_15 
REMARK    6  A    between atoms: N_16  and  C_17 
REMARK    7  A    between atoms: C_18  and  O_19 
REMARK    8  A    between atoms: C_25  and  N_26 
ROOT
HETATM    1  C   UNL     1      27.994  50.465  38.475  1.00  0.00     0.197 A 
HETATM    2  N   UNL     1      28.057  49.377  39.330  1.00  0.00    -0.259 N 
HETATM    3  C   UNL     1      26.800  48.771  39.189  1.00  0.00     0.211 A 
HETATM    4  N   UNL     1      26.093  49.456  38.308  1.00  0.00    -0.116 NA
HETATM    5  N   UNL     1      26.844  50.495  37.844  1.00  0.00    -0.121 NA
ENDROOT
BRANCH   1   6
HETATM    6  S   UNL     1      29.173  51.741  38.387  1.00  0.00    -0.082 SA
BRANCH   6   7
HETATM    7  C   UNL     1      28.709  52.663  39.882  1.00  0.00     0.166 C 
BRANCH   7   8
HETATM    8  C   UNL     1      29.850  53.502  40.425  1.00  0.00     0.169 C 
HETATM    9  O   UNL     1      29.994  54.701  40.186  1.00  0.00    -0.291 OA
BRANCH   8  10
HETATM   10  C   UNL     1      30.874  52.814  41.274  1.00  0.00     0.011 A 
HETATM   11  C   UNL     1      30.693  52.621  42.649  1.00  0.00     0.017 A 
HETATM   12  C   UNL     1      31.679  52.010  43.432  1.00  0.00     0.031 A 
HETATM   13  C   UNL     1      32.846  51.588  42.789  1.00  0.00     0.045 A 
HETATM   14  N   UNL     1      33.967  50.977  43.298  1.00  0.00    -0.336 N 
HETATM   15  C   UNL     1      33.056  51.739  41.420  1.00  0.00     0.002 A 
HETATM   16  C   UNL     1      34.871  50.728  42.305  1.00  0.00     0.147 A 
HETATM   17  H   UNL     1      34.114  50.738  44.268  1.00  0.00     0.168 HD
HETATM   18  C   UNL     1      34.343  51.186  41.113  1.00  0.00     0.001 A 
HETATM   19  C   UNL     1      34.961  51.122  39.763  1.00  0.00     0.054 C 
HETATM   20  C   UNL     1      32.049  52.359  40.651  1.00  0.00     0.029 A 
BRANCH  16  21
HETATM   21  O   UNL     1      36.017  50.136  42.615  1.00  0.00    -0.346 OA
HETATM   22  H   UNL     1      35.977  49.226  42.271  1.00  0.00     0.219 HD
ENDBRANCH  16  21
ENDBRANCH   8  10
ENDBRANCH   7   8
ENDBRANCH   6   7
ENDBRANCH   1   6
BRANCH   2  23
HETATM   23  C   UNL     1      29.158  48.975  40.134  1.00  0.00     0.077 A 
HETATM   24  C   UNL     1      30.234  48.255  39.590  1.00  0.00     0.095 A 
HETATM   25  C   UNL     1      31.316  47.939  40.421  1.00  0.00     0.039 A 
HETATM   26  C   UNL     1      31.323  48.322  41.766  1.00  0.00     0.003 A 
HETATM   27  C   UNL     1      30.244  49.018  42.302  1.00  0.00     0.002 A 
HETATM   28  C   UNL     1      29.159  49.343  41.491  1.00  0.00     0.033 A 
BRANCH  24  29
HETATM   29  O   UNL     1      30.116  47.825  38.297  1.00  0.00    -0.354 OA
HETATM   30  C   UNL     1      29.814  46.454  38.083  1.00  0.00     0.210 C 
ENDBRANCH  24  29
ENDBRANCH   2  23
BRANCH   3  31
HETATM   31  N   UNL     1      26.380  47.640  39.847  1.00  0.00    -0.251 NA
HETATM   32  C   UNL     1      26.708  46.344  39.235  1.00  0.00     0.098 C 
HETATM   33  C   UNL     1      26.503  45.227  40.259  1.00  0.00     0.015 C 
HETATM   34  C   UNL     1      25.083  45.246  40.822  1.00  0.00     0.002 C 
HETATM   35  C   UNL     1      24.738  46.626  41.370  1.00  0.00     0.015 C 
HETATM   36  C   UNL     1      24.988  47.713  40.327  1.00  0.00     0.098 C 
ENDBRANCH   3  31
TORSDOF 8
ENDMDL
MODEL 5
REMARK VINA RESULT:      -8.3     10.933     14.338
REMARK  8 active torsions:
REMARK  status: ('A' for Active; 'I' for Inactive)
REMARK    1  A    between atoms: C_3  and  O_4 
REMARK    2  A    between atoms: C_11  and  C_12 
REMARK    3  A    between atoms: C_12  and  C_13 
REMARK    4  A    between atoms: C_13  and  S_14 
REMARK    5  A    between atoms: S_14  and  C_15 
REMARK    6  A    between atoms: N_16  and  C_17 
REMARK    7  A    between atoms: C_18  and  O_19 
REMARK    8  A    between atoms: C_25  and  N_26 
ROOT
HETATM    1  C   UNL     1      23.353  46.636  49.169  1.00  0.00     0.197 A 
HETATM    2  N   UNL     1      22.140  47.187  48.791  1.00  0.00    -0.259 N 
HETATM    3  C   UNL     1      22.284  48.549  49.099  1.00  0.00     0.211 A 
HETATM    4  N   UNL     1      23.493  48.748  49.593  1.00  0.00    -0.116 NA
HETATM    5  N   UNL     1      24.167  47.564  49.615  1.00  0.00    -0.121 NA
ENDROOT
BRANCH   1   6
HETATM    6  S   UNL     1      23.699  44.933  49.250  1.00  0.00    -0.082 SA
BRANCH   6   7
HETATM    7  C   UNL     1      24.221  44.829  50.987  1.00  0.00     0.166 C 
BRANCH   7   8
HETATM    8  C   UNL     1      25.729  44.784  51.140  1.00  0.00     0.169 C 
HETATM    9  O   UNL     1      26.489  44.295  50.305  1.00  0.00    -0.291 OA
BRANCH   8  10
HETATM   10  C   UNL     1      26.314  45.342  52.400  1.00  0.00     0.011 A 
HETATM   11  C   UNL     1      25.838  46.523  52.983  1.00  0.00     0.017 A 
HETATM   12  C   UNL     1      26.424  47.049  54.140  1.00  0.00     0.031 A 
HETATM   13  C   UNL     1      27.494  46.346  54.700  1.00  0.00     0.045 A 
HETATM   14  N   UNL     1      28.255  46.626  55.810  1.00  0.00    -0.336 N 
HETATM   15  C   UNL     1      27.983  45.156  54.166  1.00  0.00     0.002 A 
HETATM   16  C   UNL     1      29.197  45.657  56.003  1.00  0.00     0.147 A 
HETATM   17  H   UNL     1      28.143  47.431  56.409  1.00  0.00     0.168 HD
HETATM   18  C   UNL     1      29.063  44.716  55.001  1.00  0.00     0.001 A 
HETATM   19  C   UNL     1      29.861  43.476  54.806  1.00  0.00     0.054 C 
HETATM   20  C   UNL     1      27.377  44.645  52.999  1.00  0.00     0.029 A 
BRANCH  16  21
HETATM   21  O   UNL     1      30.023  45.762  57.035  1.00  0.00    -0.346 OA
HETATM   22  H   UNL     1      29.551  45.434  57.821  1.00  0.00     0.219 HD
ENDBRANCH  16  21
ENDBRANCH   8  10
ENDBRANCH   7   8
ENDBRANCH   6   7
ENDBRANCH   1   6
BRANCH   2  23
HETATM   23  C   UNL     1      21.032  46.516  48.208  1.00  0.00     0.077 A 
HETATM   24  C   UNL     1      21.133  45.894  46.952  1.00  0.00     0.095 A 
HETATM   25  C   UNL     1      20.023  45.199  46.458  1.00  0.00     0.039 A 
HETATM   26  C   UNL     1      18.835  45.131  47.192  1.00  0.00     0.003 A 
HETATM   27  C   UNL     1      18.735  45.765  48.426  1.00  0.00     0.002 A 
HETATM   28  C   UNL     1      19.830  46.461  48.935  1.00  0.00     0.033 A 
BRANCH  24  29
HETATM   29  O   UNL     1      22.288  46.087  46.245  1.00  0.00    -0.354 OA
HETATM   30  C   UNL     1      22.724  45.039  45.393  1.00  0.00     0.210 C 
ENDBRANCH  24  29
ENDBRANCH   2  23
BRANCH   3  31
HETATM   31  N   UNL     1      21.330  49.518  48.900  1.00  0.00    -0.251 NA
HETATM   32  C   UNL     1      21.251  50.122  47.562  1.00  0.00     0.098 C 
HETATM   33  C   UNL     1      19.932  50.881  47.421  1.00  0.00     0.015 C 
HETATM   34  C   UNL     1      19.771  51.925  48.524  1.00  0.00     0.002 C 
HETATM   35  C   UNL     1      19.945  51.288  49.898  1.00  0.00     0.015 C 
HETATM   36  C   UNL     1      21.259  50.513  49.986  1.00  0.00     0.098 C 
ENDBRANCH   3  31
TORSDOF 8
ENDMDL
MODEL 6
REMARK VINA RESULT:      -8.1      2.870      7.641
REMARK  8 active torsions:
REMARK  status: ('A' for Active; 'I' for Inactive)
REMARK    1  A    between atoms: C_3  and  O_4 
REMARK    2  A    between atoms: C_11  and  C_12 
REMARK    3  A    between atoms: C_12  and  C_13 
REMARK    4  A    between atoms: C_13  and  S_14 
REMARK    5  A    between atoms: S_14  and  C_15 
REMARK    6  A    between atoms: N_16  and  C_17 
REMARK    7  A    between atoms: C_18  and  O_19 
REMARK    8  A    between atoms: C_25  and  N_26 
ROOT
HETATM    1  C   UNL     1      26.666  49.323  39.919  1.00  0.00     0.197 A 
HETATM    2  N   UNL     1      27.359  48.245  40.445  1.00  0.00    -0.259 N 
HETATM    3  C   UNL     1      26.381  47.246  40.558  1.00  0.00     0.211 A 
HETATM    4  N   UNL     1      25.232  47.721  40.111  1.00  0.00    -0.116 NA
HETATM    5  N   UNL     1      25.413  49.005  39.690  1.00  0.00    -0.121 NA
ENDROOT
BRANCH   1   6
HETATM    6  S   UNL     1      27.289  50.941  39.770  1.00  0.00    -0.082 SA
BRANCH   6   7
HETATM    7  C   UNL     1      28.350  50.707  38.315  1.00  0.00     0.166 C 
BRANCH   7   8
HETATM    8  C   UNL     1      29.362  51.824  38.147  1.00  0.00     0.169 C 
HETATM    9  O   UNL     1      29.148  52.854  37.509  1.00  0.00    -0.291 OA
BRANCH   8  10
HETATM   10  C   UNL     1      30.710  51.637  38.773  1.00  0.00     0.011 A 
HETATM   11  C   UNL     1      31.842  51.308  38.018  1.00  0.00     0.017 A 
HETATM   12  C   UNL     1      33.085  51.099  38.626  1.00  0.00     0.031 A 
HETATM   13  C   UNL     1      33.158  51.242  40.015  1.00  0.00     0.045 A 
HETATM   14  N   UNL     1      34.226  51.091  40.867  1.00  0.00    -0.336 N 
HETATM   15  C   UNL     1      32.062  51.591  40.800  1.00  0.00     0.002 A 
HETATM   16  C   UNL     1      33.850  51.339  42.156  1.00  0.00     0.147 A 
HETATM   17  H   UNL     1      35.162  50.835  40.592  1.00  0.00     0.168 HD
HETATM   18  C   UNL     1      32.506  51.658  42.163  1.00  0.00     0.001 A 
HETATM   19  C   UNL     1      31.662  52.013  43.334  1.00  0.00     0.054 C 
HETATM   20  C   UNL     1      30.819  51.796  40.166  1.00  0.00     0.029 A 
BRANCH  16  21
HETATM   21  O   UNL     1      34.758  51.243  43.118  1.00  0.00    -0.346 OA
HETATM   22  H   UNL     1      34.353  50.749  43.853  1.00  0.00     0.219 HD
ENDBRANCH  16  21
ENDBRANCH   8  10
ENDBRANCH   7   8
ENDBRANCH   6   7
ENDBRANCH   1   6
BRANCH   2  23
HETATM   23  C   UNL     1      28.742  48.182  40.764  1.00  0.00     0.077 A 
HETATM   24  C   UNL     1      29.694  47.790  39.810  1.00  0.00     0.095 A 
HETATM   25  C   UNL     1      31.047  47.804  40.169  1.00  0.00     0.039 A 
HETATM   26  C   UNL     1      31.444  48.192  41.453  1.00  0.00     0.003 A 
HETATM   27  C   UNL     1      30.493  48.560  42.399  1.00  0.00     0.002 A 
HETATM   28  C   UNL     1      29.142  48.554  42.060  1.00  0.00     0.033 A 
BRANCH  24  29
HETATM   29  O   UNL     1      29.230  47.326  38.609  1.00  0.00    -0.354 OA
HETATM   30  C   UNL     1      29.733  46.083  38.143  1.00  0.00     0.210 C 
ENDBRANCH  24  29
ENDBRANCH   2  23
BRANCH   3  31
HETATM   31  N   UNL     1      26.589  45.975  41.037  1.00  0.00    -0.251 NA
HETATM   32  C   UNL     1      26.983  44.944  40.065  1.00  0.00     0.098 C 
HETATM   33  C   UNL     1      27.522  43.721  40.806  1.00  0.00     0.015 C 
HETATM   34  C   UNL     1      26.505  43.191  41.814  1.00  0.00     0.002 C 
HETATM   35  C   UNL     1      26.049  44.301  42.754  1.00  0.00     0.015 C 
HETATM   36  C   UNL     1      25.548  45.514  41.973  1.00  0.00     0.098 C 
ENDBRANCH   3  31
TORSDOF 8
ENDMDL
MODEL 7
REMARK VINA RESULT:      -7.9     10.717     14.494
REMARK  8 active torsions:
REMARK  status: ('A' for Active; 'I' for Inactive)
REMARK    1  A    between atoms: C_3  and  O_4 
REMARK    2  A    between atoms: C_11  and  C_12 
REMARK    3  A    between atoms: C_12  and  C_13 
REMARK    4  A    between atoms: C_13  and  S_14 
REMARK    5  A    between atoms: S_14  and  C_15 
REMARK    6  A    between atoms: N_16  and  C_17 
REMARK    7  A    between atoms: C_18  and  O_19 
REMARK    8  A    between atoms: C_25  and  N_26 
ROOT
HETATM    1  C   UNL     1      17.375  47.630  48.364  1.00  0.00     0.197 A 
HETATM    2  N   UNL     1      17.576  49.000  48.326  1.00  0.00    -0.259 N 
HETATM    3  C   UNL     1      16.295  49.517  48.085  1.00  0.00     0.211 A 
HETATM    4  N   UNL     1      15.437  48.514  48.013  1.00  0.00    -0.116 NA
HETATM    5  N   UNL     1      16.104  47.341  48.211  1.00  0.00    -0.121 NA
ENDROOT
BRANCH   1   6
HETATM    6  S   UNL     1      18.635  46.431  48.396  1.00  0.00    -0.082 SA
BRANCH   6   7
HETATM    7  C   UNL     1      18.883  46.226  46.609  1.00  0.00     0.166 C 
BRANCH   7   8
HETATM    8  C   UNL     1      20.347  46.262  46.217  1.00  0.00     0.169 C 
HETATM    9  O   UNL     1      20.744  46.399  45.060  1.00  0.00    -0.291 OA
BRANCH   8  10
HETATM   10  C   UNL     1      21.360  46.085  47.305  1.00  0.00     0.011 A 
HETATM   11  C   UNL     1      21.531  44.865  47.972  1.00  0.00     0.017 A 
HETATM   12  C   UNL     1      22.457  44.731  49.013  1.00  0.00     0.031 A 
HETATM   13  C   UNL     1      23.212  45.856  49.357  1.00  0.00     0.045 A 
HETATM   14  N   UNL     1      24.171  46.017  50.327  1.00  0.00    -0.336 N 
HETATM   15  C   UNL     1      23.090  47.081  48.704  1.00  0.00     0.002 A 
HETATM   16  C   UNL     1      24.665  47.290  50.308  1.00  0.00     0.147 A 
HETATM   17  H   UNL     1      24.479  45.303  50.971  1.00  0.00     0.168 HD
HETATM   18  C   UNL     1      24.020  47.991  49.308  1.00  0.00     0.001 A 
HETATM   19  C   UNL     1      24.234  49.406  48.906  1.00  0.00     0.054 C 
HETATM   20  C   UNL     1      22.150  47.193  47.658  1.00  0.00     0.029 A 
BRANCH  16  21
HETATM   21  O   UNL     1      25.608  47.626  51.179  1.00  0.00    -0.346 OA
HETATM   22  H   UNL     1      26.125  48.350  50.784  1.00  0.00     0.219 HD
ENDBRANCH  16  21
ENDBRANCH   8  10
ENDBRANCH   7   8
ENDBRANCH   6   7
ENDBRANCH   1   6
BRANCH   2  23
HETATM   23  C   UNL     1      18.800  49.697  48.514  1.00  0.00     0.077 A 
HETATM   24  C   UNL     1      19.245  50.056  49.797  1.00  0.00     0.095 A 
HETATM   25  C   UNL     1      20.487  50.690  49.920  1.00  0.00     0.039 A 
HETATM   26  C   UNL     1      21.266  50.968  48.792  1.00  0.00     0.003 A 
HETATM   27  C   UNL     1      20.809  50.627  47.524  1.00  0.00     0.002 A 
HETATM   28  C   UNL     1      19.576  49.994  47.380  1.00  0.00     0.033 A 
BRANCH  24  29
HETATM   29  O   UNL     1      18.389  49.847  50.843  1.00  0.00    -0.354 OA
HETATM   30  C   UNL     1      18.586  48.686  51.635  1.00  0.00     0.210 C 
ENDBRANCH  24  29
ENDBRANCH   2  23
BRANCH   3  31
HETATM   31  N   UNL     1      15.980  50.849  47.964  1.00  0.00    -0.251 NA
HETATM   32  C   UNL     1      15.452  51.528  49.155  1.00  0.00     0.098 C 
HETATM   33  C   UNL     1      15.513  53.042  48.951  1.00  0.00     0.015 C 
HETATM   34  C   UNL     1      14.771  53.461  47.684  1.00  0.00     0.002 C 
HETATM   35  C   UNL     1      15.278  52.678  46.478  1.00  0.00     0.015 C 
HETATM   36  C   UNL     1      15.230  51.173  46.736  1.00  0.00     0.098 C 
ENDBRANCH   3  31
TORSDOF 8
ENDMDL
MODEL 8
REMARK VINA RESULT:      -7.9     26.076     28.552
REMARK  8 active torsions:
REMARK  status: ('A' for Active; 'I' for Inactive)
REMARK    1  A    between atoms: C_3  and  O_4 
REMARK    2  A    between atoms: C_11  and  C_12 
REMARK    3  A    between atoms: C_12  and  C_13 
REMARK    4  A    between atoms: C_13  and  S_14 
REMARK    5  A    between atoms: S_14  and  C_15 
REMARK    6  A    between atoms: N_16  and  C_17 
REMARK    7  A    between atoms: C_18  and  O_19 
REMARK    8  A    between atoms: C_25  and  N_26 
ROOT
HETATM    1  C   UNL     1      37.848  45.438  64.018  1.00  0.00     0.197 A 
HETATM    2  N   UNL     1      38.482  46.339  64.856  1.00  0.00    -0.259 N 
HETATM    3  C   UNL     1      37.482  47.278  65.150  1.00  0.00     0.211 A 
HETATM    4  N   UNL     1      36.367  46.919  64.538  1.00  0.00    -0.116 NA
HETATM    5  N   UNL     1      36.586  45.761  63.853  1.00  0.00    -0.121 NA
ENDROOT
BRANCH   1   6
HETATM    6  S   UNL     1      38.638  44.169  63.127  1.00  0.00    -0.082 SA
BRANCH   6   7
HETATM    7  C   UNL     1      37.356  42.889  63.250  1.00  0.00     0.166 C 
BRANCH   7   8
HETATM    8  C   UNL     1      37.615  41.913  64.382  1.00  0.00     0.169 C 
HETATM    9  O   UNL     1      37.077  41.986  65.486  1.00  0.00    -0.291 OA
BRANCH   8  10
HETATM   10  C   UNL     1      38.610  40.821  64.140  1.00  0.00     0.011 A 
HETATM   11  C   UNL     1      38.994  40.436  62.850  1.00  0.00     0.017 A 
HETATM   12  C   UNL     1      39.896  39.386  62.644  1.00  0.00     0.031 A 
HETATM   13  C   UNL     1      40.409  38.743  63.774  1.00  0.00     0.045 A 
HETATM   14  N   UNL     1      41.290  37.693  63.873  1.00  0.00    -0.336 N 
HETATM   15  C   UNL     1      40.072  39.109  65.075  1.00  0.00     0.002 A 
HETATM   16  C   UNL     1      41.528  37.387  65.182  1.00  0.00     0.147 A 
HETATM   17  H   UNL     1      41.710  37.206  63.095  1.00  0.00     0.168 HD
HETATM   18  C   UNL     1      40.790  38.249  65.970  1.00  0.00     0.001 A 
HETATM   19  C   UNL     1      40.738  38.304  67.455  1.00  0.00     0.054 C 
HETATM   20  C   UNL     1      39.160  40.170  65.258  1.00  0.00     0.029 A 
BRANCH  16  21
HETATM   21  O   UNL     1      42.362  36.396  65.469  1.00  0.00    -0.346 OA
HETATM   22  H   UNL     1      43.261  36.698  65.249  1.00  0.00     0.219 HD
ENDBRANCH  16  21
ENDBRANCH   8  10
ENDBRANCH   7   8
ENDBRANCH   6   7
ENDBRANCH   1   6
BRANCH   2  23
HETATM   23  C   UNL     1      39.824  46.291  65.317  1.00  0.00     0.077 A 
HETATM   24  C   UNL     1      40.204  45.447  66.374  1.00  0.00     0.095 A 
HETATM   25  C   UNL     1      41.553  45.402  66.743  1.00  0.00     0.039 A 
HETATM   26  C   UNL     1      42.504  46.186  66.081  1.00  0.00     0.003 A 
HETATM   27  C   UNL     1      42.118  47.033  65.049  1.00  0.00     0.002 A 
HETATM   28  C   UNL     1      40.780  47.091  64.666  1.00  0.00     0.033 A 
BRANCH  24  29
HETATM   29  O   UNL     1      39.209  44.788  67.042  1.00  0.00    -0.354 OA
HETATM   30  C   UNL     1      39.499  43.495  67.550  1.00  0.00     0.210 C 
ENDBRANCH  24  29
ENDBRANCH   2  23
BRANCH   3  31
HETATM   31  N   UNL     1      37.632  48.380  65.957  1.00  0.00    -0.251 NA
HETATM   32  C   UNL     1      36.640  48.574  67.025  1.00  0.00     0.098 C 
HETATM   33  C   UNL     1      37.162  49.605  68.027  1.00  0.00     0.015 C 
HETATM   34  C   UNL     1      37.517  50.919  67.337  1.00  0.00     0.002 C 
HETATM   35  C   UNL     1      38.478  50.678  66.178  1.00  0.00     0.015 C 
HETATM   36  C   UNL     1      37.934  49.621  65.219  1.00  0.00     0.098 C 
ENDBRANCH   3  31
TORSDOF 8
ENDMDL
MODEL 9
REMARK VINA RESULT:      -7.9     10.559     14.145
REMARK  8 active torsions:
REMARK  status: ('A' for Active; 'I' for Inactive)
REMARK    1  A    between atoms: C_3  and  O_4 
REMARK    2  A    between atoms: C_11  and  C_12 
REMARK    3  A    between atoms: C_12  and  C_13 
REMARK    4  A    between atoms: C_13  and  S_14 
REMARK    5  A    between atoms: S_14  and  C_15 
REMARK    6  A    between atoms: N_16  and  C_17 
REMARK    7  A    between atoms: C_18  and  O_19 
REMARK    8  A    between atoms: C_25  and  N_26 
ROOT
HETATM    1  C   UNL     1      22.940  46.613  48.782  1.00  0.00     0.197 A 
HETATM    2  N   UNL     1      21.927  47.356  48.198  1.00  0.00    -0.259 N 
HETATM    3  C   UNL     1      21.387  46.487  47.239  1.00  0.00     0.211 A 
HETATM    4  N   UNL     1      22.035  45.336  47.294  1.00  0.00    -0.116 NA
HETATM    5  N   UNL     1      22.985  45.405  48.270  1.00  0.00    -0.121 NA
ENDROOT
BRANCH   1   6
HETATM    6  S   UNL     1      24.132  47.234  49.886  1.00  0.00    -0.082 SA
BRANCH   6   7
HETATM    7  C   UNL     1      24.552  45.693  50.752  1.00  0.00     0.166 C 
BRANCH   7   8
HETATM    8  C   UNL     1      26.016  45.326  50.609  1.00  0.00     0.169 C 
HETATM    9  O   UNL     1      26.575  45.146  49.527  1.00  0.00    -0.291 OA
BRANCH   8  10
HETATM   10  C   UNL     1      26.810  45.141  51.865  1.00  0.00     0.011 A 
HETATM   11  C   UNL     1      27.638  44.030  52.065  1.00  0.00     0.017 A 
HETATM   12  C   UNL     1      28.342  43.857  53.263  1.00  0.00     0.031 A 
HETATM   13  C   UNL     1      28.197  44.838  54.247  1.00  0.00     0.045 A 
HETATM   14  N   UNL     1      28.751  44.924  55.502  1.00  0.00    -0.336 N 
HETATM   15  C   UNL     1      27.403  45.970  54.079  1.00  0.00     0.002 A 
HETATM   16  C   UNL     1      28.345  46.067  56.129  1.00  0.00     0.147 A 
HETATM   17  H   UNL     1      29.373  44.245  55.915  1.00  0.00     0.168 HD
HETATM   18  C   UNL     1      27.503  46.754  55.276  1.00  0.00     0.001 A 
HETATM   19  C   UNL     1      26.827  48.055  55.520  1.00  0.00     0.054 C 
HETATM   20  C   UNL     1      26.702  46.124  52.864  1.00  0.00     0.029 A 
BRANCH  16  21
HETATM   21  O   UNL     1      28.786  46.318  57.354  1.00  0.00    -0.346 OA
HETATM   22  H   UNL     1      28.296  45.740  57.965  1.00  0.00     0.219 HD
ENDBRANCH  16  21
ENDBRANCH   8  10
ENDBRANCH   7   8
ENDBRANCH   6   7
ENDBRANCH   1   6
BRANCH   2  23
HETATM   23  C   UNL     1      21.530  48.680  48.528  1.00  0.00     0.077 A 
HETATM   24  C   UNL     1      22.217  49.796  48.023  1.00  0.00     0.095 A 
HETATM   25  C   UNL     1      21.740  51.074  48.337  1.00  0.00     0.039 A 
HETATM   26  C   UNL     1      20.610  51.239  49.144  1.00  0.00     0.003 A 
HETATM   27  C   UNL     1      19.947  50.130  49.657  1.00  0.00     0.002 A 
HETATM   28  C   UNL     1      20.405  48.850  49.354  1.00  0.00     0.033 A 
BRANCH  24  29
HETATM   29  O   UNL     1      23.371  49.563  47.327  1.00  0.00    -0.354 OA
HETATM   30  C   UNL     1      24.547  50.233  47.755  1.00  0.00     0.210 C 
ENDBRANCH  24  29
ENDBRANCH   2  23
BRANCH   3  31
HETATM   31  N   UNL     1      20.343  46.777  46.395  1.00  0.00    -0.251 NA
HETATM   32  C   UNL     1      18.982  46.651  46.937  1.00  0.00     0.098 C 
HETATM   33  C   UNL     1      17.994  47.355  46.007  1.00  0.00     0.015 C 
HETATM   34  C   UNL     1      18.089  46.812  44.583  1.00  0.00     0.002 C 
HETATM   35  C   UNL     1      19.526  46.873  44.078  1.00  0.00     0.015 C 
HETATM   36  C   UNL     1      20.484  46.187  45.051  1.00  0.00     0.098 C 
ENDBRANCH   3  31
TORSDOF 8
ENDMDL
MODEL 10
REMARK VINA RESULT:      -7.7     11.339     14.787
REMARK  8 active torsions:
REMARK  status: ('A' for Active; 'I' for Inactive)
REMARK    1  A    between atoms: C_3  and  O_4 
REMARK    2  A    between atoms: C_11  and  C_12 
REMARK    3  A    between atoms: C_12  and  C_13 
REMARK    4  A    between atoms: C_13  and  S_14 
REMARK    5  A    between atoms: S_14  and  C_15 
REMARK    6  A    between atoms: N_16  and  C_17 
REMARK    7  A    between atoms: C_18  and  O_19 
REMARK    8  A    between atoms: C_25  and  N_26 
ROOT
HETATM    1  C   UNL     1      20.842  48.184  47.829  1.00  0.00     0.197 A 
HETATM    2  N   UNL     1      19.660  48.861  47.579  1.00  0.00    -0.259 N 
HETATM    3  C   UNL     1      19.045  48.098  46.575  1.00  0.00     0.211 A 
HETATM    4  N   UNL     1      19.816  47.061  46.297  1.00  0.00    -0.116 NA
HETATM    5  N   UNL     1      20.922  47.100  47.093  1.00  0.00    -0.121 NA
ENDROOT
BRANCH   1   6
HETATM    6  S   UNL     1      22.147  48.775  48.815  1.00  0.00    -0.082 SA
BRANCH   6   7
HETATM    7  C   UNL     1      23.070  47.225  49.030  1.00  0.00     0.166 C 
BRANCH   7   8
HETATM    8  C   UNL     1      24.252  47.377  49.967  1.00  0.00     0.169 C 
HETATM    9  O   UNL     1      24.798  48.452  50.213  1.00  0.00    -0.291 OA
BRANCH   8  10
HETATM   10  C   UNL     1      24.801  46.134  50.596  1.00  0.00     0.011 A 
HETATM   11  C   UNL     1      24.516  44.858  50.096  1.00  0.00     0.017 A 
HETATM   12  C   UNL     1      25.007  43.706  50.722  1.00  0.00     0.031 A 
HETATM   13  C   UNL     1      25.802  43.877  51.859  1.00  0.00     0.045 A 
HETATM   14  N   UNL     1      26.402  42.943  52.669  1.00  0.00    -0.336 N 
HETATM   15  C   UNL     1      26.128  45.128  52.376  1.00  0.00     0.002 A 
HETATM   16  C   UNL     1      27.101  43.554  53.671  1.00  0.00     0.147 A 
HETATM   17  H   UNL     1      26.344  41.942  52.552  1.00  0.00     0.168 HD
HETATM   18  C   UNL     1      26.960  44.921  53.526  1.00  0.00     0.001 A 
HETATM   19  C   UNL     1      27.551  45.990  54.374  1.00  0.00     0.054 C 
HETATM   20  C   UNL     1      25.622  46.275  51.729  1.00  0.00     0.029 A 
BRANCH  16  21
HETATM   21  O   UNL     1      27.750  42.804  54.551  1.00  0.00    -0.346 OA
HETATM   22  H   UNL     1      28.141  42.057  54.064  1.00  0.00     0.219 HD
ENDBRANCH  16  21
ENDBRANCH   8  10
ENDBRANCH   7   8
ENDBRANCH   6   7
ENDBRANCH   1   6
BRANCH   2  23
HETATM   23  C   UNL     1      19.188  50.038  48.221  1.00  0.00     0.077 A 
HETATM   24  C   UNL     1      18.494  49.977  49.440  1.00  0.00     0.095 A 
HETATM   25  C   UNL     1      18.107  51.176  50.050  1.00  0.00     0.039 A 
HETATM   26  C   UNL     1      18.396  52.409  49.457  1.00  0.00     0.003 A 
HETATM   27  C   UNL     1      19.067  52.461  48.239  1.00  0.00     0.002 A 
HETATM   28  C   UNL     1      19.461  51.279  47.617  1.00  0.00     0.033 A 
BRANCH  24  29
HETATM   29  O   UNL     1      18.156  48.738  49.911  1.00  0.00    -0.354 OA
HETATM   30  C   UNL     1      18.525  48.415  51.243  1.00  0.00     0.210 C 
ENDBRANCH  24  29
ENDBRANCH   2  23
BRANCH   3  31
HETATM   31  N   UNL     1      17.833  48.373  45.991  1.00  0.00    -0.251 NA
HETATM   32  C   UNL     1      16.854  47.278  45.921  1.00  0.00     0.098 C 
HETATM   33  C   UNL     1      15.473  47.846  45.595  1.00  0.00     0.015 C 
HETATM   34  C   UNL     1      15.500  48.665  44.307  1.00  0.00     0.002 C 
HETATM   35  C   UNL     1      16.582  49.737  44.372  1.00  0.00     0.015 C 
HETATM   36  C   UNL     1      17.938  49.132  44.731  1.00  0.00     0.098 C 
ENDBRANCH   3  31
TORSDOF 8
ENDMDL
