MODEL 1
REMARK VINA RESULT:      -7.7      0.000      0.000
REMARK  11 active torsions:
REMARK  status: ('A' for Active; 'I' for Inactive)
REMARK    1  A    between atoms: C_1  and  C_7 
REMARK    2  A    between atoms: C_1  and  C_11 
REMARK    3  A    between atoms: C_8  and  C_13 
REMARK    4  A    between atoms: C_8  and  O_14 
REMARK       I    between atoms: C_11  and  N_12 
REMARK    5  A    between atoms: N_12  and  C_13 
REMARK    6  A    between atoms: C_18  and  N_19 
REMARK    7  A    between atoms: N_19  and  C_20 
REMARK    8  A    between atoms: C_20  and  C_21 
REMARK    9  A    between atoms: C_28  and  C_29 
REMARK   10  A    between atoms: C_29  and  O_30 
REMARK   11  A    between atoms: C_31  and  O_32 
ROOT
HETATM    1  C           1      24.400  43.883  48.919  0.00  0.00     0.012 A 
HETATM    2  C           1      25.865  44.102  52.252  0.00  0.00     0.016 C 
HETATM    3  C           1      26.547  43.892  50.874  0.00  0.00    -0.030 C 
HETATM    4  C           1      26.236  45.144  49.991  0.00  0.00     0.056 C 
HETATM    5  C           1      27.932  41.236  49.057  0.00  0.00     0.020 C 
HETATM    6  C           1      24.834  45.012  49.474  0.00  0.00     0.056 A 
HETATM    7  S           1      23.001  44.028  48.511  0.00  0.00    -0.055 SA
HETATM    8  C           1      22.897  45.421  48.968  0.00  0.00     0.167 A 
HETATM    9  N           1      23.941  45.899  49.506  0.00  0.00    -0.228 NA
HETATM   10  C           1      25.323  42.707  48.854  0.00  0.00     0.055 C 
HETATM   11  C           1      26.023  42.551  50.229  0.00  0.00     0.012 C 
HETATM   12  C           1      26.972  41.310  50.270  0.00  0.00     0.008 C 
HETATM   13  C           1      27.810  41.296  51.562  0.00  0.00     0.128 C 
HETATM   14  C           1      28.519  42.602  51.917  0.00  0.00     0.033 C 
HETATM   15  C           1      28.070  43.818  51.103  0.00  0.00     0.013 C 
ENDROOT
BRANCH   4  16
HETATM   16  C           1      26.478  46.544  50.595  0.00  0.00     0.114 C 
BRANCH  16  17
HETATM   17  C           1      26.723  47.624  49.547  0.00  0.00     0.218 C 
HETATM   18  N           1      25.713  48.543  49.446  0.00  0.00    -0.359 N 
HETATM   19  H           1      24.926  48.465  50.089  0.00  0.00     0.162 HD
HETATM   20  O           1      27.717  47.655  48.863  0.00  0.00    -0.274 OA
BRANCH  18  21
HETATM   21  C           1      25.703  49.628  48.457  0.00  0.00     0.148 C 
BRANCH  21  22
HETATM   22  C           1      24.254  49.993  48.135  0.00  0.00     0.186 C 
BRANCH  22  23
HETATM   23  O           1      23.460  49.767  49.274  0.00  0.00    -0.394 OA
HETATM   24  C           1      22.603  50.853  49.551  0.00  0.00     0.201 C 
ENDBRANCH  22  23
ENDBRANCH  21  22
ENDBRANCH  18  21
ENDBRANCH  16  17
ENDBRANCH   4  16
BRANCH  12  25
HETATM   25  C           1      26.110  40.020  50.215  0.00  0.00     0.176 C 
BRANCH  25  26
HETATM   26  O           1      26.907  38.869  50.409  0.00  0.00    -0.400 OA
HETATM   27  H           1      26.647  38.188  49.785  0.00  0.00     0.209 HD
ENDBRANCH  25  26
ENDBRANCH  12  25
BRANCH   8  28
HETATM   28  N           1      21.793  46.024  48.817  0.00  0.00    -0.365 N 
HETATM   29  H           1      21.057  45.897  49.555  0.00  0.00     0.162 HD
BRANCH  28  30
HETATM   30  C           1      21.478  46.900  47.667  0.00  0.00     0.160 C 
BRANCH  30  31
HETATM   31  C           1      20.567  48.025  48.103  0.00  0.00    -0.041 A 
HETATM   32  C           1      20.010  48.019  49.328  0.00  0.00     0.009 A 
HETATM   33  C           1      19.179  48.997  49.719  0.00  0.00     0.001 A 
HETATM   34  C           1      18.894  50.006  48.884  0.00  0.00     0.000 A 
HETATM   35  C           1      19.445  50.030  47.662  0.00  0.00     0.001 A 
HETATM   36  C           1      20.273  49.046  47.277  0.00  0.00     0.009 A 
ENDBRANCH  30  31
ENDBRANCH  28  30
ENDBRANCH   8  28
BRANCH  13  37
HETATM   37  O           1      26.995  40.885  52.636  0.00  0.00    -0.395 OA
HETATM   38  H           1      26.956  39.924  52.622  0.00  0.00     0.210 HD
ENDBRANCH  13  37
TORSDOF 11
ENDMDL
MODEL 2
REMARK VINA RESULT:      -7.5      2.636      5.032
REMARK  11 active torsions:
REMARK  status: ('A' for Active; 'I' for Inactive)
REMARK    1  A    between atoms: C_1  and  C_7 
REMARK    2  A    between atoms: C_1  and  C_11 
REMARK    3  A    between atoms: C_8  and  C_13 
REMARK    4  A    between atoms: C_8  and  O_14 
REMARK       I    between atoms: C_11  and  N_12 
REMARK    5  A    between atoms: N_12  and  C_13 
REMARK    6  A    between atoms: C_18  and  N_19 
REMARK    7  A    between atoms: N_19  and  C_20 
REMARK    8  A    between atoms: C_20  and  C_21 
REMARK    9  A    between atoms: C_28  and  C_29 
REMARK   10  A    between atoms: C_29  and  O_30 
REMARK   11  A    between atoms: C_31  and  O_32 
ROOT
HETATM    1  C           1      23.423  46.829  49.196  0.00  0.00     0.012 A 
HETATM    2  C           1      23.529  44.285  46.585  0.00  0.00     0.016 C 
HETATM    3  C           1      23.067  44.180  48.063  0.00  0.00    -0.030 C 
HETATM    4  C           1      21.863  45.158  48.257  0.00  0.00     0.056 C 
HETATM    5  C           1      24.340  42.944  51.085  0.00  0.00     0.020 C 
HETATM    6  C           1      22.409  46.549  48.381  0.00  0.00     0.056 A 
HETATM    7  S           1      23.756  48.253  49.115  0.00  0.00    -0.055 SA
HETATM    8  C           1      22.702  48.556  48.135  0.00  0.00     0.167 A 
HETATM    9  N           1      22.005  47.566  47.759  0.00  0.00    -0.228 NA
HETATM   10  C           1      24.058  45.717  49.969  0.00  0.00     0.055 C 
HETATM   11  C           1      24.279  44.514  49.016  0.00  0.00     0.012 C 
HETATM   12  C           1      24.989  43.319  49.730  0.00  0.00     0.008 C 
HETATM   13  C           1      25.007  42.069  48.830  0.00  0.00     0.128 C 
HETATM   14  C           1      23.673  41.678  48.195  0.00  0.00     0.033 C 
HETATM   15  C           1      22.575  42.739  48.306  0.00  0.00     0.013 C 
ENDROOT
BRANCH   4  16
HETATM   16  C           1      20.704  45.102  47.240  0.00  0.00     0.114 C 
BRANCH  16  17
HETATM   17  C           1      19.329  45.287  47.874  0.00  0.00     0.218 C 
HETATM   18  N           1      18.850  46.567  47.803  0.00  0.00    -0.359 N 
HETATM   19  H           1      19.407  47.263  47.308  0.00  0.00     0.162 HD
HETATM   20  O           1      18.727  44.383  48.400  0.00  0.00    -0.274 OA
BRANCH  18  21
HETATM   21  C           1      17.581  46.991  48.409  0.00  0.00     0.148 C 
BRANCH  21  22
HETATM   22  C           1      17.758  48.385  49.011  0.00  0.00     0.186 C 
BRANCH  22  23
HETATM   23  O           1      18.957  48.417  49.746  0.00  0.00    -0.394 OA
HETATM   24  C           1      18.781  48.975  51.030  0.00  0.00     0.201 C 
ENDBRANCH  22  23
ENDBRANCH  21  22
ENDBRANCH  18  21
ENDBRANCH  16  17
ENDBRANCH   4  16
BRANCH  12  25
HETATM   25  C           1      26.451  43.727  50.053  0.00  0.00     0.176 C 
BRANCH  25  26
HETATM   26  O           1      26.958  44.614  49.077  0.00  0.00    -0.400 OA
HETATM   27  H           1      27.916  44.562  49.060  0.00  0.00     0.209 HD
ENDBRANCH  25  26
ENDBRANCH  12  25
BRANCH   8  28
HETATM   28  N           1      22.583  49.750  47.729  0.00  0.00    -0.365 N 
HETATM   29  H           1      22.896  49.971  46.750  0.00  0.00     0.162 HD
BRANCH  28  30
HETATM   30  C           1      22.028  50.852  48.544  0.00  0.00     0.160 C 
BRANCH  30  31
HETATM   31  C           1      20.606  51.148  48.122  0.00  0.00    -0.041 A 
HETATM   32  C           1      20.079  50.558  47.034  0.00  0.00     0.009 A 
HETATM   33  C           1      18.828  50.830  46.633  0.00  0.00     0.001 A 
HETATM   34  C           1      18.079  51.702  47.323  0.00  0.00     0.000 A 
HETATM   35  C           1      18.587  52.294  48.414  0.00  0.00     0.001 A 
HETATM   36  C           1      19.841  52.019  48.807  0.00  0.00     0.009 A 
ENDBRANCH  30  31
ENDBRANCH  28  30
ENDBRANCH   8  28
BRANCH  13  37
HETATM   37  O           1      25.984  42.236  47.828  0.00  0.00    -0.395 OA
HETATM   38  H           1      25.707  42.968  47.269  0.00  0.00     0.210 HD
ENDBRANCH  13  37
TORSDOF 11
ENDMDL
MODEL 3
REMARK VINA RESULT:      -7.5      3.961      7.882
REMARK  11 active torsions:
REMARK  status: ('A' for Active; 'I' for Inactive)
REMARK    1  A    between atoms: C_1  and  C_7 
REMARK    2  A    between atoms: C_1  and  C_11 
REMARK    3  A    between atoms: C_8  and  C_13 
REMARK    4  A    between atoms: C_8  and  O_14 
REMARK       I    between atoms: C_11  and  N_12 
REMARK    5  A    between atoms: N_12  and  C_13 
REMARK    6  A    between atoms: C_18  and  N_19 
REMARK    7  A    between atoms: N_19  and  C_20 
REMARK    8  A    between atoms: C_20  and  C_21 
REMARK    9  A    between atoms: C_28  and  C_29 
REMARK   10  A    between atoms: C_29  and  O_30 
REMARK   11  A    between atoms: C_31  and  O_32 
ROOT
HETATM    1  C           1      27.244  42.303  52.579  0.00  0.00     0.012 A 
HETATM    2  C           1      26.693  43.944  49.369  0.00  0.00     0.016 C 
HETATM    3  C           1      26.070  42.645  49.946  0.00  0.00    -0.030 C 
HETATM    4  C           1      25.291  43.025  51.247  0.00  0.00     0.056 C 
HETATM    5  C           1      26.477  39.188  49.544  0.00  0.00     0.020 C 
HETATM    6  C           1      26.290  43.203  52.352  0.00  0.00     0.056 A 
HETATM    7  S           1      28.079  42.727  53.705  0.00  0.00    -0.055 SA
HETATM    8  C           1      27.318  43.963  53.945  0.00  0.00     0.167 A 
HETATM    9  N           1      26.353  44.173  53.151  0.00  0.00    -0.228 NA
HETATM   10  C           1      27.345  41.112  51.679  0.00  0.00     0.055 C 
HETATM   11  C           1      27.212  41.590  50.210  0.00  0.00     0.012 C 
HETATM   12  C           1      27.359  40.412  49.192  0.00  0.00     0.008 C 
HETATM   13  C           1      27.015  40.871  47.762  0.00  0.00     0.128 C 
HETATM   14  C           1      25.706  41.642  47.599  0.00  0.00     0.033 C 
HETATM   15  C           1      25.065  42.101  48.912  0.00  0.00     0.013 C 
ENDROOT
BRANCH   4  16
HETATM   16  C           1      24.306  44.211  51.190  0.00  0.00     0.114 C 
BRANCH  16  17
HETATM   17  C           1      23.026  43.903  50.421  0.00  0.00     0.218 C 
HETATM   18  N           1      22.701  44.840  49.478  0.00  0.00    -0.359 N 
HETATM   19  H           1      23.343  45.620  49.334  0.00  0.00     0.162 HD
HETATM   20  O           1      22.357  42.922  50.638  0.00  0.00    -0.274 OA
BRANCH  18  21
HETATM   21  C           1      21.477  44.785  48.671  0.00  0.00     0.148 C 
BRANCH  21  22
HETATM   22  C           1      21.801  44.149  47.319  0.00  0.00     0.186 C 
BRANCH  22  23
HETATM   23  O           1      21.578  42.763  47.400  0.00  0.00    -0.394 OA
HETATM   24  C           1      22.008  42.084  46.240  0.00  0.00     0.201 C 
ENDBRANCH  22  23
ENDBRANCH  21  22
ENDBRANCH  18  21
ENDBRANCH  16  17
ENDBRANCH   4  16
BRANCH  12  25
HETATM   25  C           1      28.825  39.907  49.220  0.00  0.00     0.176 C 
BRANCH  25  26
HETATM   26  O           1      28.883  38.532  49.543  0.00  0.00    -0.400 OA
HETATM   27  H           1      29.545  38.388  50.223  0.00  0.00     0.209 HD
ENDBRANCH  25  26
ENDBRANCH  12  25
BRANCH   8  28
HETATM   28  N           1      27.685  44.722  54.890  0.00  0.00    -0.365 N 
HETATM   29  H           1      27.070  44.784  55.740  0.00  0.00     0.162 HD
BRANCH  28  30
HETATM   30  C           1      28.927  45.525  54.874  0.00  0.00     0.160 C 
BRANCH  30  31
HETATM   31  C           1      29.788  45.179  56.068  0.00  0.00    -0.041 A 
HETATM   32  C           1      29.687  45.883  57.211  0.00  0.00     0.009 A 
HETATM   33  C           1      30.462  45.604  58.270  0.00  0.00     0.001 A 
HETATM   34  C           1      31.355  44.607  58.202  0.00  0.00     0.000 A 
HETATM   35  C           1      31.464  43.892  57.072  0.00  0.00     0.001 A 
HETATM   36  C           1      30.687  44.179  56.016  0.00  0.00     0.009 A 
ENDBRANCH  30  31
ENDBRANCH  28  30
ENDBRANCH   8  28
BRANCH  13  37
HETATM   37  O           1      28.087  41.631  47.253  0.00  0.00    -0.395 OA
HETATM   38  H           1      28.457  41.151  46.505  0.00  0.00     0.210 HD
ENDBRANCH  13  37
TORSDOF 11
ENDMDL
MODEL 4
REMARK VINA RESULT:      -7.5      5.386      9.564
REMARK  11 active torsions:
REMARK  status: ('A' for Active; 'I' for Inactive)
REMARK    1  A    between atoms: C_1  and  C_7 
REMARK    2  A    between atoms: C_1  and  C_11 
REMARK    3  A    between atoms: C_8  and  C_13 
REMARK    4  A    between atoms: C_8  and  O_14 
REMARK       I    between atoms: C_11  and  N_12 
REMARK    5  A    between atoms: N_12  and  C_13 
REMARK    6  A    between atoms: C_18  and  N_19 
REMARK    7  A    between atoms: N_19  and  C_20 
REMARK    8  A    between atoms: C_20  and  C_21 
REMARK    9  A    between atoms: C_28  and  C_29 
REMARK   10  A    between atoms: C_29  and  O_30 
REMARK   11  A    between atoms: C_31  and  O_32 
ROOT
HETATM    1  C           1      16.998  51.154  48.317  0.00  0.00     0.012 A 
HETATM    2  C           1      18.025  48.196  50.187  0.00  0.00     0.016 C 
HETATM    3  C           1      18.590  48.790  48.869  0.00  0.00    -0.030 C 
HETATM    4  C           1      19.120  50.227  49.181  0.00  0.00     0.056 C 
HETATM    5  C           1      18.392  48.110  45.437  0.00  0.00     0.020 C 
HETATM    6  C           1      17.941  51.151  49.256  0.00  0.00     0.056 A 
HETATM    7  S           1      15.968  52.143  48.641  0.00  0.00    -0.055 SA
HETATM    8  C           1      16.627  52.587  49.877  0.00  0.00     0.167 A 
HETATM    9  N           1      17.705  51.986  50.168  0.00  0.00    -0.228 NA
HETATM   10  C           1      17.099  50.178  47.187  0.00  0.00     0.055 C 
HETATM   11  C           1      17.462  48.786  47.767  0.00  0.00     0.012 C 
HETATM   12  C           1      17.537  47.688  46.657  0.00  0.00     0.008 C 
HETATM   13  C           1      18.101  46.370  47.221  0.00  0.00     0.128 C 
HETATM   14  C           1      19.388  46.484  48.038  0.00  0.00     0.033 C 
HETATM   15  C           1      19.778  47.913  48.424  0.00  0.00     0.013 C 
ENDROOT
BRANCH   4  16
HETATM   16  C           1      20.053  50.414  50.396  0.00  0.00     0.114 C 
BRANCH  16  17
HETATM   17  C           1      21.471  50.830  50.015  0.00  0.00     0.218 C 
HETATM   18  N           1      21.730  50.763  48.673  0.00  0.00    -0.359 N 
HETATM   19  H           1      20.970  50.496  48.048  0.00  0.00     0.162 HD
HETATM   20  O           1      22.289  51.177  50.832  0.00  0.00    -0.274 OA
BRANCH  18  21
HETATM   21  C           1      23.047  51.048  48.089  0.00  0.00     0.148 C 
BRANCH  21  22
HETATM   22  C           1      23.936  49.814  48.242  0.00  0.00     0.186 C 
BRANCH  22  23
HETATM   23  O           1      23.182  48.665  47.941  0.00  0.00    -0.394 OA
HETATM   24  C           1      23.401  47.624  48.869  0.00  0.00     0.201 C 
ENDBRANCH  22  23
ENDBRANCH  21  22
ENDBRANCH  18  21
ENDBRANCH  16  17
ENDBRANCH   4  16
BRANCH  12  25
HETATM   25  C           1      16.108  47.431  46.111  0.00  0.00     0.176 C 
BRANCH  25  26
HETATM   26  O           1      15.139  47.597  47.126  0.00  0.00    -0.400 OA
HETATM   27  H           1      14.776  48.484  47.083  0.00  0.00     0.209 HD
ENDBRANCH  25  26
ENDBRANCH  12  25
BRANCH   8  28
HETATM   28  N           1      16.075  53.500  50.561  0.00  0.00    -0.365 N 
HETATM   29  H           1      16.230  53.499  51.600  0.00  0.00     0.162 HD
BRANCH  28  30
HETATM   30  C           1      15.228  54.568  49.987  0.00  0.00     0.160 C 
BRANCH  30  31
HETATM   31  C           1      15.185  55.757  50.920  0.00  0.00    -0.041 A 
HETATM   32  C           1      15.254  57.010  50.435  0.00  0.00     0.009 A 
HETATM   33  C           1      15.242  58.074  51.252  0.00  0.00     0.001 A 
HETATM   34  C           1      15.157  57.898  52.578  0.00  0.00     0.000 A 
HETATM   35  C           1      15.082  56.655  53.078  0.00  0.00     0.001 A 
HETATM   36  C           1      15.097  55.596  52.254  0.00  0.00     0.009 A 
ENDBRANCH  30  31
ENDBRANCH  28  30
ENDBRANCH   8  28
BRANCH  13  37
HETATM   37  O           1      17.103  45.731  47.985  0.00  0.00    -0.395 OA
HETATM   38  H           1      17.346  45.816  48.912  0.00  0.00     0.210 HD
ENDBRANCH  13  37
TORSDOF 11
ENDMDL
MODEL 5
REMARK VINA RESULT:      -7.4      2.742      4.049
REMARK  11 active torsions:
REMARK  status: ('A' for Active; 'I' for Inactive)
REMARK    1  A    between atoms: C_1  and  C_7 
REMARK    2  A    between atoms: C_1  and  C_11 
REMARK    3  A    between atoms: C_8  and  C_13 
REMARK    4  A    between atoms: C_8  and  O_14 
REMARK       I    between atoms: C_11  and  N_12 
REMARK    5  A    between atoms: N_12  and  C_13 
REMARK    6  A    between atoms: C_18  and  N_19 
REMARK    7  A    between atoms: N_19  and  C_20 
REMARK    8  A    between atoms: C_20  and  C_21 
REMARK    9  A    between atoms: C_28  and  C_29 
REMARK   10  A    between atoms: C_29  and  O_30 
REMARK   11  A    between atoms: C_31  and  O_32 
ROOT
HETATM    1  C           1      22.231  45.950  47.405  0.00  0.00     0.012 A 
HETATM    2  C           1      22.746  43.325  49.884  0.00  0.00     0.016 C 
HETATM    3  C           1      23.513  43.619  48.567  0.00  0.00    -0.030 C 
HETATM    4  C           1      24.140  45.046  48.688  0.00  0.00     0.056 C 
HETATM    5  C           1      23.645  42.328  45.312  0.00  0.00     0.020 C 
HETATM    6  C           1      23.056  46.053  48.445  0.00  0.00     0.056 A 
HETATM    7  S           1      21.271  47.056  47.413  0.00  0.00    -0.055 SA
HETATM    8  C           1      21.824  47.673  48.627  0.00  0.00     0.167 A 
HETATM    9  N           1      22.799  47.059  49.157  0.00  0.00    -0.228 NA
HETATM   10  C           1      22.366  44.776  46.487  0.00  0.00     0.055 C 
HETATM   11  C           1      22.523  43.494  47.345  0.00  0.00     0.012 C 
HETATM   12  C           1      22.618  42.205  46.466  0.00  0.00     0.008 C 
HETATM   13  C           1      22.985  40.978  47.321  0.00  0.00     0.128 C 
HETATM   14  C           1      24.174  41.146  48.265  0.00  0.00     0.033 C 
HETATM   15  C           1      24.653  42.589  48.442  0.00  0.00     0.013 C 
ENDROOT
BRANCH   4  16
HETATM   16  C           1      24.942  45.387  49.961  0.00  0.00     0.114 C 
BRANCH  16  17
HETATM   17  C           1      26.200  46.205  49.687  0.00  0.00     0.218 C 
HETATM   18  N           1      26.020  47.558  49.795  0.00  0.00    -0.359 N 
HETATM   19  H           1      25.104  47.900  50.086  0.00  0.00     0.162 HD
HETATM   20  O           1      27.255  45.699  49.392  0.00  0.00    -0.274 OA
BRANCH  18  21
HETATM   21  C           1      27.072  48.539  49.506  0.00  0.00     0.148 C 
BRANCH  21  22
HETATM   22  C           1      26.553  49.535  48.469  0.00  0.00     0.186 C 
BRANCH  22  23
HETATM   23  O           1      25.198  49.261  48.209  0.00  0.00    -0.394 OA
HETATM   24  C           1      24.392  50.415  48.303  0.00  0.00     0.201 C 
ENDBRANCH  22  23
ENDBRANCH  21  22
ENDBRANCH  18  21
ENDBRANCH  16  17
ENDBRANCH   4  16
BRANCH  12  25
HETATM   25  C           1      21.243  41.957  45.792  0.00  0.00     0.176 C 
BRANCH  25  26
HETATM   26  O           1      20.185  42.384  46.626  0.00  0.00    -0.400 OA
HETATM   27  H           1      20.471  42.372  47.542  0.00  0.00     0.209 HD
ENDBRANCH  25  26
ENDBRANCH  12  25
BRANCH   8  28
HETATM   28  N           1      21.288  48.736  49.061  0.00  0.00    -0.365 N 
HETATM   29  H           1      21.849  49.623  49.020  0.00  0.00     0.162 HD
BRANCH  28  30
HETATM   30  C           1      19.921  48.806  49.620  0.00  0.00     0.160 C 
BRANCH  30  31
HETATM   31  C           1      19.335  50.182  49.395  0.00  0.00    -0.041 A 
HETATM   32  C           1      19.959  51.068  48.597  0.00  0.00     0.009 A 
HETATM   33  C           1      19.465  52.301  48.409  0.00  0.00     0.001 A 
HETATM   34  C           1      18.328  52.667  49.019  0.00  0.00     0.000 A 
HETATM   35  C           1      17.692  51.794  49.813  0.00  0.00     0.001 A 
HETATM   36  C           1      18.194  50.563  49.999  0.00  0.00     0.009 A 
ENDBRANCH  30  31
ENDBRANCH  28  30
ENDBRANCH   8  28
BRANCH  13  37
HETATM   37  O           1      21.849  40.568  48.049  0.00  0.00    -0.395 OA
HETATM   38  H           1      21.675  41.236  48.720  0.00  0.00     0.210 HD
ENDBRANCH  13  37
TORSDOF 11
ENDMDL
MODEL 6
REMARK VINA RESULT:      -7.2      4.158      9.340
REMARK  11 active torsions:
REMARK  status: ('A' for Active; 'I' for Inactive)
REMARK    1  A    between atoms: C_1  and  C_7 
REMARK    2  A    between atoms: C_1  and  C_11 
REMARK    3  A    between atoms: C_8  and  C_13 
REMARK    4  A    between atoms: C_8  and  O_14 
REMARK       I    between atoms: C_11  and  N_12 
REMARK    5  A    between atoms: N_12  and  C_13 
REMARK    6  A    between atoms: C_18  and  N_19 
REMARK    7  A    between atoms: N_19  and  C_20 
REMARK    8  A    between atoms: C_20  and  C_21 
REMARK    9  A    between atoms: C_28  and  C_29 
REMARK   10  A    between atoms: C_29  and  O_30 
REMARK   11  A    between atoms: C_31  and  O_32 
ROOT
HETATM    1  C           1      22.037  49.113  48.348  0.00  0.00     0.012 A 
HETATM    2  C           1      19.093  48.160  50.280  0.00  0.00     0.016 C 
HETATM    3  C           1      19.241  48.447  48.762  0.00  0.00    -0.030 C 
HETATM    4  C           1      20.254  47.410  48.176  0.00  0.00     0.056 C 
HETATM    5  C           1      18.507  51.059  46.545  0.00  0.00     0.020 C 
HETATM    6  C           1      21.639  47.857  48.538  0.00  0.00     0.056 A 
HETATM    7  S           1      23.423  49.275  48.792  0.00  0.00    -0.055 SA
HETATM    8  C           1      23.574  47.869  49.195  0.00  0.00     0.167 A 
HETATM    9  N           1      22.544  47.144  49.044  0.00  0.00    -0.228 NA
HETATM   10  C           1      21.060  50.108  47.805  0.00  0.00     0.055 C 
HETATM   11  C           1      19.713  49.938  48.555  0.00  0.00     0.012 C 
HETATM   12  C           1      18.643  50.977  48.086  0.00  0.00     0.008 C 
HETATM   13  C           1      17.261  50.656  48.685  0.00  0.00     0.128 C 
HETATM   14  C           1      16.788  49.209  48.551  0.00  0.00     0.033 C 
HETATM   15  C           1      17.867  48.221  48.100  0.00  0.00     0.013 C 
ENDROOT
BRANCH   4  16
HETATM   16  C           1      20.046  45.917  48.507  0.00  0.00     0.114 C 
BRANCH  16  17
HETATM   17  C           1      19.553  45.094  47.321  0.00  0.00     0.218 C 
HETATM   18  N           1      20.003  45.541  46.108  0.00  0.00    -0.359 N 
HETATM   19  H           1      20.647  46.331  46.093  0.00  0.00     0.162 HD
HETATM   20  O           1      18.824  44.142  47.448  0.00  0.00    -0.274 OA
BRANCH  18  21
HETATM   21  C           1      19.600  44.946  44.827  0.00  0.00     0.148 C 
BRANCH  21  22
HETATM   22  C           1      18.889  46.008  43.987  0.00  0.00     0.186 C 
BRANCH  22  23
HETATM   23  O           1      18.994  47.251  44.636  0.00  0.00    -0.394 OA
HETATM   24  C           1      18.078  48.197  44.129  0.00  0.00     0.201 C 
ENDBRANCH  22  23
ENDBRANCH  21  22
ENDBRANCH  18  21
ENDBRANCH  16  17
ENDBRANCH   4  16
BRANCH  12  25
HETATM   25  C           1      19.080  52.390  48.554  0.00  0.00     0.176 C 
BRANCH  25  26
HETATM   26  O           1      17.966  53.252  48.675  0.00  0.00    -0.400 OA
HETATM   27  H           1      18.267  54.160  48.745  0.00  0.00     0.209 HD
ENDBRANCH  25  26
ENDBRANCH  12  25
BRANCH   8  28
HETATM   28  N           1      24.685  47.495  49.674  0.00  0.00    -0.365 N 
HETATM   29  H           1      25.434  48.220  49.807  0.00  0.00     0.162 HD
BRANCH  28  30
HETATM   30  C           1      24.994  46.102  50.062  0.00  0.00     0.160 C 
BRANCH  30  31
HETATM   31  C           1      25.269  46.022  51.547  0.00  0.00    -0.041 A 
HETATM   32  C           1      25.763  47.085  52.209  0.00  0.00     0.009 A 
HETATM   33  C           1      26.036  47.020  53.521  0.00  0.00     0.001 A 
HETATM   34  C           1      25.814  45.884  54.196  0.00  0.00     0.000 A 
HETATM   35  C           1      25.317  44.817  53.552  0.00  0.00     0.001 A 
HETATM   36  C           1      25.049  44.888  52.239  0.00  0.00     0.009 A 
ENDBRANCH  30  31
ENDBRANCH  28  30
ENDBRANCH   8  28
BRANCH  13  37
HETATM   37  O           1      17.246  51.042  50.041  0.00  0.00    -0.395 OA
HETATM   38  H           1      16.460  50.660  50.445  0.00  0.00     0.210 HD
ENDBRANCH  13  37
TORSDOF 11
ENDMDL
MODEL 7
REMARK VINA RESULT:      -7.0     10.314     12.938
REMARK  11 active torsions:
REMARK  status: ('A' for Active; 'I' for Inactive)
REMARK    1  A    between atoms: C_1  and  C_7 
REMARK    2  A    between atoms: C_1  and  C_11 
REMARK    3  A    between atoms: C_8  and  C_13 
REMARK    4  A    between atoms: C_8  and  O_14 
REMARK       I    between atoms: C_11  and  N_12 
REMARK    5  A    between atoms: N_12  and  C_13 
REMARK    6  A    between atoms: C_18  and  N_19 
REMARK    7  A    between atoms: N_19  and  C_20 
REMARK    8  A    between atoms: C_20  and  C_21 
REMARK    9  A    between atoms: C_28  and  C_29 
REMARK   10  A    between atoms: C_29  and  O_30 
REMARK   11  A    between atoms: C_31  and  O_32 
ROOT
HETATM    1  C           1      28.228  47.702  40.230  0.00  0.00     0.012 A 
HETATM    2  C           1      26.476  49.002  37.307  0.00  0.00     0.016 C 
HETATM    3  C           1      26.036  48.951  38.794  0.00  0.00    -0.030 C 
HETATM    4  C           1      27.058  49.793  39.624  0.00  0.00     0.056 C 
HETATM    5  C           1      23.902  47.016  40.789  0.00  0.00     0.020 C 
HETATM    6  C           1      28.294  48.966  39.817  0.00  0.00     0.056 A 
HETATM    7  S           1      29.575  47.133  40.326  0.00  0.00    -0.055 SA
HETATM    8  C           1      30.247  48.369  39.899  0.00  0.00     0.167 A 
HETATM    9  N           1      29.479  49.339  39.617  0.00  0.00    -0.228 NA
HETATM   10  C           1      26.885  47.085  40.460  0.00  0.00     0.055 C 
HETATM   11  C           1      25.963  47.448  39.267  0.00  0.00     0.012 C 
HETATM   12  C           1      24.547  46.798  39.398  0.00  0.00     0.008 C 
HETATM   13  C           1      23.588  47.340  38.321  0.00  0.00     0.128 C 
HETATM   14  C           1      23.537  48.859  38.169  0.00  0.00     0.033 C 
HETATM   15  C           1      24.649  49.615  38.901  0.00  0.00     0.013 C 
ENDROOT
BRANCH   4  16
HETATM   16  C           1      27.409  51.212  39.130  0.00  0.00     0.114 C 
BRANCH  16  17
HETATM   17  C           1      28.112  52.066  40.180  0.00  0.00     0.218 C 
HETATM   18  N           1      29.359  52.490  39.810  0.00  0.00    -0.359 N 
HETATM   19  H           1      29.691  52.252  38.876  0.00  0.00     0.162 HD
HETATM   20  O           1      27.611  52.330  41.246  0.00  0.00    -0.274 OA
BRANCH  18  21
HETATM   21  C           1      30.245  53.263  40.690  0.00  0.00     0.148 C 
BRANCH  21  22
HETATM   22  C           1      31.698  52.926  40.353  0.00  0.00     0.186 C 
BRANCH  22  23
HETATM   23  O           1      31.736  51.698  39.668  0.00  0.00    -0.394 OA
HETATM   24  C           1      32.779  51.650  38.718  0.00  0.00     0.201 C 
ENDBRANCH  22  23
ENDBRANCH  21  22
ENDBRANCH  18  21
ENDBRANCH  16  17
ENDBRANCH   4  16
BRANCH  12  25
HETATM   25  C           1      24.684  45.263  39.225  0.00  0.00     0.176 C 
BRANCH  25  26
HETATM   26  O           1      23.417  44.651  39.096  0.00  0.00    -0.400 OA
HETATM   27  H           1      23.226  44.136  39.883  0.00  0.00     0.209 HD
ENDBRANCH  25  26
ENDBRANCH  12  25
BRANCH   8  28
HETATM   28  N           1      31.511  48.373  39.823  0.00  0.00    -0.365 N 
HETATM   29  H           1      31.949  48.680  38.919  0.00  0.00     0.162 HD
BRANCH  28  30
HETATM   30  C           1      32.409  47.974  40.928  0.00  0.00     0.160 C 
BRANCH  30  31
HETATM   31  C           1      32.762  49.176  41.774  0.00  0.00    -0.041 A 
HETATM   32  C           1      31.894  49.651  42.686  0.00  0.00     0.009 A 
HETATM   33  C           1      32.183  50.733  43.424  0.00  0.00     0.001 A 
HETATM   34  C           1      33.357  51.359  43.263  0.00  0.00     0.000 A 
HETATM   35  C           1      34.236  50.896  42.362  0.00  0.00     0.001 A 
HETATM   36  C           1      33.938  49.814  41.624  0.00  0.00     0.009 A 
ENDBRANCH  30  31
ENDBRANCH  28  30
ENDBRANCH   8  28
BRANCH  13  37
HETATM   37  O           1      23.903  46.744  37.083  0.00  0.00    -0.395 OA
HETATM   38  H           1      24.109  47.450  36.463  0.00  0.00     0.210 HD
ENDBRANCH  13  37
TORSDOF 11
ENDMDL
MODEL 8
REMARK VINA RESULT:      -7.0      3.854      9.478
REMARK  11 active torsions:
REMARK  status: ('A' for Active; 'I' for Inactive)
REMARK    1  A    between atoms: C_1  and  C_7 
REMARK    2  A    between atoms: C_1  and  C_11 
REMARK    3  A    between atoms: C_8  and  C_13 
REMARK    4  A    between atoms: C_8  and  O_14 
REMARK       I    between atoms: C_11  and  N_12 
REMARK    5  A    between atoms: N_12  and  C_13 
REMARK    6  A    between atoms: C_18  and  N_19 
REMARK    7  A    between atoms: N_19  and  C_20 
REMARK    8  A    between atoms: C_20  and  C_21 
REMARK    9  A    between atoms: C_28  and  C_29 
REMARK   10  A    between atoms: C_29  and  O_30 
REMARK   11  A    between atoms: C_31  and  O_32 
ROOT
HETATM    1  C           1      21.986  48.533  48.239  0.00  0.00     0.012 A 
HETATM    2  C           1      18.947  47.985  50.180  0.00  0.00     0.016 C 
HETATM    3  C           1      19.131  48.211  48.656  0.00  0.00    -0.030 C 
HETATM    4  C           1      20.016  47.047  48.104  0.00  0.00     0.056 C 
HETATM    5  C           1      18.712  50.829  46.365  0.00  0.00     0.020 C 
HETATM    6  C           1      21.443  47.338  48.460  0.00  0.00     0.056 A 
HETATM    7  S           1      23.381  48.543  48.685  0.00  0.00    -0.055 SA
HETATM    8  C           1      23.365  47.141  49.127  0.00  0.00     0.167 A 
HETATM    9  N           1      22.258  46.538  48.990  0.00  0.00    -0.228 NA
HETATM   10  C           1      21.133  49.620  47.664  0.00  0.00     0.055 C 
HETATM   11  C           1      19.774  49.630  48.411  0.00  0.00     0.012 C 
HETATM   12  C           1      18.834  50.774  47.908  0.00  0.00     0.008 C 
HETATM   13  C           1      17.423  50.634  48.509  0.00  0.00     0.128 C 
HETATM   14  C           1      16.784  49.250  48.411  0.00  0.00     0.033 C 
HETATM   15  C           1      17.741  48.130  47.993  0.00  0.00     0.013 C 
ENDROOT
BRANCH   4  16
HETATM   16  C           1      19.633  45.599  48.474  0.00  0.00     0.114 C 
BRANCH  16  17
HETATM   17  C           1      19.138  44.778  47.288  0.00  0.00     0.218 C 
HETATM   18  N           1      20.139  44.266  46.508  0.00  0.00    -0.359 N 
HETATM   19  H           1      21.104  44.425  46.796  0.00  0.00     0.162 HD
HETATM   20  O           1      17.966  44.608  47.057  0.00  0.00    -0.274 OA
BRANCH  18  21
HETATM   21  C           1      19.895  43.505  45.275  0.00  0.00     0.148 C 
BRANCH  21  22
HETATM   22  C           1      20.179  42.026  45.540  0.00  0.00     0.186 C 
BRANCH  22  23
HETATM   23  O           1      21.020  41.914  46.662  0.00  0.00    -0.394 OA
HETATM   24  C           1      22.227  41.247  46.361  0.00  0.00     0.201 C 
ENDBRANCH  22  23
ENDBRANCH  21  22
ENDBRANCH  18  21
ENDBRANCH  16  17
ENDBRANCH   4  16
BRANCH  12  25
HETATM   25  C           1      19.433  52.139  48.340  0.00  0.00     0.176 C 
BRANCH  25  26
HETATM   26  O           1      18.525  53.192  48.093  0.00  0.00    -0.400 OA
HETATM   27  H           1      18.241  53.575  48.926  0.00  0.00     0.209 HD
ENDBRANCH  25  26
ENDBRANCH  12  25
BRANCH   8  28
HETATM   28  N           1      24.423  46.653  49.622  0.00  0.00    -0.365 N 
HETATM   29  H           1      24.696  45.678  49.339  0.00  0.00     0.162 HD
BRANCH  28  30
HETATM   30  C           1      25.302  47.370  50.571  0.00  0.00     0.160 C 
BRANCH  30  31
HETATM   31  C           1      25.439  46.580  51.854  0.00  0.00    -0.041 A 
HETATM   32  C           1      25.092  45.280  51.897  0.00  0.00     0.009 A 
HETATM   33  C           1      25.184  44.574  53.034  0.00  0.00     0.001 A 
HETATM   34  C           1      25.630  45.161  54.153  0.00  0.00     0.000 A 
HETATM   35  C           1      25.984  46.455  54.125  0.00  0.00     0.001 A 
HETATM   36  C           1      25.887  47.156  52.985  0.00  0.00     0.009 A 
ENDBRANCH  30  31
ENDBRANCH  28  30
ENDBRANCH   8  28
BRANCH  13  37
HETATM   37  O           1      17.452  51.056  49.854  0.00  0.00    -0.395 OA
HETATM   38  H           1      16.968  50.407  50.374  0.00  0.00     0.210 HD
ENDBRANCH  13  37
TORSDOF 11
ENDMDL
MODEL 9
REMARK VINA RESULT:      -6.8      3.797      6.616
REMARK  11 active torsions:
REMARK  status: ('A' for Active; 'I' for Inactive)
REMARK    1  A    between atoms: C_1  and  C_7 
REMARK    2  A    between atoms: C_1  and  C_11 
REMARK    3  A    between atoms: C_8  and  C_13 
REMARK    4  A    between atoms: C_8  and  O_14 
REMARK       I    between atoms: C_11  and  N_12 
REMARK    5  A    between atoms: N_12  and  C_13 
REMARK    6  A    between atoms: C_18  and  N_19 
REMARK    7  A    between atoms: N_19  and  C_20 
REMARK    8  A    between atoms: C_20  and  C_21 
REMARK    9  A    between atoms: C_28  and  C_29 
REMARK   10  A    between atoms: C_29  and  O_30 
REMARK   11  A    between atoms: C_31  and  O_32 
ROOT
HETATM    1  C           1      26.813  41.316  50.728  0.00  0.00     0.012 A 
HETATM    2  C           1      27.358  40.850  47.152  0.00  0.00     0.016 C 
HETATM    3  C           1      26.447  40.065  48.133  0.00  0.00    -0.030 C 
HETATM    4  C           1      25.398  41.067  48.716  0.00  0.00     0.056 C 
HETATM    5  C           1      26.519  37.002  49.833  0.00  0.00     0.020 C 
HETATM    6  C           1      26.074  41.884  49.777  0.00  0.00     0.056 A 
HETATM    7  S           1      27.357  42.341  51.622  0.00  0.00    -0.055 SA
HETATM    8  C           1      26.718  43.457  50.910  0.00  0.00     0.167 A 
HETATM    9  N           1      26.037  43.137  49.889  0.00  0.00    -0.228 NA
HETATM   10  C           1      27.006  39.832  50.705  0.00  0.00     0.055 C 
HETATM   11  C           1      27.336  39.399  49.253  0.00  0.00     0.012 C 
HETATM   12  C           1      27.607  37.863  49.144  0.00  0.00     0.008 C 
HETATM   13  C           1      27.722  37.425  47.672  0.00  0.00     0.128 C 
HETATM   14  C           1      26.611  37.904  46.739  0.00  0.00     0.033 C 
HETATM   15  C           1      25.700  38.984  47.327  0.00  0.00     0.013 C 
ENDROOT
BRANCH   4  16
HETATM   16  C           1      24.619  41.965  47.733  0.00  0.00     0.114 C 
BRANCH  16  17
HETATM   17  C           1      23.238  42.368  48.240  0.00  0.00     0.218 C 
HETATM   18  N           1      23.126  43.694  48.558  0.00  0.00    -0.359 N 
HETATM   19  H           1      23.930  44.299  48.392  0.00  0.00     0.162 HD
HETATM   20  O           1      22.333  41.579  48.358  0.00  0.00    -0.274 OA
BRANCH  18  21
HETATM   21  C           1      21.912  44.289  49.130  0.00  0.00     0.148 C 
BRANCH  21  22
HETATM   22  C           1      21.169  45.055  48.036  0.00  0.00     0.186 C 
BRANCH  22  23
HETATM   23  O           1      20.031  44.321  47.656  0.00  0.00    -0.394 OA
HETATM   24  C           1      20.156  43.773  46.361  0.00  0.00     0.201 C 
ENDBRANCH  22  23
ENDBRANCH  21  22
ENDBRANCH  18  21
ENDBRANCH  16  17
ENDBRANCH   4  16
BRANCH  12  25
HETATM   25  C           1      28.937  37.537  49.873  0.00  0.00     0.176 C 
BRANCH  25  26
HETATM   26  O           1      28.744  36.552  50.867  0.00  0.00    -0.400 OA
HETATM   27  H           1      29.594  36.256  51.198  0.00  0.00     0.209 HD
ENDBRANCH  25  26
ENDBRANCH  12  25
BRANCH   8  28
HETATM   28  N           1      26.906  44.634  51.341  0.00  0.00    -0.365 N 
HETATM   29  H           1      27.790  45.126  51.059  0.00  0.00     0.162 HD
BRANCH  28  30
HETATM   30  C           1      25.958  45.358  52.215  0.00  0.00     0.160 C 
BRANCH  30  31
HETATM   31  C           1      26.684  45.933  53.410  0.00  0.00    -0.041 A 
HETATM   32  C           1      26.438  47.191  53.819  0.00  0.00     0.009 A 
HETATM   33  C           1      27.094  47.723  54.862  0.00  0.00     0.001 A 
HETATM   34  C           1      28.009  46.997  55.518  0.00  0.00     0.000 A 
HETATM   35  C           1      28.262  45.739  55.127  0.00  0.00     0.001 A 
HETATM   36  C           1      27.604  45.214  54.080  0.00  0.00     0.009 A 
ENDBRANCH  30  31
ENDBRANCH  28  30
ENDBRANCH   8  28
BRANCH  13  37
HETATM   37  O           1      28.977  37.825  47.170  0.00  0.00    -0.395 OA
HETATM   38  H           1      29.655  37.413  47.715  0.00  0.00     0.210 HD
ENDBRANCH  13  37
TORSDOF 11
ENDMDL
MODEL 10
REMARK VINA RESULT:      -6.7      5.145      7.298
REMARK  11 active torsions:
REMARK  status: ('A' for Active; 'I' for Inactive)
REMARK    1  A    between atoms: C_1  and  C_7 
REMARK    2  A    between atoms: C_1  and  C_11 
REMARK    3  A    between atoms: C_8  and  C_13 
REMARK    4  A    between atoms: C_8  and  O_14 
REMARK       I    between atoms: C_11  and  N_12 
REMARK    5  A    between atoms: N_12  and  C_13 
REMARK    6  A    between atoms: C_18  and  N_19 
REMARK    7  A    between atoms: N_19  and  C_20 
REMARK    8  A    between atoms: C_20  and  C_21 
REMARK    9  A    between atoms: C_28  and  C_29 
REMARK   10  A    between atoms: C_29  and  O_30 
REMARK   11  A    between atoms: C_31  and  O_32 
ROOT
HETATM    1  C           1      26.263  43.160  50.069  0.00  0.00     0.012 A 
HETATM    2  C           1      26.470  39.680  51.141  0.00  0.00     0.016 C 
HETATM    3  C           1      27.432  40.509  50.249  0.00  0.00    -0.030 C 
HETATM    4  C           1      27.968  41.702  51.105  0.00  0.00     0.056 C 
HETATM    5  C           1      28.160  40.825  46.836  0.00  0.00     0.020 C 
HETATM    6  C           1      26.897  42.750  51.164  0.00  0.00     0.056 A 
HETATM    7  S           1      25.268  44.178  50.414  0.00  0.00    -0.055 SA
HETATM    8  C           1      25.584  44.158  51.849  0.00  0.00     0.167 A 
HETATM    9  N           1      26.482  43.334  52.199  0.00  0.00    -0.228 NA
HETATM   10  C           1      26.599  42.523  48.757  0.00  0.00     0.055 C 
HETATM   11  C           1      26.666  40.987  48.956  0.00  0.00     0.012 C 
HETATM   12  C           1      26.962  40.232  47.619  0.00  0.00     0.008 C 
HETATM   13  C           1      27.233  38.738  47.875  0.00  0.00     0.128 C 
HETATM   14  C           1      28.240  38.417  48.978  0.00  0.00     0.033 C 
HETATM   15  C           1      28.621  39.605  49.866  0.00  0.00     0.013 C 
ENDROOT
BRANCH   4  16
HETATM   16  C           1      28.531  41.400  52.509  0.00  0.00     0.114 C 
BRANCH  16  17
HETATM   17  C           1      29.542  42.434  52.995  0.00  0.00     0.218 C 
HETATM   18  N           1      29.769  42.400  54.345  0.00  0.00    -0.359 N 
HETATM   19  H           1      29.299  41.681  54.894  0.00  0.00     0.162 HD
HETATM   20  O           1      30.082  43.216  52.252  0.00  0.00    -0.274 OA
BRANCH  18  21
HETATM   21  C           1      30.647  43.348  55.041  0.00  0.00     0.148 C 
BRANCH  21  22
HETATM   22  C           1      30.780  42.922  56.503  0.00  0.00     0.186 C 
BRANCH  22  23
HETATM   23  O           1      31.703  43.768  57.145  0.00  0.00    -0.394 OA
HETATM   24  C           1      31.074  44.673  58.027  0.00  0.00     0.201 C 
ENDBRANCH  22  23
ENDBRANCH  21  22
ENDBRANCH  18  21
ENDBRANCH  16  17
ENDBRANCH   4  16
BRANCH  12  25
HETATM   25  C           1      25.730  40.368  46.685  0.00  0.00     0.176 C 
BRANCH  25  26
HETATM   26  O           1      26.019  41.204  45.583  0.00  0.00    -0.400 OA
HETATM   27  H           1      25.359  41.898  45.523  0.00  0.00     0.209 HD
ENDBRANCH  25  26
ENDBRANCH  12  25
BRANCH   8  28
HETATM   28  N           1      24.938  44.928  52.620  0.00  0.00    -0.365 N 
HETATM   29  H           1      24.237  45.581  52.189  0.00  0.00     0.162 HD
BRANCH  28  30
HETATM   30  C           1      25.106  44.963  54.089  0.00  0.00     0.160 C 
BRANCH  30  31
HETATM   31  C           1      26.274  45.850  54.459  0.00  0.00    -0.041 A 
HETATM   32  C           1      26.181  47.187  54.345  0.00  0.00     0.009 A 
HETATM   33  C           1      27.217  47.984  54.645  0.00  0.00     0.001 A 
HETATM   34  C           1      28.371  47.451  55.070  0.00  0.00     0.000 A 
HETATM   35  C           1      28.479  46.120  55.195  0.00  0.00     0.001 A 
HETATM   36  C           1      27.438  45.328  54.889  0.00  0.00     0.009 A 
ENDBRANCH  30  31
ENDBRANCH  28  30
ENDBRANCH   8  28
BRANCH  13  37
HETATM   37  O           1      26.010  38.087  48.137  0.00  0.00    -0.395 OA
HETATM   38  H           1      25.445  38.705  48.611  0.00  0.00     0.210 HD
ENDBRANCH  13  37
TORSDOF 11
ENDMDL
