MODEL 1
REMARK VINA RESULT:      -8.8      0.000      0.000
REMARK  5 active torsions:
REMARK  status: ('A' for Active; 'I' for Inactive)
REMARK    1  A    between atoms: C_2  and  O_3 
REMARK    2  A    between atoms: O_3  and  C_4 
REMARK    3  A    between atoms: C_4  and  C_5 
REMARK    4  A    between atoms: C_6  and  N_7 
REMARK    5  A    between atoms: N_8  and  C_9 
ROOT
HETATM    1  C   UNL     1      26.317  45.618  52.461  1.00  0.00     0.084 A 
HETATM    2  C   UNL     1      27.061  44.462  52.085  1.00  0.00     0.119 A 
HETATM    3  N   UNL     1      28.032  43.993  52.944  1.00  0.00    -0.312 N 
HETATM    4  C   UNL     1      28.310  44.669  54.107  1.00  0.00     0.150 A 
HETATM    5  C   UNL     1      27.605  45.810  54.455  1.00  0.00     0.080 A 
HETATM    6  C   UNL     1      27.950  46.490  55.712  1.00  0.00     0.267 A 
HETATM    7  O   UNL     1      27.327  47.506  56.004  1.00  0.00    -0.267 OA
HETATM    8  N   UNL     1      28.968  45.919  56.470  1.00  0.00    -0.272 N 
HETATM    9  C   UNL     1      29.618  44.768  56.034  1.00  0.00     0.145 A 
HETATM   10  N   UNL     1      29.325  44.165  54.921  1.00  0.00    -0.211 NA
HETATM   11  C   UNL     1      29.319  46.528  57.669  1.00  0.00     0.102 A 
HETATM   12  C   UNL     1      30.288  46.039  58.451  1.00  0.00     0.018 A 
HETATM   13  C   UNL     1      30.995  44.852  58.058  1.00  0.00     0.012 A 
HETATM   14  C   UNL     1      30.706  44.216  56.912  1.00  0.00    -0.015 A 
HETATM   15  C   UNL     1      31.417  42.977  56.465  1.00  0.00     0.052 C 
HETATM   16  C   UNL     1      26.598  46.296  53.640  1.00  0.00     0.042 A 
ENDROOT
BRANCH   1  17
HETATM   17  C   UNL     1      25.269  46.143  51.546  1.00  0.00     0.297 C 
HETATM   18  O   UNL     1      24.356  45.450  51.129  1.00  0.00    -0.259 OA
BRANCH  17  19
HETATM   19  O   UNL     1      25.477  47.455  51.301  1.00  0.00    -0.318 OA
BRANCH  19  20
HETATM   20  C   UNL     1      25.529  47.844  49.916  1.00  0.00     0.174 C 
HETATM   21  C   UNL     1      26.950  48.220  49.547  1.00  0.00     0.034 C 
ENDBRANCH  19  20
ENDBRANCH  17  19
ENDBRANCH   1  17
BRANCH   2  22
HETATM   22  N   UNL     1      26.701  43.770  50.928  1.00  0.00    -0.384 N 
HETATM   23  H   UNL     1      26.468  42.778  51.082  1.00  0.00     0.157 HD
HETATM   24  H   UNL     1      26.157  44.162  50.178  1.00  0.00     0.157 HD
ENDBRANCH   2  22
BRANCH   3  25
HETATM   25  C   UNL     1      28.817  42.730  52.663  1.00  0.00     0.085 C 
HETATM   26  C   UNL     1      30.316  42.938  52.852  1.00  0.00     0.032 C 
HETATM   27  C   UNL     1      28.217  41.538  53.398  1.00  0.00     0.032 C 
ENDBRANCH   3  25
TORSDOF 5
ENDMDL
MODEL 2
REMARK VINA RESULT:      -8.0      3.143      5.495
REMARK  5 active torsions:
REMARK  status: ('A' for Active; 'I' for Inactive)
REMARK    1  A    between atoms: C_2  and  O_3 
REMARK    2  A    between atoms: O_3  and  C_4 
REMARK    3  A    between atoms: C_4  and  C_5 
REMARK    4  A    between atoms: C_6  and  N_7 
REMARK    5  A    between atoms: N_8  and  C_9 
ROOT
HETATM    1  C   UNL     1      27.992  41.600  50.690  1.00  0.00     0.084 A 
HETATM    2  C   UNL     1      26.856  42.382  50.329  1.00  0.00     0.119 A 
HETATM    3  N   UNL     1      26.564  43.506  51.071  1.00  0.00    -0.312 N 
HETATM    4  C   UNL     1      27.322  43.822  52.172  1.00  0.00     0.150 A 
HETATM    5  C   UNL     1      28.408  43.044  52.539  1.00  0.00     0.080 A 
HETATM    6  C   UNL     1      29.179  43.434  53.728  1.00  0.00     0.267 A 
HETATM    7  O   UNL     1      30.132  42.731  54.049  1.00  0.00    -0.267 OA
HETATM    8  N   UNL     1      28.757  44.579  54.397  1.00  0.00    -0.272 N 
HETATM    9  C   UNL     1      27.651  45.296  53.948  1.00  0.00     0.145 A 
HETATM   10  N   UNL     1      26.958  44.953  52.904  1.00  0.00    -0.211 NA
HETATM   11  C   UNL     1      29.464  44.985  55.522  1.00  0.00     0.102 A 
HETATM   12  C   UNL     1      29.119  46.074  56.217  1.00  0.00     0.018 A 
HETATM   13  C   UNL     1      27.988  46.858  55.806  1.00  0.00     0.012 A 
HETATM   14  C   UNL     1      27.261  46.520  54.729  1.00  0.00    -0.015 A 
HETATM   15  C   UNL     1      26.076  47.308  54.263  1.00  0.00     0.052 C 
HETATM   16  C   UNL     1      28.760  41.927  51.801  1.00  0.00     0.042 A 
ENDROOT
BRANCH   1  17
HETATM   17  C   UNL     1      28.322  40.382  49.905  1.00  0.00     0.297 C 
HETATM   18  O   UNL     1      28.346  40.375  48.686  1.00  0.00    -0.259 OA
BRANCH  17  19
HETATM   19  O   UNL     1      28.607  39.355  50.735  1.00  0.00    -0.318 OA
BRANCH  19  20
HETATM   20  C   UNL     1      29.291  38.232  50.147  1.00  0.00     0.174 C 
HETATM   21  C   UNL     1      29.950  37.411  51.238  1.00  0.00     0.034 C 
ENDBRANCH  19  20
ENDBRANCH  17  19
ENDBRANCH   1  17
BRANCH   2  22
HETATM   22  N   UNL     1      26.155  42.061  49.166  1.00  0.00    -0.384 N 
HETATM   23  H   UNL     1      25.129  42.094  49.266  1.00  0.00     0.157 HD
HETATM   24  H   UNL     1      26.441  42.326  48.238  1.00  0.00     0.157 HD
ENDBRANCH   2  22
BRANCH   3  25
HETATM   25  C   UNL     1      25.424  44.435  50.714  1.00  0.00     0.085 C 
HETATM   26  C   UNL     1      25.747  45.288  49.492  1.00  0.00     0.032 C 
HETATM   27  C   UNL     1      24.100  43.683  50.664  1.00  0.00     0.032 C 
ENDBRANCH   3  25
TORSDOF 5
ENDMDL
MODEL 3
REMARK VINA RESULT:      -7.9      2.028      3.186
REMARK  5 active torsions:
REMARK  status: ('A' for Active; 'I' for Inactive)
REMARK    1  A    between atoms: C_2  and  O_3 
REMARK    2  A    between atoms: O_3  and  C_4 
REMARK    3  A    between atoms: C_4  and  C_5 
REMARK    4  A    between atoms: C_6  and  N_7 
REMARK    5  A    between atoms: N_8  and  C_9 
ROOT
HETATM    1  C   UNL     1      24.583  46.577  50.468  1.00  0.00     0.084 A 
HETATM    2  C   UNL     1      24.930  45.256  50.058  1.00  0.00     0.119 A 
HETATM    3  N   UNL     1      25.797  44.528  50.843  1.00  0.00    -0.312 N 
HETATM    4  C   UNL     1      26.358  45.095  51.962  1.00  0.00     0.150 A 
HETATM    5  C   UNL     1      26.041  46.389  52.342  1.00  0.00     0.080 A 
HETATM    6  C   UNL     1      26.675  46.940  53.548  1.00  0.00     0.267 A 
HETATM    7  O   UNL     1      26.396  48.092  53.867  1.00  0.00    -0.267 OA
HETATM    8  N   UNL     1      27.550  46.100  54.231  1.00  0.00    -0.272 N 
HETATM    9  C   UNL     1      27.803  44.812  53.769  1.00  0.00     0.145 A 
HETATM   10  N   UNL     1      27.254  44.320  52.699  1.00  0.00    -0.211 NA
HETATM   11  C   UNL     1      28.165  46.582  55.381  1.00  0.00     0.102 A 
HETATM   12  C   UNL     1      29.018  45.835  56.090  1.00  0.00     0.018 A 
HETATM   13  C   UNL     1      29.320  44.496  55.667  1.00  0.00     0.012 A 
HETATM   14  C   UNL     1      28.762  43.970  54.565  1.00  0.00    -0.015 A 
HETATM   15  C   UNL     1      29.046  42.580  54.090  1.00  0.00     0.052 C 
HETATM   16  C   UNL     1      25.148  47.145  51.603  1.00  0.00     0.042 A 
ENDROOT
BRANCH   1  17
HETATM   17  C   UNL     1      23.652  47.381  49.632  1.00  0.00     0.297 C 
HETATM   18  O   UNL     1      22.749  46.876  48.987  1.00  0.00    -0.259 OA
BRANCH  17  19
HETATM   19  O   UNL     1      23.947  48.695  49.737  1.00  0.00    -0.318 OA
BRANCH  19  20
HETATM   20  C   UNL     1      24.547  49.307  48.581  1.00  0.00     0.174 C 
HETATM   21  C   UNL     1      23.635  50.398  48.053  1.00  0.00     0.034 C 
ENDBRANCH  19  20
ENDBRANCH  17  19
ENDBRANCH   1  17
BRANCH   2  22
HETATM   22  N   UNL     1      24.287  44.698  48.953  1.00  0.00    -0.384 N 
HETATM   23  H   UNL     1      24.838  44.725  48.083  1.00  0.00     0.157 HD
HETATM   24  H   UNL     1      23.699  43.881  48.990  1.00  0.00     0.157 HD
ENDBRANCH   2  22
BRANCH   3  25
HETATM   25  C   UNL     1      26.161  43.093  50.527  1.00  0.00     0.085 C 
HETATM   26  C   UNL     1      24.956  42.164  50.633  1.00  0.00     0.032 C 
HETATM   27  C   UNL     1      26.953  43.003  49.229  1.00  0.00     0.032 C 
ENDBRANCH   3  25
TORSDOF 5
ENDMDL
MODEL 4
REMARK VINA RESULT:      -7.8     13.302     15.814
REMARK  5 active torsions:
REMARK  status: ('A' for Active; 'I' for Inactive)
REMARK    1  A    between atoms: C_2  and  O_3 
REMARK    2  A    between atoms: O_3  and  C_4 
REMARK    3  A    between atoms: C_4  and  C_5 
REMARK    4  A    between atoms: C_6  and  N_7 
REMARK    5  A    between atoms: N_8  and  C_9 
ROOT
HETATM    1  C   UNL     1      32.388  50.903  41.211  1.00  0.00     0.084 A 
HETATM    2  C   UNL     1      31.288  51.755  40.899  1.00  0.00     0.119 A 
HETATM    3  N   UNL     1      30.136  51.188  40.397  1.00  0.00    -0.312 N 
HETATM    4  C   UNL     1      30.082  49.838  40.148  1.00  0.00     0.150 A 
HETATM    5  C   UNL     1      31.164  49.017  40.425  1.00  0.00     0.080 A 
HETATM    6  C   UNL     1      31.045  47.581  40.135  1.00  0.00     0.267 A 
HETATM    7  O   UNL     1      32.014  46.867  40.374  1.00  0.00    -0.267 OA
HETATM    8  N   UNL     1      29.832  47.150  39.606  1.00  0.00    -0.272 N 
HETATM    9  C   UNL     1      28.802  48.055  39.364  1.00  0.00     0.145 A 
HETATM   10  N   UNL     1      28.901  49.327  39.609  1.00  0.00    -0.211 NA
HETATM   11  C   UNL     1      29.677  45.798  39.326  1.00  0.00     0.102 A 
HETATM   12  C   UNL     1      28.542  45.309  38.815  1.00  0.00     0.018 A 
HETATM   13  C   UNL     1      27.440  46.190  38.544  1.00  0.00     0.012 A 
HETATM   14  C   UNL     1      27.524  47.506  38.791  1.00  0.00    -0.015 A 
HETATM   15  C   UNL     1      26.402  48.460  38.525  1.00  0.00     0.052 C 
HETATM   16  C   UNL     1      32.327  49.538  40.963  1.00  0.00     0.042 A 
ENDROOT
BRANCH   1  17
HETATM   17  C   UNL     1      33.641  51.495  41.750  1.00  0.00     0.297 C 
HETATM   18  O   UNL     1      34.292  52.322  41.134  1.00  0.00    -0.259 OA
BRANCH  17  19
HETATM   19  O   UNL     1      33.896  51.006  42.983  1.00  0.00    -0.318 OA
BRANCH  19  20
HETATM   20  C   UNL     1      33.867  51.957  44.063  1.00  0.00     0.174 C 
HETATM   21  C   UNL     1      32.504  51.931  44.726  1.00  0.00     0.034 C 
ENDBRANCH  19  20
ENDBRANCH  17  19
ENDBRANCH   1  17
BRANCH   2  22
HETATM   22  N   UNL     1      31.362  53.108  41.229  1.00  0.00    -0.384 N 
HETATM   23  H   UNL     1      30.672  53.701  40.746  1.00  0.00     0.157 HD
HETATM   24  H   UNL     1      31.565  53.458  42.151  1.00  0.00     0.157 HD
ENDBRANCH   2  22
BRANCH   3  25
HETATM   25  C   UNL     1      28.894  52.004  40.109  1.00  0.00     0.085 C 
HETATM   26  C   UNL     1      28.296  52.597  41.381  1.00  0.00     0.032 C 
HETATM   27  C   UNL     1      29.137  52.988  38.972  1.00  0.00     0.032 C 
ENDBRANCH   3  25
TORSDOF 5
ENDMDL
MODEL 5
REMARK VINA RESULT:      -7.8      2.553      4.203
REMARK  5 active torsions:
REMARK  status: ('A' for Active; 'I' for Inactive)
REMARK    1  A    between atoms: C_2  and  O_3 
REMARK    2  A    between atoms: O_3  and  C_4 
REMARK    3  A    between atoms: C_4  and  C_5 
REMARK    4  A    between atoms: C_6  and  N_7 
REMARK    5  A    between atoms: N_8  and  C_9 
ROOT
HETATM    1  C   UNL     1      27.696  43.305  51.498  1.00  0.00     0.084 A 
HETATM    2  C   UNL     1      26.772  44.242  52.045  1.00  0.00     0.119 A 
HETATM    3  N   UNL     1      27.058  44.816  53.266  1.00  0.00    -0.312 N 
HETATM    4  C   UNL     1      28.182  44.440  53.959  1.00  0.00     0.150 A 
HETATM    5  C   UNL     1      29.065  43.507  53.437  1.00  0.00     0.080 A 
HETATM    6  C   UNL     1      30.249  43.145  54.228  1.00  0.00     0.267 A 
HETATM    7  O   UNL     1      31.017  42.309  53.761  1.00  0.00    -0.267 OA
HETATM    8  N   UNL     1      30.400  43.787  55.454  1.00  0.00    -0.272 N 
HETATM    9  C   UNL     1      29.457  44.712  55.892  1.00  0.00     0.145 A 
HETATM   10  N   UNL     1      28.403  45.032  55.203  1.00  0.00    -0.211 NA
HETATM   11  C   UNL     1      31.512  43.477  56.229  1.00  0.00     0.102 A 
HETATM   12  C   UNL     1      31.724  44.050  57.418  1.00  0.00     0.018 A 
HETATM   13  C   UNL     1      30.790  45.016  57.925  1.00  0.00     0.012 A 
HETATM   14  C   UNL     1      29.695  45.359  57.228  1.00  0.00    -0.015 A 
HETATM   15  C   UNL     1      28.696  46.360  57.717  1.00  0.00     0.052 C 
HETATM   16  C   UNL     1      28.836  42.932  52.200  1.00  0.00     0.042 A 
ENDROOT
BRANCH   1  17
HETATM   17  C   UNL     1      27.404  42.670  50.185  1.00  0.00     0.297 C 
HETATM   18  O   UNL     1      27.073  43.316  49.205  1.00  0.00    -0.259 OA
BRANCH  17  19
HETATM   19  O   UNL     1      27.593  41.335  50.260  1.00  0.00    -0.318 OA
BRANCH  19  20
HETATM   20  C   UNL     1      27.402  40.596  49.039  1.00  0.00     0.174 C 
HETATM   21  C   UNL     1      28.749  40.195  48.472  1.00  0.00     0.034 C 
ENDBRANCH  19  20
ENDBRANCH  17  19
ENDBRANCH   1  17
BRANCH   2  22
HETATM   22  N   UNL     1      25.678  44.643  51.278  1.00  0.00    -0.384 N 
HETATM   23  H   UNL     1      24.872  44.975  51.829  1.00  0.00     0.157 HD
HETATM   24  H   UNL     1      25.748  45.130  50.400  1.00  0.00     0.157 HD
ENDBRANCH   2  22
BRANCH   3  25
HETATM   25  C   UNL     1      26.173  45.876  53.886  1.00  0.00     0.085 C 
HETATM   26  C   UNL     1      26.087  47.125  53.017  1.00  0.00     0.032 C 
HETATM   27  C   UNL     1      24.840  45.284  54.328  1.00  0.00     0.032 C 
ENDBRANCH   3  25
TORSDOF 5
ENDMDL
MODEL 6
REMARK VINA RESULT:      -7.7      3.858      7.347
REMARK  5 active torsions:
REMARK  status: ('A' for Active; 'I' for Inactive)
REMARK    1  A    between atoms: C_2  and  O_3 
REMARK    2  A    between atoms: O_3  and  C_4 
REMARK    3  A    between atoms: C_4  and  C_5 
REMARK    4  A    between atoms: C_6  and  N_7 
REMARK    5  A    between atoms: N_8  and  C_9 
ROOT
HETATM    1  C   UNL     1      27.383  40.595  50.252  1.00  0.00     0.084 A 
HETATM    2  C   UNL     1      28.086  41.181  51.345  1.00  0.00     0.119 A 
HETATM    3  N   UNL     1      27.766  42.468  51.722  1.00  0.00    -0.312 N 
HETATM    4  C   UNL     1      26.832  43.183  51.012  1.00  0.00     0.150 A 
HETATM    5  C   UNL     1      26.172  42.620  49.931  1.00  0.00     0.080 A 
HETATM    6  C   UNL     1      25.185  43.437  49.211  1.00  0.00     0.267 A 
HETATM    7  O   UNL     1      24.616  42.932  48.249  1.00  0.00    -0.267 OA
HETATM    8  N   UNL     1      24.980  44.729  49.687  1.00  0.00    -0.272 N 
HETATM    9  C   UNL     1      25.693  45.204  50.783  1.00  0.00     0.145 A 
HETATM   10  N   UNL     1      26.574  44.492  51.420  1.00  0.00    -0.211 NA
HETATM   11  C   UNL     1      24.049  45.531  49.037  1.00  0.00     0.102 A 
HETATM   12  C   UNL     1      23.798  46.783  49.434  1.00  0.00     0.018 A 
HETATM   13  C   UNL     1      24.499  47.332  50.561  1.00  0.00     0.012 A 
HETATM   14  C   UNL     1      25.412  46.611  51.231  1.00  0.00    -0.015 A 
HETATM   15  C   UNL     1      26.165  47.142  52.411  1.00  0.00     0.052 C 
HETATM   16  C   UNL     1      26.436  41.319  49.540  1.00  0.00     0.042 A 
ENDROOT
BRANCH   1  17
HETATM   17  C   UNL     1      27.716  39.209  49.827  1.00  0.00     0.297 C 
HETATM   18  O   UNL     1      26.871  38.335  49.724  1.00  0.00    -0.259 OA
BRANCH  17  19
HETATM   19  O   UNL     1      29.036  39.107  49.559  1.00  0.00    -0.318 OA
BRANCH  19  20
HETATM   20  C   UNL     1      29.580  37.774  49.536  1.00  0.00     0.174 C 
HETATM   21  C   UNL     1      29.981  37.366  50.940  1.00  0.00     0.034 C 
ENDBRANCH  19  20
ENDBRANCH  17  19
ENDBRANCH   1  17
BRANCH   2  22
HETATM   22  N   UNL     1      28.977  40.397  52.077  1.00  0.00    -0.384 N 
HETATM   23  H   UNL     1      28.536  39.619  52.590  1.00  0.00     0.157 HD
HETATM   24  H   UNL     1      29.905  40.154  51.771  1.00  0.00     0.157 HD
ENDBRANCH   2  22
BRANCH   3  25
HETATM   25  C   UNL     1      28.405  43.142  52.917  1.00  0.00     0.085 C 
HETATM   26  C   UNL     1      27.789  42.673  54.230  1.00  0.00     0.032 C 
HETATM   27  C   UNL     1      29.925  43.070  52.837  1.00  0.00     0.032 C 
ENDBRANCH   3  25
TORSDOF 5
ENDMDL
MODEL 7
REMARK VINA RESULT:      -7.7      2.549      6.788
REMARK  5 active torsions:
REMARK  status: ('A' for Active; 'I' for Inactive)
REMARK    1  A    between atoms: C_2  and  O_3 
REMARK    2  A    between atoms: O_3  and  C_4 
REMARK    3  A    between atoms: C_4  and  C_5 
REMARK    4  A    between atoms: C_6  and  N_7 
REMARK    5  A    between atoms: N_8  and  C_9 
ROOT
HETATM    1  C   UNL     1      28.536  45.157  55.029  1.00  0.00     0.084 A 
HETATM    2  C   UNL     1      27.523  45.957  54.424  1.00  0.00     0.119 A 
HETATM    3  N   UNL     1      26.923  45.501  53.269  1.00  0.00    -0.312 N 
HETATM    4  C   UNL     1      27.344  44.329  52.689  1.00  0.00     0.150 A 
HETATM    5  C   UNL     1      28.349  43.568  53.265  1.00  0.00     0.080 A 
HETATM    6  C   UNL     1      28.755  42.325  52.595  1.00  0.00     0.267 A 
HETATM    7  O   UNL     1      29.655  41.665  53.108  1.00  0.00    -0.267 OA
HETATM    8  N   UNL     1      28.080  41.999  51.423  1.00  0.00    -0.272 N 
HETATM    9  C   UNL     1      27.081  42.830  50.924  1.00  0.00     0.145 A 
HETATM   10  N   UNL     1      26.721  43.935  51.505  1.00  0.00    -0.211 NA
HETATM   11  C   UNL     1      28.430  40.826  50.764  1.00  0.00     0.102 A 
HETATM   12  C   UNL     1      27.828  40.447  49.632  1.00  0.00     0.018 A 
HETATM   13  C   UNL     1      26.788  41.260  49.066  1.00  0.00     0.012 A 
HETATM   14  C   UNL     1      26.402  42.404  49.652  1.00  0.00    -0.015 A 
HETATM   15  C   UNL     1      25.323  43.281  49.099  1.00  0.00     0.052 C 
HETATM   16  C   UNL     1      28.954  43.969  54.442  1.00  0.00     0.042 A 
ENDROOT
BRANCH   1  17
HETATM   17  C   UNL     1      29.198  45.633  56.273  1.00  0.00     0.297 C 
HETATM   18  O   UNL     1      28.593  46.219  57.154  1.00  0.00    -0.259 OA
BRANCH  17  19
HETATM   19  O   UNL     1      30.505  45.290  56.266  1.00  0.00    -0.318 OA
BRANCH  19  20
HETATM   20  C   UNL     1      30.999  44.640  57.451  1.00  0.00     0.174 C 
HETATM   21  C   UNL     1      31.724  43.366  57.065  1.00  0.00     0.034 C 
ENDBRANCH  19  20
ENDBRANCH  17  19
ENDBRANCH   1  17
BRANCH   2  22
HETATM   22  N   UNL     1      27.082  47.106  55.082  1.00  0.00    -0.384 N 
HETATM   23  H   UNL     1      27.377  47.170  56.067  1.00  0.00     0.157 HD
HETATM   24  H   UNL     1      27.022  48.016  54.657  1.00  0.00     0.157 HD
ENDBRANCH   2  22
BRANCH   3  25
HETATM   25  C   UNL     1      25.788  46.246  52.601  1.00  0.00     0.085 C 
HETATM   26  C   UNL     1      26.286  47.161  51.487  1.00  0.00     0.032 C 
HETATM   27  C   UNL     1      24.659  45.296  52.221  1.00  0.00     0.032 C 
ENDBRANCH   3  25
TORSDOF 5
ENDMDL
MODEL 8
REMARK VINA RESULT:      -7.7      3.178      4.971
REMARK  5 active torsions:
REMARK  status: ('A' for Active; 'I' for Inactive)
REMARK    1  A    between atoms: C_2  and  O_3 
REMARK    2  A    between atoms: O_3  and  C_4 
REMARK    3  A    between atoms: C_4  and  C_5 
REMARK    4  A    between atoms: C_6  and  N_7 
REMARK    5  A    between atoms: N_8  and  C_9 
ROOT
HETATM    1  C   UNL     1      27.084  42.024  49.503  1.00  0.00     0.084 A 
HETATM    2  C   UNL     1      28.027  41.523  50.447  1.00  0.00     0.119 A 
HETATM    3  N   UNL     1      28.213  42.214  51.625  1.00  0.00    -0.312 N 
HETATM    4  C   UNL     1      27.543  43.393  51.847  1.00  0.00     0.150 A 
HETATM    5  C   UNL     1      26.648  43.893  50.913  1.00  0.00     0.080 A 
HETATM    6  C   UNL     1      25.964  45.160  51.208  1.00  0.00     0.267 A 
HETATM    7  O   UNL     1      25.184  45.598  50.369  1.00  0.00    -0.267 OA
HETATM    8  N   UNL     1      26.266  45.762  52.426  1.00  0.00    -0.272 N 
HETATM    9  C   UNL     1      27.180  45.180  53.299  1.00  0.00     0.145 A 
HETATM   10  N   UNL     1      27.796  44.065  53.043  1.00  0.00    -0.211 NA
HETATM   11  C   UNL     1      25.634  46.958  52.745  1.00  0.00     0.102 A 
HETATM   12  C   UNL     1      25.873  47.597  53.895  1.00  0.00     0.018 A 
HETATM   13  C   UNL     1      26.804  47.048  54.840  1.00  0.00     0.012 A 
HETATM   14  C   UNL     1      27.450  45.897  54.593  1.00  0.00    -0.015 A 
HETATM   15  C   UNL     1      28.427  45.287  55.549  1.00  0.00     0.052 C 
HETATM   16  C   UNL     1      26.404  43.213  49.733  1.00  0.00     0.042 A 
ENDROOT
BRANCH   1  17
HETATM   17  C   UNL     1      26.871  41.295  48.224  1.00  0.00     0.297 C 
HETATM   18  O   UNL     1      27.614  41.426  47.264  1.00  0.00    -0.259 OA
BRANCH  17  19
HETATM   19  O   UNL     1      25.794  40.486  48.320  1.00  0.00    -0.318 OA
BRANCH  19  20
HETATM   20  C   UNL     1      24.710  40.759  47.413  1.00  0.00     0.174 C 
HETATM   21  C   UNL     1      23.533  41.324  48.184  1.00  0.00     0.034 C 
ENDBRANCH  19  20
ENDBRANCH  17  19
ENDBRANCH   1  17
BRANCH   2  22
HETATM   22  N   UNL     1      28.634  40.290  50.210  1.00  0.00    -0.384 N 
HETATM   23  H   UNL     1      29.298  39.996  50.942  1.00  0.00     0.157 HD
HETATM   24  H   UNL     1      28.171  39.498  49.797  1.00  0.00     0.157 HD
ENDBRANCH   2  22
BRANCH   3  25
HETATM   25  C   UNL     1      29.135  41.716  52.716  1.00  0.00     0.085 C 
HETATM   26  C   UNL     1      30.209  42.741  53.064  1.00  0.00     0.032 C 
HETATM   27  C   UNL     1      28.341  41.165  53.894  1.00  0.00     0.032 C 
ENDBRANCH   3  25
TORSDOF 5
ENDMDL
MODEL 9
REMARK VINA RESULT:      -7.6      1.745      2.325
REMARK  5 active torsions:
REMARK  status: ('A' for Active; 'I' for Inactive)
REMARK    1  A    between atoms: C_2  and  O_3 
REMARK    2  A    between atoms: O_3  and  C_4 
REMARK    3  A    between atoms: C_4  and  C_5 
REMARK    4  A    between atoms: C_6  and  N_7 
REMARK    5  A    between atoms: N_8  and  C_9 
ROOT
HETATM    1  C   UNL     1      24.968  43.986  51.378  1.00  0.00     0.084 A 
HETATM    2  C   UNL     1      25.935  42.970  51.124  1.00  0.00     0.119 A 
HETATM    3  N   UNL     1      27.041  42.891  51.944  1.00  0.00    -0.312 N 
HETATM    4  C   UNL     1      27.227  43.816  52.943  1.00  0.00     0.150 A 
HETATM    5  C   UNL     1      26.299  44.820  53.168  1.00  0.00     0.080 A 
HETATM    6  C   UNL     1      26.555  45.780  54.252  1.00  0.00     0.267 A 
HETATM    7  O   UNL     1      25.732  46.671  54.434  1.00  0.00    -0.267 OA
HETATM    8  N   UNL     1      27.724  45.595  54.985  1.00  0.00    -0.272 N 
HETATM    9  C   UNL     1      28.595  44.552  54.681  1.00  0.00     0.145 A 
HETATM   10  N   UNL     1      28.380  43.704  53.720  1.00  0.00    -0.211 NA
HETATM   11  C   UNL     1      27.998  46.477  56.022  1.00  0.00     0.102 A 
HETATM   12  C   UNL     1      29.101  46.365  56.770  1.00  0.00     0.018 A 
HETATM   13  C   UNL     1      30.040  45.309  56.509  1.00  0.00     0.012 A 
HETATM   14  C   UNL     1      29.835  44.424  55.521  1.00  0.00    -0.015 A 
HETATM   15  C   UNL     1      30.784  43.308  55.215  1.00  0.00     0.052 C 
HETATM   16  C   UNL     1      25.157  44.915  52.393  1.00  0.00     0.042 A 
ENDROOT
BRANCH   1  17
HETATM   17  C   UNL     1      23.770  44.091  50.502  1.00  0.00     0.297 C 
HETATM   18  O   UNL     1      22.691  43.614  50.809  1.00  0.00    -0.259 OA
BRANCH  17  19
HETATM   19  O   UNL     1      24.067  44.796  49.388  1.00  0.00    -0.318 OA
BRANCH  19  20
HETATM   20  C   UNL     1      23.261  45.963  49.140  1.00  0.00     0.174 C 
HETATM   21  C   UNL     1      23.999  47.199  49.615  1.00  0.00     0.034 C 
ENDBRANCH  19  20
ENDBRANCH  17  19
ENDBRANCH   1  17
BRANCH   2  22
HETATM   22  N   UNL     1      25.674  42.014  50.142  1.00  0.00    -0.384 N 
HETATM   23  H   UNL     1      26.174  41.123  50.274  1.00  0.00     0.157 HD
HETATM   24  H   UNL     1      24.774  41.870  49.716  1.00  0.00     0.157 HD
ENDBRANCH   2  22
BRANCH   3  25
HETATM   25  C   UNL     1      28.079  41.800  51.797  1.00  0.00     0.085 C 
HETATM   26  C   UNL     1      27.970  40.758  52.905  1.00  0.00     0.032 C 
HETATM   27  C   UNL     1      28.099  41.253  50.375  1.00  0.00     0.032 C 
ENDBRANCH   3  25
TORSDOF 5
ENDMDL
MODEL 10
REMARK VINA RESULT:      -7.5      3.708      5.070
REMARK  5 active torsions:
REMARK  status: ('A' for Active; 'I' for Inactive)
REMARK    1  A    between atoms: C_2  and  O_3 
REMARK    2  A    between atoms: O_3  and  C_4 
REMARK    3  A    between atoms: C_4  and  C_5 
REMARK    4  A    between atoms: C_6  and  N_7 
REMARK    5  A    between atoms: N_8  and  C_9 
ROOT
HETATM    1  C   UNL     1      23.988  42.049  49.497  1.00  0.00     0.084 A 
HETATM    2  C   UNL     1      25.125  41.267  49.139  1.00  0.00     0.119 A 
HETATM    3  N   UNL     1      26.273  41.388  49.892  1.00  0.00    -0.312 N 
HETATM    4  C   UNL     1      26.329  42.291  50.926  1.00  0.00     0.150 A 
HETATM    5  C   UNL     1      25.231  43.071  51.252  1.00  0.00     0.080 A 
HETATM    6  C   UNL     1      25.353  44.020  52.368  1.00  0.00     0.267 A 
HETATM    7  O   UNL     1      24.379  44.714  52.640  1.00  0.00    -0.267 OA
HETATM    8  N   UNL     1      26.580  44.054  53.025  1.00  0.00    -0.272 N 
HETATM    9  C   UNL     1      27.625  43.228  52.622  1.00  0.00     0.145 A 
HETATM   10  N   UNL     1      27.528  42.392  51.632  1.00  0.00    -0.211 NA
HETATM   11  C   UNL     1      26.734  44.934  54.090  1.00  0.00     0.102 A 
HETATM   12  C   UNL     1      27.881  45.024  54.770  1.00  0.00     0.018 A 
HETATM   13  C   UNL     1      28.998  44.197  54.405  1.00  0.00     0.012 A 
HETATM   14  C   UNL     1      28.916  43.328  53.385  1.00  0.00    -0.015 A 
HETATM   15  C   UNL     1      30.053  42.446  52.971  1.00  0.00     0.052 C 
HETATM   16  C   UNL     1      24.047  42.957  50.546  1.00  0.00     0.042 A 
ENDROOT
BRANCH   1  17
HETATM   17  C   UNL     1      22.741  41.937  48.694  1.00  0.00     0.297 C 
HETATM   18  O   UNL     1      22.264  40.861  48.372  1.00  0.00    -0.259 OA
BRANCH  17  19
HETATM   19  O   UNL     1      22.242  43.164  48.431  1.00  0.00    -0.318 OA
BRANCH  19  20
HETATM   20  C   UNL     1      22.321  43.604  47.063  1.00  0.00     0.174 C 
HETATM   21  C   UNL     1      20.940  43.572  46.440  1.00  0.00     0.034 C 
ENDBRANCH  19  20
ENDBRANCH  17  19
ENDBRANCH   1  17
BRANCH   2  22
HETATM   22  N   UNL     1      25.003  40.316  48.126  1.00  0.00    -0.384 N 
HETATM   23  H   UNL     1      25.857  40.182  47.565  1.00  0.00     0.157 HD
HETATM   24  H   UNL     1      24.481  39.460  48.210  1.00  0.00     0.157 HD
ENDBRANCH   2  22
BRANCH   3  25
HETATM   25  C   UNL     1      27.501  40.542  49.633  1.00  0.00     0.085 C 
HETATM   26  C   UNL     1      27.235  39.062  49.880  1.00  0.00     0.032 C 
HETATM   27  C   UNL     1      28.127  40.886  48.287  1.00  0.00     0.032 C 
ENDBRANCH   3  25
TORSDOF 5
ENDMDL
