MODEL 1
REMARK VINA RESULT:      -9.0      0.000      0.000
REMARK  8 active torsions:
REMARK  status: ('A' for Active; 'I' for Inactive)
REMARK    1  A    between atoms: C_3  and  C_4 
REMARK    2  A    between atoms: N_5  and  N_6 
REMARK    3  A    between atoms: C_17  and  C_18 
REMARK       I    between atoms: C_18  and  N_19 
REMARK    4  A    between atoms: N_19  and  C_20 
REMARK    5  A    between atoms: C_20  and  C_21 
REMARK    6  A    between atoms: C_21  and  C_22 
REMARK    7  A    between atoms: C_29  and  N_30 
REMARK    8  A    between atoms: C_31  and  O_32 
ROOT
HETATM    1  N   UNL     1      23.885  44.661  50.584  1.00  0.00    -0.202 N 
HETATM    2  C   UNL     1      24.555  45.785  50.148  1.00  0.00     0.183 A 
HETATM    3  C   UNL     1      25.920  45.509  50.179  1.00  0.00     0.124 A 
HETATM    4  N   UNL     1      26.830  46.446  49.807  1.00  0.00    -0.242 NA
HETATM    5  C   UNL     1      26.301  47.610  49.384  1.00  0.00     0.086 A 
HETATM    6  C   UNL     1      24.903  47.857  49.352  1.00  0.00     0.088 A 
HETATM    7  N   UNL     1      23.996  46.950  49.744  1.00  0.00    -0.225 NA
HETATM    8  C   UNL     1      27.158  48.619  48.958  1.00  0.00     0.034 A 
HETATM    9  C   UNL     1      26.677  49.850  48.503  1.00  0.00     0.002 A 
HETATM   10  C   UNL     1      25.310  50.083  48.474  1.00  0.00     0.002 A 
HETATM   11  C   UNL     1      24.437  49.082  48.900  1.00  0.00     0.034 A 
HETATM   12  C   UNL     1      26.084  44.176  50.636  1.00  0.00     0.104 A 
HETATM   13  C   UNL     1      24.809  43.663  50.845  1.00  0.00     0.123 A 
ENDROOT
BRANCH  12  14
HETATM   14  C   UNL     1      27.292  43.398  50.806  1.00  0.00     0.257 C 
HETATM   15  N   UNL     1      28.272  44.097  51.495  1.00  0.00    -0.356 N 
HETATM   16  H   UNL     1      28.086  45.086  51.601  1.00  0.00     0.162 HD
HETATM   17  O   UNL     1      27.365  42.209  50.526  1.00  0.00    -0.267 OA
BRANCH  15  18
HETATM   18  C   UNL     1      28.872  43.480  52.662  1.00  0.00     0.127 C 
BRANCH  18  19
HETATM   19  C   UNL     1      28.250  43.890  53.997  1.00  0.00     0.053 C 
BRANCH  19  20
HETATM   20  C   UNL     1      29.298  44.102  55.064  1.00  0.00    -0.082 C 
HETATM   21  C   UNL     1      29.178  45.359  55.888  1.00  0.00     0.034 C 
HETATM   22  C   UNL     1      30.450  45.699  56.667  1.00  0.00     0.005 C 
HETATM   23  C   UNL     1      31.053  44.459  57.320  1.00  0.00     0.004 C 
HETATM   24  C   UNL     1      31.377  43.387  56.280  1.00  0.00     0.027 C 
HETATM   25  C   UNL     1      30.298  43.220  55.250  1.00  0.00    -0.024 C 
ENDBRANCH  19  20
ENDBRANCH  18  19
ENDBRANCH  15  18
ENDBRANCH  12  14
BRANCH  13  26
HETATM   26  N   UNL     1      24.386  42.416  51.213  1.00  0.00    -0.286 NA
HETATM   27  H   UNL     1      24.993  41.890  51.844  1.00  0.00     0.125 HD
HETATM   28  H   UNL     1      24.087  41.814  50.440  1.00  0.00     0.125 HD
ENDBRANCH  13  26
BRANCH   1  29
HETATM   29  N   UNL     1      22.533  44.445  50.600  1.00  0.00    -0.176 NA
HETATM   30  C   UNL     1      22.024  43.925  49.524  1.00  0.00     0.153 C 
BRANCH  30  31
HETATM   31  C   UNL     1      22.666  43.710  48.220  1.00  0.00     0.016 A 
HETATM   32  C   UNL     1      23.153  42.439  47.915  1.00  0.00     0.016 A 
HETATM   33  C   UNL     1      23.647  42.181  46.636  1.00  0.00     0.001 A 
HETATM   34  C   UNL     1      23.615  43.180  45.661  1.00  0.00     0.003 A 
HETATM   35  C   UNL     1      23.117  44.448  45.969  1.00  0.00     0.037 A 
HETATM   36  C   UNL     1      22.659  44.720  47.255  1.00  0.00     0.077 A 
BRANCH  36  37
HETATM   37  O   UNL     1      22.211  45.987  47.499  1.00  0.00    -0.360 OA
HETATM   38  H   UNL     1      21.238  45.971  47.588  1.00  0.00     0.217 HD
ENDBRANCH  36  37
ENDBRANCH  30  31
ENDBRANCH   1  29
TORSDOF 8
ENDMDL
MODEL 2
REMARK VINA RESULT:      -8.9      2.830      4.526
REMARK  8 active torsions:
REMARK  status: ('A' for Active; 'I' for Inactive)
REMARK    1  A    between atoms: C_3  and  C_4 
REMARK    2  A    between atoms: N_5  and  N_6 
REMARK    3  A    between atoms: C_17  and  C_18 
REMARK       I    between atoms: C_18  and  N_19 
REMARK    4  A    between atoms: N_19  and  C_20 
REMARK    5  A    between atoms: C_20  and  C_21 
REMARK    6  A    between atoms: C_21  and  C_22 
REMARK    7  A    between atoms: C_29  and  N_30 
REMARK    8  A    between atoms: C_31  and  O_32 
ROOT
HETATM    1  N   UNL     1      21.897  46.723  47.910  1.00  0.00    -0.202 N 
HETATM    2  C   UNL     1      23.084  47.332  48.263  1.00  0.00     0.183 A 
HETATM    3  C   UNL     1      23.739  46.501  49.169  1.00  0.00     0.124 A 
HETATM    4  N   UNL     1      24.940  46.853  49.697  1.00  0.00    -0.242 NA
HETATM    5  C   UNL     1      25.433  48.023  49.246  1.00  0.00     0.086 A 
HETATM    6  C   UNL     1      24.747  48.842  48.311  1.00  0.00     0.088 A 
HETATM    7  N   UNL     1      23.547  48.519  47.805  1.00  0.00    -0.225 NA
HETATM    8  C   UNL     1      26.671  48.451  49.712  1.00  0.00     0.034 A 
HETATM    9  C   UNL     1      27.244  49.651  49.283  1.00  0.00     0.002 A 
HETATM   10  C   UNL     1      26.567  50.446  48.370  1.00  0.00     0.002 A 
HETATM   11  C   UNL     1      25.324  50.032  47.894  1.00  0.00     0.034 A 
HETATM   12  C   UNL     1      22.934  45.350  49.364  1.00  0.00     0.104 A 
HETATM   13  C   UNL     1      21.818  45.496  48.547  1.00  0.00     0.123 A 
ENDROOT
BRANCH  12  14
HETATM   14  C   UNL     1      23.181  44.174  50.171  1.00  0.00     0.257 C 
HETATM   15  N   UNL     1      24.533  43.968  50.396  1.00  0.00    -0.356 N 
HETATM   16  H   UNL     1      25.145  44.530  49.818  1.00  0.00     0.162 HD
HETATM   17  O   UNL     1      22.288  43.548  50.726  1.00  0.00    -0.267 OA
BRANCH  15  18
HETATM   18  C   UNL     1      24.991  43.808  51.762  1.00  0.00     0.127 C 
BRANCH  18  19
HETATM   19  C   UNL     1      25.891  44.933  52.274  1.00  0.00     0.053 C 
BRANCH  19  20
HETATM   20  C   UNL     1      27.184  44.401  52.847  1.00  0.00    -0.082 C 
HETATM   21  C   UNL     1      27.436  44.673  54.309  1.00  0.00     0.034 C 
HETATM   22  C   UNL     1      28.892  44.454  54.725  1.00  0.00     0.005 C 
HETATM   23  C   UNL     1      29.460  43.176  54.117  1.00  0.00     0.004 C 
HETATM   24  C   UNL     1      29.378  43.205  52.591  1.00  0.00     0.027 C 
HETATM   25  C   UNL     1      28.071  43.737  52.082  1.00  0.00    -0.024 C 
ENDBRANCH  19  20
ENDBRANCH  18  19
ENDBRANCH  15  18
ENDBRANCH  12  14
BRANCH  13  26
HETATM   26  N   UNL     1      20.768  44.658  48.294  1.00  0.00    -0.286 NA
HETATM   27  H   UNL     1      20.930  43.904  47.624  1.00  0.00     0.125 HD
HETATM   28  H   UNL     1      19.883  45.126  48.078  1.00  0.00     0.125 HD
ENDBRANCH  13  26
BRANCH   1  29
HETATM   29  N   UNL     1      21.000  47.126  46.958  1.00  0.00    -0.176 NA
HETATM   30  C   UNL     1      20.157  48.047  47.320  1.00  0.00     0.153 C 
BRANCH  30  31
HETATM   31  C   UNL     1      19.909  48.581  48.665  1.00  0.00     0.016 A 
HETATM   32  C   UNL     1      20.395  49.850  48.982  1.00  0.00     0.016 A 
HETATM   33  C   UNL     1      20.059  50.428  50.206  1.00  0.00     0.001 A 
HETATM   34  C   UNL     1      19.209  49.756  51.087  1.00  0.00     0.003 A 
HETATM   35  C   UNL     1      18.716  48.490  50.759  1.00  0.00     0.037 A 
HETATM   36  C   UNL     1      19.081  47.894  49.556  1.00  0.00     0.077 A 
BRANCH  36  37
HETATM   37  O   UNL     1      18.587  46.644  49.309  1.00  0.00    -0.360 OA
HETATM   38  H   UNL     1      18.272  46.601  48.385  1.00  0.00     0.217 HD
ENDBRANCH  36  37
ENDBRANCH  30  31
ENDBRANCH   1  29
TORSDOF 8
ENDMDL
MODEL 3
REMARK VINA RESULT:      -8.8      3.162      7.857
REMARK  8 active torsions:
REMARK  status: ('A' for Active; 'I' for Inactive)
REMARK    1  A    between atoms: C_3  and  C_4 
REMARK    2  A    between atoms: N_5  and  N_6 
REMARK    3  A    between atoms: C_17  and  C_18 
REMARK       I    between atoms: C_18  and  N_19 
REMARK    4  A    between atoms: N_19  and  C_20 
REMARK    5  A    between atoms: C_20  and  C_21 
REMARK    6  A    between atoms: C_21  and  C_22 
REMARK    7  A    between atoms: C_29  and  N_30 
REMARK    8  A    between atoms: C_31  and  O_32 
ROOT
HETATM    1  N   UNL     1      23.694  44.564  50.646  1.00  0.00    -0.202 N 
HETATM    2  C   UNL     1      24.610  44.965  51.597  1.00  0.00     0.183 A 
HETATM    3  C   UNL     1      25.050  46.242  51.256  1.00  0.00     0.124 A 
HETATM    4  N   UNL     1      25.971  46.889  52.016  1.00  0.00    -0.242 NA
HETATM    5  C   UNL     1      26.372  46.215  53.112  1.00  0.00     0.086 A 
HETATM    6  C   UNL     1      25.895  44.919  53.439  1.00  0.00     0.088 A 
HETATM    7  N   UNL     1      25.007  44.258  52.681  1.00  0.00    -0.225 NA
HETATM    8  C   UNL     1      27.294  46.812  53.964  1.00  0.00     0.034 A 
HETATM    9  C   UNL     1      27.750  46.172  55.120  1.00  0.00     0.002 A 
HETATM   10  C   UNL     1      27.278  44.906  55.433  1.00  0.00     0.002 A 
HETATM   11  C   UNL     1      26.355  44.292  54.588  1.00  0.00     0.034 A 
HETATM   12  C   UNL     1      24.375  46.633  50.072  1.00  0.00     0.104 A 
HETATM   13  C   UNL     1      23.516  45.593  49.736  1.00  0.00     0.123 A 
ENDROOT
BRANCH  12  14
HETATM   14  C   UNL     1      24.444  47.877  49.335  1.00  0.00     0.257 C 
HETATM   15  N   UNL     1      23.187  48.371  49.023  1.00  0.00    -0.356 N 
HETATM   16  H   UNL     1      22.429  47.716  49.171  1.00  0.00     0.162 HD
HETATM   17  O   UNL     1      25.487  48.495  49.168  1.00  0.00    -0.267 OA
BRANCH  15  18
HETATM   18  C   UNL     1      22.868  49.737  49.392  1.00  0.00     0.127 C 
BRANCH  18  19
HETATM   19  C   UNL     1      22.143  50.541  48.313  1.00  0.00     0.053 C 
BRANCH  19  20
HETATM   20  C   UNL     1      20.789  51.018  48.783  1.00  0.00    -0.082 C 
HETATM   21  C   UNL     1      20.230  50.353  50.015  1.00  0.00     0.034 C 
HETATM   22  C   UNL     1      18.732  50.598  50.212  1.00  0.00     0.005 C 
HETATM   23  C   UNL     1      18.365  52.054  49.944  1.00  0.00     0.004 C 
HETATM   24  C   UNL     1      18.757  52.473  48.527  1.00  0.00     0.027 C 
HETATM   25  C   UNL     1      20.112  51.974  48.119  1.00  0.00    -0.024 C 
ENDBRANCH  19  20
ENDBRANCH  18  19
ENDBRANCH  15  18
ENDBRANCH  12  14
BRANCH  13  26
HETATM   26  N   UNL     1      22.590  45.472  48.738  1.00  0.00    -0.286 NA
HETATM   27  H   UNL     1      22.721  44.704  48.077  1.00  0.00     0.125 HD
HETATM   28  H   UNL     1      22.388  46.336  48.227  1.00  0.00     0.125 HD
ENDBRANCH  13  26
BRANCH   1  29
HETATM   29  N   UNL     1      22.922  43.433  50.651  1.00  0.00    -0.176 NA
HETATM   30  C   UNL     1      23.536  42.321  50.380  1.00  0.00     0.153 C 
BRANCH  30  31
HETATM   31  C   UNL     1      24.905  42.130  49.882  1.00  0.00     0.016 A 
HETATM   32  C   UNL     1      25.857  41.574  50.737  1.00  0.00     0.016 A 
HETATM   33  C   UNL     1      27.125  41.264  50.245  1.00  0.00     0.001 A 
HETATM   34  C   UNL     1      27.421  41.473  48.896  1.00  0.00     0.003 A 
HETATM   35  C   UNL     1      26.460  42.019  48.042  1.00  0.00     0.037 A 
HETATM   36  C   UNL     1      25.207  42.366  48.539  1.00  0.00     0.077 A 
BRANCH  36  37
HETATM   37  O   UNL     1      24.323  42.921  47.658  1.00  0.00    -0.360 OA
HETATM   38  H   UNL     1      24.805  43.203  46.856  1.00  0.00     0.217 HD
ENDBRANCH  36  37
ENDBRANCH  30  31
ENDBRANCH   1  29
TORSDOF 8
ENDMDL
MODEL 4
REMARK VINA RESULT:      -8.7      4.215      7.476
REMARK  8 active torsions:
REMARK  status: ('A' for Active; 'I' for Inactive)
REMARK    1  A    between atoms: C_3  and  C_4 
REMARK    2  A    between atoms: N_5  and  N_6 
REMARK    3  A    between atoms: C_17  and  C_18 
REMARK       I    between atoms: C_18  and  N_19 
REMARK    4  A    between atoms: N_19  and  C_20 
REMARK    5  A    between atoms: C_20  and  C_21 
REMARK    6  A    between atoms: C_21  and  C_22 
REMARK    7  A    between atoms: C_29  and  N_30 
REMARK    8  A    between atoms: C_31  and  O_32 
ROOT
HETATM    1  N   UNL     1      20.379  48.882  49.670  1.00  0.00    -0.202 N 
HETATM    2  C   UNL     1      20.437  47.895  48.709  1.00  0.00     0.183 A 
HETATM    3  C   UNL     1      21.627  48.054  48.002  1.00  0.00     0.124 A 
HETATM    4  N   UNL     1      21.949  47.219  46.980  1.00  0.00    -0.242 NA
HETATM    5  C   UNL     1      21.056  46.236  46.752  1.00  0.00     0.086 A 
HETATM    6  C   UNL     1      19.858  46.092  47.500  1.00  0.00     0.088 A 
HETATM    7  N   UNL     1      19.515  46.928  48.492  1.00  0.00    -0.225 NA
HETATM    8  C   UNL     1      21.317  45.318  45.742  1.00  0.00     0.034 A 
HETATM    9  C   UNL     1      20.436  44.271  45.454  1.00  0.00     0.002 A 
HETATM   10  C   UNL     1      19.268  44.137  46.189  1.00  0.00     0.002 A 
HETATM   11  C   UNL     1      18.991  45.050  47.205  1.00  0.00     0.034 A 
HETATM   12  C   UNL     1      22.317  49.163  48.556  1.00  0.00     0.104 A 
HETATM   13  C   UNL     1      21.541  49.634  49.609  1.00  0.00     0.123 A 
ENDROOT
BRANCH  12  14
HETATM   14  C   UNL     1      23.609  49.715  48.211  1.00  0.00     0.257 C 
HETATM   15  N   UNL     1      24.572  49.432  49.167  1.00  0.00    -0.356 N 
HETATM   16  H   UNL     1      24.205  49.068  50.038  1.00  0.00     0.162 HD
HETATM   17  O   UNL     1      23.850  50.216  47.120  1.00  0.00    -0.267 OA
BRANCH  15  18
HETATM   18  C   UNL     1      25.810  48.809  48.741  1.00  0.00     0.127 C 
BRANCH  18  19
HETATM   19  C   UNL     1      26.690  48.287  49.877  1.00  0.00     0.053 C 
BRANCH  19  20
HETATM   20  C   UNL     1      26.092  47.066  50.534  1.00  0.00    -0.082 C 
HETATM   21  C   UNL     1      25.980  47.096  52.038  1.00  0.00     0.034 C 
HETATM   22  C   UNL     1      25.733  45.718  52.656  1.00  0.00     0.005 C 
HETATM   23  C   UNL     1      24.693  44.930  51.867  1.00  0.00     0.004 C 
HETATM   24  C   UNL     1      25.120  44.752  50.411  1.00  0.00     0.027 C 
HETATM   25  C   UNL     1      25.701  46.000  49.811  1.00  0.00    -0.024 C 
ENDBRANCH  19  20
ENDBRANCH  18  19
ENDBRANCH  15  18
ENDBRANCH  12  14
BRANCH  13  26
HETATM   26  N   UNL     1      21.763  50.629  50.520  1.00  0.00    -0.286 NA
HETATM   27  H   UNL     1      22.431  50.430  51.267  1.00  0.00     0.125 HD
HETATM   28  H   UNL     1      20.917  51.050  50.916  1.00  0.00     0.125 HD
ENDBRANCH  13  26
BRANCH   1  29
HETATM   29  N   UNL     1      19.449  49.031  50.664  1.00  0.00    -0.176 NA
HETATM   30  C   UNL     1      18.413  49.759  50.373  1.00  0.00     0.153 C 
BRANCH  30  31
HETATM   31  C   UNL     1      18.191  50.602  49.191  1.00  0.00     0.016 A 
HETATM   32  C   UNL     1      18.694  51.903  49.194  1.00  0.00     0.016 A 
HETATM   33  C   UNL     1      18.609  52.675  48.034  1.00  0.00     0.001 A 
HETATM   34  C   UNL     1      18.060  52.130  46.872  1.00  0.00     0.003 A 
HETATM   35  C   UNL     1      17.568  50.823  46.872  1.00  0.00     0.037 A 
HETATM   36  C   UNL     1      17.616  50.064  48.038  1.00  0.00     0.077 A 
BRANCH  36  37
HETATM   37  O   UNL     1      17.093  48.803  47.978  1.00  0.00    -0.360 OA
HETATM   38  H   UNL     1      17.073  48.509  47.047  1.00  0.00     0.217 HD
ENDBRANCH  36  37
ENDBRANCH  30  31
ENDBRANCH   1  29
TORSDOF 8
ENDMDL
MODEL 5
REMARK VINA RESULT:      -8.7      2.721      6.743
REMARK  8 active torsions:
REMARK  status: ('A' for Active; 'I' for Inactive)
REMARK    1  A    between atoms: C_3  and  C_4 
REMARK    2  A    between atoms: N_5  and  N_6 
REMARK    3  A    between atoms: C_17  and  C_18 
REMARK       I    between atoms: C_18  and  N_19 
REMARK    4  A    between atoms: N_19  and  C_20 
REMARK    5  A    between atoms: C_20  and  C_21 
REMARK    6  A    between atoms: C_21  and  C_22 
REMARK    7  A    between atoms: C_29  and  N_30 
REMARK    8  A    between atoms: C_31  and  O_32 
ROOT
HETATM    1  N   UNL     1      25.890  40.474  49.912  1.00  0.00    -0.202 N 
HETATM    2  C   UNL     1      26.512  41.354  50.773  1.00  0.00     0.183 A 
HETATM    3  C   UNL     1      25.955  42.615  50.573  1.00  0.00     0.124 A 
HETATM    4  N   UNL     1      26.384  43.689  51.285  1.00  0.00    -0.242 NA
HETATM    5  C   UNL     1      27.338  43.417  52.196  1.00  0.00     0.086 A 
HETATM    6  C   UNL     1      27.877  42.117  52.386  1.00  0.00     0.088 A 
HETATM    7  N   UNL     1      27.482  41.054  51.668  1.00  0.00    -0.225 NA
HETATM    8  C   UNL     1      27.819  44.452  52.991  1.00  0.00     0.034 A 
HETATM    9  C   UNL     1      28.804  44.239  53.959  1.00  0.00     0.002 A 
HETATM   10  C   UNL     1      29.326  42.967  54.138  1.00  0.00     0.002 A 
HETATM   11  C   UNL     1      28.856  41.918  53.348  1.00  0.00     0.034 A 
HETATM   12  C   UNL     1      24.959  42.496  49.570  1.00  0.00     0.104 A 
HETATM   13  C   UNL     1      24.914  41.155  49.204  1.00  0.00     0.123 A 
ENDROOT
BRANCH  12  14
HETATM   14  C   UNL     1      24.065  43.498  49.030  1.00  0.00     0.257 C 
HETATM   15  N   UNL     1      23.810  44.515  49.936  1.00  0.00    -0.356 N 
HETATM   16  H   UNL     1      24.109  44.318  50.883  1.00  0.00     0.162 HD
HETATM   17  O   UNL     1      23.725  43.523  47.854  1.00  0.00    -0.267 OA
BRANCH  15  18
HETATM   18  C   UNL     1      24.029  45.886  49.519  1.00  0.00     0.127 C 
BRANCH  18  19
HETATM   19  C   UNL     1      24.843  46.733  50.498  1.00  0.00     0.053 C 
BRANCH  19  20
HETATM   20  C   UNL     1      25.607  47.828  49.792  1.00  0.00    -0.082 C 
HETATM   21  C   UNL     1      24.783  48.886  49.100  1.00  0.00     0.034 C 
HETATM   22  C   UNL     1      25.587  49.727  48.106  1.00  0.00     0.005 C 
HETATM   23  C   UNL     1      26.943  50.124  48.679  1.00  0.00     0.004 C 
HETATM   24  C   UNL     1      27.763  48.894  49.066  1.00  0.00     0.027 C 
HETATM   25  C   UNL     1      26.953  47.843  49.768  1.00  0.00    -0.024 C 
ENDBRANCH  19  20
ENDBRANCH  18  19
ENDBRANCH  15  18
ENDBRANCH  12  14
BRANCH  13  26
HETATM   26  N   UNL     1      24.097  40.481  48.340  1.00  0.00    -0.286 NA
HETATM   27  H   UNL     1      24.418  40.392  47.375  1.00  0.00     0.125 HD
HETATM   28  H   UNL     1      23.116  40.776  48.352  1.00  0.00     0.125 HD
ENDBRANCH  13  26
BRANCH   1  29
HETATM   29  N   UNL     1      26.039  39.114  49.853  1.00  0.00    -0.176 NA
HETATM   30  C   UNL     1      26.780  38.661  48.887  1.00  0.00     0.153 C 
BRANCH  30  31
HETATM   31  C   UNL     1      27.328  39.390  47.736  1.00  0.00     0.016 A 
HETATM   32  C   UNL     1      26.643  39.334  46.521  1.00  0.00     0.016 A 
HETATM   33  C   UNL     1      27.073  40.123  45.453  1.00  0.00     0.001 A 
HETATM   34  C   UNL     1      28.155  40.989  45.616  1.00  0.00     0.003 A 
HETATM   35  C   UNL     1      28.830  41.050  46.838  1.00  0.00     0.037 A 
HETATM   36  C   UNL     1      28.428  40.236  47.893  1.00  0.00     0.077 A 
BRANCH  36  37
HETATM   37  O   UNL     1      29.147  40.323  49.052  1.00  0.00    -0.360 OA
HETATM   38  H   UNL     1      28.686  39.824  49.753  1.00  0.00     0.217 HD
ENDBRANCH  36  37
ENDBRANCH  30  31
ENDBRANCH   1  29
TORSDOF 8
ENDMDL
MODEL 6
REMARK VINA RESULT:      -8.4      6.499     10.453
REMARK  8 active torsions:
REMARK  status: ('A' for Active; 'I' for Inactive)
REMARK    1  A    between atoms: C_3  and  C_4 
REMARK    2  A    between atoms: N_5  and  N_6 
REMARK    3  A    between atoms: C_17  and  C_18 
REMARK       I    between atoms: C_18  and  N_19 
REMARK    4  A    between atoms: N_19  and  C_20 
REMARK    5  A    between atoms: C_20  and  C_21 
REMARK    6  A    between atoms: C_21  and  C_22 
REMARK    7  A    between atoms: C_29  and  N_30 
REMARK    8  A    between atoms: C_31  and  O_32 
ROOT
HETATM    1  N   UNL     1      19.423  46.140  48.217  1.00  0.00    -0.202 N 
HETATM    2  C   UNL     1      20.182  47.291  48.276  1.00  0.00     0.183 A 
HETATM    3  C   UNL     1      19.311  48.376  48.341  1.00  0.00     0.124 A 
HETATM    4  N   UNL     1      19.784  49.648  48.400  1.00  0.00    -0.242 NA
HETATM    5  C   UNL     1      21.127  49.750  48.427  1.00  0.00     0.086 A 
HETATM    6  C   UNL     1      21.988  48.623  48.373  1.00  0.00     0.088 A 
HETATM    7  N   UNL     1      21.534  47.363  48.285  1.00  0.00    -0.225 NA
HETATM    8  C   UNL     1      21.700  51.014  48.514  1.00  0.00     0.034 A 
HETATM    9  C   UNL     1      23.086  51.192  48.551  1.00  0.00     0.002 A 
HETATM   10  C   UNL     1      23.921  50.086  48.497  1.00  0.00     0.002 A 
HETATM   11  C   UNL     1      23.362  48.811  48.408  1.00  0.00     0.034 A 
HETATM   12  C   UNL     1      17.986  47.871  48.333  1.00  0.00     0.104 A 
HETATM   13  C   UNL     1      18.083  46.485  48.292  1.00  0.00     0.123 A 
ENDROOT
BRANCH  12  14
HETATM   14  C   UNL     1      16.726  48.578  48.425  1.00  0.00     0.257 C 
HETATM   15  N   UNL     1      16.901  49.929  48.680  1.00  0.00    -0.356 N 
HETATM   16  H   UNL     1      17.840  50.186  48.957  1.00  0.00     0.162 HD
HETATM   17  O   UNL     1      15.652  48.066  48.137  1.00  0.00    -0.267 OA
BRANCH  15  18
HETATM   18  C   UNL     1      16.260  50.888  47.801  1.00  0.00     0.127 C 
BRANCH  18  19
HETATM   19  C   UNL     1      17.204  51.914  47.173  1.00  0.00     0.053 C 
BRANCH  19  20
HETATM   20  C   UNL     1      17.489  51.600  45.723  1.00  0.00    -0.082 C 
HETATM   21  C   UNL     1      17.116  52.661  44.718  1.00  0.00     0.034 C 
HETATM   22  C   UNL     1      17.072  52.145  43.278  1.00  0.00     0.005 C 
HETATM   23  C   UNL     1      18.263  51.242  42.972  1.00  0.00     0.004 C 
HETATM   24  C   UNL     1      18.314  50.050  43.926  1.00  0.00     0.027 C 
HETATM   25  C   UNL     1      18.028  50.424  45.352  1.00  0.00    -0.024 C 
ENDBRANCH  19  20
ENDBRANCH  18  19
ENDBRANCH  15  18
ENDBRANCH  12  14
BRANCH  13  26
HETATM   26  N   UNL     1      17.126  45.510  48.338  1.00  0.00    -0.286 NA
HETATM   27  H   UNL     1      17.351  44.621  47.887  1.00  0.00     0.125 HD
HETATM   28  H   UNL     1      16.187  45.810  48.060  1.00  0.00     0.125 HD
ENDBRANCH  13  26
BRANCH   1  29
HETATM   29  N   UNL     1      19.861  44.844  48.264  1.00  0.00    -0.176 NA
HETATM   30  C   UNL     1      20.143  44.295  47.122  1.00  0.00     0.153 C 
BRANCH  30  31
HETATM   31  C   UNL     1      19.877  44.806  45.771  1.00  0.00     0.016 A 
HETATM   32  C   UNL     1      18.625  44.569  45.201  1.00  0.00     0.016 A 
HETATM   33  C   UNL     1      18.306  45.156  43.976  1.00  0.00     0.001 A 
HETATM   34  C   UNL     1      19.221  46.005  43.349  1.00  0.00     0.003 A 
HETATM   35  C   UNL     1      20.468  46.247  43.930  1.00  0.00     0.037 A 
HETATM   36  C   UNL     1      20.804  45.632  45.132  1.00  0.00     0.077 A 
BRANCH  36  37
HETATM   37  O   UNL     1      22.049  45.889  45.633  1.00  0.00    -0.360 OA
HETATM   38  H   UNL     1      22.011  45.871  46.609  1.00  0.00     0.217 HD
ENDBRANCH  36  37
ENDBRANCH  30  31
ENDBRANCH   1  29
TORSDOF 8
ENDMDL
MODEL 7
REMARK VINA RESULT:      -8.3      2.174      3.090
REMARK  8 active torsions:
REMARK  status: ('A' for Active; 'I' for Inactive)
REMARK    1  A    between atoms: C_3  and  C_4 
REMARK    2  A    between atoms: N_5  and  N_6 
REMARK    3  A    between atoms: C_17  and  C_18 
REMARK       I    between atoms: C_18  and  N_19 
REMARK    4  A    between atoms: N_19  and  C_20 
REMARK    5  A    between atoms: C_20  and  C_21 
REMARK    6  A    between atoms: C_21  and  C_22 
REMARK    7  A    between atoms: C_29  and  N_30 
REMARK    8  A    between atoms: C_31  and  O_32 
ROOT
HETATM    1  N   UNL     1      21.391  45.124  48.793  1.00  0.00    -0.202 N 
HETATM    2  C   UNL     1      21.827  46.432  48.752  1.00  0.00     0.183 A 
HETATM    3  C   UNL     1      23.197  46.436  49.003  1.00  0.00     0.124 A 
HETATM    4  N   UNL     1      23.898  47.599  49.033  1.00  0.00    -0.242 NA
HETATM    5  C   UNL     1      23.172  48.702  48.767  1.00  0.00     0.086 A 
HETATM    6  C   UNL     1      21.778  48.664  48.501  1.00  0.00     0.088 A 
HETATM    7  N   UNL     1      21.069  47.525  48.498  1.00  0.00    -0.225 NA
HETATM    8  C   UNL     1      23.813  49.936  48.748  1.00  0.00     0.034 A 
HETATM    9  C   UNL     1      23.122  51.120  48.475  1.00  0.00     0.002 A 
HETATM   10  C   UNL     1      21.760  51.074  48.217  1.00  0.00     0.002 A 
HETATM   11  C   UNL     1      21.102  49.845  48.233  1.00  0.00     0.034 A 
HETATM   12  C   UNL     1      23.608  45.092  49.192  1.00  0.00     0.104 A 
HETATM   13  C   UNL     1      22.480  44.298  49.021  1.00  0.00     0.123 A 
ENDROOT
BRANCH  12  14
HETATM   14  C   UNL     1      24.929  44.554  49.438  1.00  0.00     0.257 C 
HETATM   15  N   UNL     1      25.552  45.168  50.513  1.00  0.00    -0.356 N 
HETATM   16  H   UNL     1      25.097  46.012  50.836  1.00  0.00     0.162 HD
HETATM   17  O   UNL     1      25.360  43.559  48.870  1.00  0.00    -0.267 OA
BRANCH  15  18
HETATM   18  C   UNL     1      26.077  44.335  51.578  1.00  0.00     0.127 C 
BRANCH  18  19
HETATM   19  C   UNL     1      26.614  45.101  52.787  1.00  0.00     0.053 C 
BRANCH  19  20
HETATM   20  C   UNL     1      27.858  44.457  53.352  1.00  0.00    -0.082 C 
HETATM   21  C   UNL     1      28.199  44.790  54.783  1.00  0.00     0.034 C 
HETATM   22  C   UNL     1      29.636  44.427  55.166  1.00  0.00     0.005 C 
HETATM   23  C   UNL     1      30.027  43.055  54.628  1.00  0.00     0.004 C 
HETATM   24  C   UNL     1      29.887  42.996  53.107  1.00  0.00     0.027 C 
HETATM   25  C   UNL     1      28.631  43.646  52.606  1.00  0.00    -0.024 C 
ENDBRANCH  19  20
ENDBRANCH  18  19
ENDBRANCH  15  18
ENDBRANCH  12  14
BRANCH  13  26
HETATM   26  N   UNL     1      22.321  42.940  49.023  1.00  0.00    -0.286 NA
HETATM   27  H   UNL     1      22.672  42.433  48.208  1.00  0.00     0.125 HD
HETATM   28  H   UNL     1      21.378  42.614  49.252  1.00  0.00     0.125 HD
ENDBRANCH  13  26
BRANCH   1  29
HETATM   29  N   UNL     1      20.146  44.645  48.486  1.00  0.00    -0.176 NA
HETATM   30  C   UNL     1      19.936  44.360  47.236  1.00  0.00     0.153 C 
BRANCH  30  31
HETATM   31  C   UNL     1      20.785  44.657  46.075  1.00  0.00     0.016 A 
HETATM   32  C   UNL     1      21.655  43.670  45.612  1.00  0.00     0.016 A 
HETATM   33  C   UNL     1      22.373  43.884  44.435  1.00  0.00     0.001 A 
HETATM   34  C   UNL     1      22.189  45.062  43.709  1.00  0.00     0.003 A 
HETATM   35  C   UNL     1      21.308  46.043  44.172  1.00  0.00     0.037 A 
HETATM   36  C   UNL     1      20.619  45.849  45.365  1.00  0.00     0.077 A 
BRANCH  36  37
HETATM   37  O   UNL     1      19.795  46.858  45.776  1.00  0.00    -0.360 OA
HETATM   38  H   UNL     1      20.248  47.381  46.465  1.00  0.00     0.217 HD
ENDBRANCH  36  37
ENDBRANCH  30  31
ENDBRANCH   1  29
TORSDOF 8
ENDMDL
MODEL 8
REMARK VINA RESULT:      -8.1      3.785      6.286
REMARK  8 active torsions:
REMARK  status: ('A' for Active; 'I' for Inactive)
REMARK    1  A    between atoms: C_3  and  C_4 
REMARK    2  A    between atoms: N_5  and  N_6 
REMARK    3  A    between atoms: C_17  and  C_18 
REMARK       I    between atoms: C_18  and  N_19 
REMARK    4  A    between atoms: N_19  and  C_20 
REMARK    5  A    between atoms: C_20  and  C_21 
REMARK    6  A    between atoms: C_21  and  C_22 
REMARK    7  A    between atoms: C_29  and  N_30 
REMARK    8  A    between atoms: C_31  and  O_32 
ROOT
HETATM    1  N   UNL     1      25.200  40.447  47.973  1.00  0.00    -0.202 N 
HETATM    2  C   UNL     1      26.261  39.995  48.730  1.00  0.00     0.183 A 
HETATM    3  C   UNL     1      26.708  41.055  49.516  1.00  0.00     0.124 A 
HETATM    4  N   UNL     1      27.758  40.901  50.363  1.00  0.00    -0.242 NA
HETATM    5  C   UNL     1      28.280  39.659  50.396  1.00  0.00     0.086 A 
HETATM    6  C   UNL     1      27.793  38.596  49.591  1.00  0.00     0.088 A 
HETATM    7  N   UNL     1      26.775  38.743  48.729  1.00  0.00    -0.225 NA
HETATM    8  C   UNL     1      29.342  39.402  51.255  1.00  0.00     0.034 A 
HETATM    9  C   UNL     1      29.928  38.136  51.342  1.00  0.00     0.002 A 
HETATM   10  C   UNL     1      29.446  37.102  50.553  1.00  0.00     0.002 A 
HETATM   11  C   UNL     1      28.383  37.344  49.685  1.00  0.00     0.034 A 
HETATM   12  C   UNL     1      25.889  42.179  49.237  1.00  0.00     0.104 A 
HETATM   13  C   UNL     1      24.942  41.766  48.306  1.00  0.00     0.123 A 
ENDROOT
BRANCH  12  14
HETATM   14  C   UNL     1      25.911  43.506  49.814  1.00  0.00     0.257 C 
HETATM   15  N   UNL     1      26.219  43.484  51.166  1.00  0.00    -0.356 N 
HETATM   16  H   UNL     1      26.187  42.565  51.589  1.00  0.00     0.162 HD
HETATM   17  O   UNL     1      25.839  44.526  49.142  1.00  0.00    -0.267 OA
BRANCH  15  18
HETATM   18  C   UNL     1      27.306  44.316  51.642  1.00  0.00     0.127 C 
BRANCH  18  19
HETATM   19  C   UNL     1      27.102  44.900  53.041  1.00  0.00     0.053 C 
BRANCH  19  20
HETATM   20  C   UNL     1      28.265  44.590  53.954  1.00  0.00    -0.082 C 
HETATM   21  C   UNL     1      29.033  43.325  53.662  1.00  0.00     0.034 C 
HETATM   22  C   UNL     1      29.929  42.878  54.819  1.00  0.00     0.005 C 
HETATM   23  C   UNL     1      30.679  44.057  55.431  1.00  0.00     0.004 C 
HETATM   24  C   UNL     1      29.713  45.127  55.936  1.00  0.00     0.027 C 
HETATM   25  C   UNL     1      28.582  45.395  54.985  1.00  0.00    -0.024 C 
ENDBRANCH  19  20
ENDBRANCH  18  19
ENDBRANCH  15  18
ENDBRANCH  12  14
BRANCH  13  26
HETATM   26  N   UNL     1      23.878  42.419  47.750  1.00  0.00    -0.286 NA
HETATM   27  H   UNL     1      24.087  43.121  47.038  1.00  0.00     0.125 HD
HETATM   28  H   UNL     1      23.203  42.798  48.421  1.00  0.00     0.125 HD
ENDBRANCH  13  26
BRANCH   1  29
HETATM   29  N   UNL     1      24.384  39.714  47.153  1.00  0.00    -0.176 NA
HETATM   30  C   UNL     1      24.855  39.440  45.974  1.00  0.00     0.153 C 
BRANCH  30  31
HETATM   31  C   UNL     1      26.063  39.969  45.326  1.00  0.00     0.016 A 
HETATM   32  C   UNL     1      27.184  39.145  45.228  1.00  0.00     0.016 A 
HETATM   33  C   UNL     1      28.294  39.579  44.503  1.00  0.00     0.001 A 
HETATM   34  C   UNL     1      28.263  40.813  43.850  1.00  0.00     0.003 A 
HETATM   35  C   UNL     1      27.133  41.629  43.943  1.00  0.00     0.037 A 
HETATM   36  C   UNL     1      26.039  41.215  44.697  1.00  0.00     0.077 A 
BRANCH  36  37
HETATM   37  O   UNL     1      24.977  42.072  44.770  1.00  0.00    -0.360 OA
HETATM   38  H   UNL     1      24.365  41.886  44.032  1.00  0.00     0.217 HD
ENDBRANCH  36  37
ENDBRANCH  30  31
ENDBRANCH   1  29
TORSDOF 8
ENDMDL
MODEL 9
REMARK VINA RESULT:      -8.0      3.682      5.075
REMARK  8 active torsions:
REMARK  status: ('A' for Active; 'I' for Inactive)
REMARK    1  A    between atoms: C_3  and  C_4 
REMARK    2  A    between atoms: N_5  and  N_6 
REMARK    3  A    between atoms: C_17  and  C_18 
REMARK       I    between atoms: C_18  and  N_19 
REMARK    4  A    between atoms: N_19  and  C_20 
REMARK    5  A    between atoms: C_20  and  C_21 
REMARK    6  A    between atoms: C_21  and  C_22 
REMARK    7  A    between atoms: C_29  and  N_30 
REMARK    8  A    between atoms: C_31  and  O_32 
ROOT
HETATM    1  N   UNL     1      19.920  45.659  48.399  1.00  0.00    -0.202 N 
HETATM    2  C   UNL     1      19.995  47.036  48.454  1.00  0.00     0.183 A 
HETATM    3  C   UNL     1      21.324  47.384  48.682  1.00  0.00     0.124 A 
HETATM    4  N   UNL     1      21.696  48.686  48.792  1.00  0.00    -0.242 NA
HETATM    5  C   UNL     1      20.696  49.574  48.627  1.00  0.00     0.086 A 
HETATM    6  C   UNL     1      19.352  49.187  48.382  1.00  0.00     0.088 A 
HETATM    7  N   UNL     1      18.968  47.904  48.300  1.00  0.00    -0.225 NA
HETATM    8  C   UNL     1      20.989  50.931  48.696  1.00  0.00     0.034 A 
HETATM    9  C   UNL     1      20.002  51.906  48.529  1.00  0.00     0.002 A 
HETATM   10  C   UNL     1      18.691  51.521  48.290  1.00  0.00     0.002 A 
HETATM   11  C   UNL     1      18.380  50.163  48.219  1.00  0.00     0.034 A 
HETATM   12  C   UNL     1      22.081  46.186  48.756  1.00  0.00     0.104 A 
HETATM   13  C   UNL     1      21.195  45.137  48.542  1.00  0.00     0.123 A 
ENDROOT
BRANCH  12  14
HETATM   14  C   UNL     1      23.505  46.001  48.937  1.00  0.00     0.257 C 
HETATM   15  N   UNL     1      24.017  46.822  49.930  1.00  0.00    -0.356 N 
HETATM   16  H   UNL     1      23.388  47.553  50.237  1.00  0.00     0.162 HD
HETATM   17  O   UNL     1      24.134  45.101  48.396  1.00  0.00    -0.267 OA
BRANCH  15  18
HETATM   18  C   UNL     1      24.789  46.218  50.998  1.00  0.00     0.127 C 
BRANCH  18  19
HETATM   19  C   UNL     1      25.492  47.211  51.923  1.00  0.00     0.053 C 
BRANCH  19  20
HETATM   20  C   UNL     1      26.339  46.511  52.960  1.00  0.00    -0.082 C 
HETATM   21  C   UNL     1      26.652  47.290  54.213  1.00  0.00     0.034 C 
HETATM   22  C   UNL     1      27.800  46.691  55.029  1.00  0.00     0.005 C 
HETATM   23  C   UNL     1      27.682  45.174  55.128  1.00  0.00     0.004 C 
HETATM   24  C   UNL     1      27.666  44.527  53.744  1.00  0.00     0.027 C 
HETATM   25  C   UNL     1      26.805  45.264  52.760  1.00  0.00    -0.024 C 
ENDBRANCH  19  20
ENDBRANCH  18  19
ENDBRANCH  15  18
ENDBRANCH  12  14
BRANCH  13  26
HETATM   26  N   UNL     1      21.398  43.789  48.438  1.00  0.00    -0.286 NA
HETATM   27  H   UNL     1      21.840  43.453  47.580  1.00  0.00     0.125 HD
HETATM   28  H   UNL     1      20.583  43.209  48.657  1.00  0.00     0.125 HD
ENDBRANCH  13  26
BRANCH   1  29
HETATM   29  N   UNL     1      18.834  44.892  48.075  1.00  0.00    -0.176 NA
HETATM   30  C   UNL     1      18.634  44.690  46.807  1.00  0.00     0.153 C 
BRANCH  30  31
HETATM   31  C   UNL     1      19.300  45.327  45.664  1.00  0.00     0.016 A 
HETATM   32  C   UNL     1      20.380  44.673  45.069  1.00  0.00     0.016 A 
HETATM   33  C   UNL     1      20.942  45.195  43.904  1.00  0.00     0.001 A 
HETATM   34  C   UNL     1      20.400  46.342  43.320  1.00  0.00     0.003 A 
HETATM   35  C   UNL     1      19.312  46.986  43.914  1.00  0.00     0.037 A 
HETATM   36  C   UNL     1      18.773  46.489  45.097  1.00  0.00     0.077 A 
BRANCH  36  37
HETATM   37  O   UNL     1      17.728  47.182  45.641  1.00  0.00    -0.360 OA
HETATM   38  H   UNL     1      18.060  47.739  46.372  1.00  0.00     0.217 HD
ENDBRANCH  36  37
ENDBRANCH  30  31
ENDBRANCH   1  29
TORSDOF 8
ENDMDL
MODEL 10
REMARK VINA RESULT:      -7.9      8.040     12.785
REMARK  8 active torsions:
REMARK  status: ('A' for Active; 'I' for Inactive)
REMARK    1  A    between atoms: C_3  and  C_4 
REMARK    2  A    between atoms: N_5  and  N_6 
REMARK    3  A    between atoms: C_17  and  C_18 
REMARK       I    between atoms: C_18  and  N_19 
REMARK    4  A    between atoms: N_19  and  C_20 
REMARK    5  A    between atoms: C_20  and  C_21 
REMARK    6  A    between atoms: C_21  and  C_22 
REMARK    7  A    between atoms: C_29  and  N_30 
REMARK    8  A    between atoms: C_31  and  O_32 
ROOT
HETATM    1  N   UNL     1      17.584  49.951  49.778  1.00  0.00    -0.202 N 
HETATM    2  C   UNL     1      17.369  49.103  48.711  1.00  0.00     0.183 A 
HETATM    3  C   UNL     1      16.779  49.842  47.689  1.00  0.00     0.124 A 
HETATM    4  N   UNL     1      16.444  49.258  46.509  1.00  0.00    -0.242 NA
HETATM    5  C   UNL     1      16.762  47.953  46.415  1.00  0.00     0.086 A 
HETATM    6  C   UNL     1      17.376  47.230  47.471  1.00  0.00     0.088 A 
HETATM    7  N   UNL     1      17.685  47.788  48.652  1.00  0.00    -0.225 NA
HETATM    8  C   UNL     1      16.480  47.279  45.232  1.00  0.00     0.034 A 
HETATM    9  C   UNL     1      16.788  45.926  45.065  1.00  0.00     0.002 A 
HETATM   10  C   UNL     1      17.388  45.226  46.102  1.00  0.00     0.002 A 
HETATM   11  C   UNL     1      17.675  45.887  47.295  1.00  0.00     0.034 A 
HETATM   12  C   UNL     1      16.642  51.179  48.142  1.00  0.00     0.104 A 
HETATM   13  C   UNL     1      17.180  51.227  49.423  1.00  0.00     0.123 A 
ENDROOT
BRANCH  12  14
HETATM   14  C   UNL     1      16.128  52.343  47.451  1.00  0.00     0.257 C 
HETATM   15  N   UNL     1      16.762  52.552  46.236  1.00  0.00    -0.356 N 
HETATM   16  H   UNL     1      17.602  52.003  46.101  1.00  0.00     0.162 HD
HETATM   17  O   UNL     1      15.136  52.955  47.823  1.00  0.00    -0.267 OA
BRANCH  15  18
HETATM   18  C   UNL     1      15.948  52.691  45.045  1.00  0.00     0.127 C 
BRANCH  18  19
HETATM   19  C   UNL     1      16.589  53.505  43.920  1.00  0.00     0.053 C 
BRANCH  19  20
HETATM   20  C   UNL     1      17.448  52.644  43.024  1.00  0.00    -0.082 C 
HETATM   21  C   UNL     1      17.902  53.265  41.726  1.00  0.00     0.034 C 
HETATM   22  C   UNL     1      18.429  52.243  40.716  1.00  0.00     0.005 C 
HETATM   23  C   UNL     1      19.335  51.214  41.384  1.00  0.00     0.004 C 
HETATM   24  C   UNL     1      18.604  50.475  42.503  1.00  0.00     0.027 C 
HETATM   25  C   UNL     1      17.772  51.382  43.362  1.00  0.00    -0.024 C 
ENDBRANCH  19  20
ENDBRANCH  18  19
ENDBRANCH  15  18
ENDBRANCH  12  14
BRANCH  13  26
HETATM   26  N   UNL     1      17.368  52.271  50.286  1.00  0.00    -0.286 NA
HETATM   27  H   UNL     1      17.376  53.209  49.881  1.00  0.00     0.125 HD
HETATM   28  H   UNL     1      18.160  52.165  50.927  1.00  0.00     0.125 HD
ENDBRANCH  13  26
BRANCH   1  29
HETATM   29  N   UNL     1      18.249  49.679  50.943  1.00  0.00    -0.176 NA
HETATM   30  C   UNL     1      19.546  49.744  50.891  1.00  0.00     0.153 C 
BRANCH  30  31
HETATM   31  C   UNL     1      20.406  49.884  49.709  1.00  0.00     0.016 A 
HETATM   32  C   UNL     1      20.810  51.162  49.322  1.00  0.00     0.016 A 
HETATM   33  C   UNL     1      21.732  51.307  48.285  1.00  0.00     0.001 A 
HETATM   34  C   UNL     1      22.272  50.177  47.667  1.00  0.00     0.003 A 
HETATM   35  C   UNL     1      21.872  48.900  48.066  1.00  0.00     0.037 A 
HETATM   36  C   UNL     1      20.925  48.753  49.075  1.00  0.00     0.077 A 
BRANCH  36  37
HETATM   37  O   UNL     1      20.556  47.477  49.398  1.00  0.00    -0.360 OA
HETATM   38  H   UNL     1      20.151  47.054  48.617  1.00  0.00     0.217 HD
ENDBRANCH  36  37
ENDBRANCH  30  31
ENDBRANCH   1  29
TORSDOF 8
ENDMDL
