MODEL 1
REMARK VINA RESULT:      -9.0      0.000      0.000
REMARK  5 active torsions:
REMARK  status: ('A' for Active; 'I' for Inactive)
REMARK       I    between atoms: C_2  and  N_3 
REMARK    1  A    between atoms: C_2  and  C_11 
REMARK    2  A    between atoms: N_3  and  C_4 
REMARK    3  A    between atoms: C_4  and  C_5 
REMARK    4  A    between atoms: C_5  and  C_6 
REMARK    5  A    between atoms: C_17  and  C_21 
ROOT
HETATM    1  C   UNL     1      27.670  42.964  51.762  1.00  0.00     0.059 A 
HETATM    2  C   UNL     1      28.395  41.813  51.486  1.00  0.00     0.106 A 
HETATM    3  N   UNL     1      29.359  41.661  52.447  1.00  0.00    -0.364 N 
HETATM    4  H   UNL     1      30.024  40.902  52.491  1.00  0.00     0.165 HD
HETATM    5  C   UNL     1      29.282  42.682  53.364  1.00  0.00     0.044 A 
HETATM    6  C   UNL     1      30.053  42.920  54.512  1.00  0.00     0.042 A 
HETATM    7  C   UNL     1      29.761  44.055  55.288  1.00  0.00    -0.021 A 
HETATM    8  C   UNL     1      28.723  44.908  54.900  1.00  0.00     0.013 A 
HETATM    9  C   UNL     1      27.962  44.651  53.750  1.00  0.00     0.016 A 
HETATM   10  C   UNL     1      28.240  43.516  52.962  1.00  0.00     0.008 A 
ENDROOT
BRANCH   1  11
HETATM   11  C   UNL     1      26.535  43.500  51.006  1.00  0.00     0.253 C 
HETATM   12  O   UNL     1      25.414  43.002  51.049  1.00  0.00    -0.268 OA
HETATM   13  N   UNL     1      26.813  44.619  50.247  1.00  0.00    -0.356 N 
HETATM   14  H   UNL     1      27.666  45.121  50.450  1.00  0.00     0.162 HD
BRANCH  13  15
HETATM   15  C   UNL     1      25.760  45.337  49.556  1.00  0.00     0.128 C 
BRANCH  15  16
HETATM   16  C   UNL     1      25.309  46.592  50.306  1.00  0.00     0.066 C 
BRANCH  16  17
HETATM   17  C   UNL     1      25.682  47.857  49.581  1.00  0.00    -0.016 A 
HETATM   18  C   UNL     1      26.946  48.362  49.348  1.00  0.00     0.015 A 
HETATM   19  C   UNL     1      26.913  49.586  48.618  1.00  0.00     0.008 A 
HETATM   20  C   UNL     1      25.626  49.976  48.323  1.00  0.00     0.050 A 
HETATM   21  S   UNL     1      24.467  48.872  48.925  1.00  0.00    -0.107 SA
ENDBRANCH  16  17
ENDBRANCH  15  16
ENDBRANCH  13  15
ENDBRANCH   1  11
BRANCH   7  22
HETATM   22  C   UNL     1      30.533  44.317  56.492  1.00  0.00     0.010 A 
HETATM   23  C   UNL     1      31.620  43.615  57.064  1.00  0.00     0.152 A 
HETATM   24  N   UNL     1      32.076  44.186  58.183  1.00  0.00    -0.187 NA
HETATM   25  N   UNL     1      31.280  45.257  58.332  1.00  0.00    -0.289 N 
HETATM   26  H   UNL     1      31.435  45.864  59.131  1.00  0.00     0.188 HD
HETATM   27  C   UNL     1      30.344  45.383  57.347  1.00  0.00     0.123 A 
ENDBRANCH   7  22
TORSDOF 5
ENDMDL
MODEL 2
REMARK VINA RESULT:      -8.7      2.484      3.546
REMARK  5 active torsions:
REMARK  status: ('A' for Active; 'I' for Inactive)
REMARK       I    between atoms: C_2  and  N_3 
REMARK    1  A    between atoms: C_2  and  C_11 
REMARK    2  A    between atoms: N_3  and  C_4 
REMARK    3  A    between atoms: C_4  and  C_5 
REMARK    4  A    between atoms: C_5  and  C_6 
REMARK    5  A    between atoms: C_17  and  C_21 
ROOT
HETATM    1  C   UNL     1      26.109  46.748  53.475  1.00  0.00     0.059 A 
HETATM    2  C   UNL     1      25.928  47.835  54.318  1.00  0.00     0.106 A 
HETATM    3  N   UNL     1      26.824  47.743  55.351  1.00  0.00    -0.364 N 
HETATM    4  H   UNL     1      26.913  48.409  56.106  1.00  0.00     0.165 HD
HETATM    5  C   UNL     1      27.605  46.623  55.205  1.00  0.00     0.044 A 
HETATM    6  C   UNL     1      28.649  46.144  56.009  1.00  0.00     0.042 A 
HETATM    7  C   UNL     1      29.294  44.954  55.629  1.00  0.00    -0.021 A 
HETATM    8  C   UNL     1      28.881  44.286  54.471  1.00  0.00     0.013 A 
HETATM    9  C   UNL     1      27.836  44.782  53.678  1.00  0.00     0.016 A 
HETATM   10  C   UNL     1      27.181  45.976  54.045  1.00  0.00     0.008 A 
ENDROOT
BRANCH   1  11
HETATM   11  C   UNL     1      25.380  46.453  52.239  1.00  0.00     0.253 C 
HETATM   12  O   UNL     1      24.738  45.420  52.078  1.00  0.00    -0.268 OA
HETATM   13  N   UNL     1      25.455  47.430  51.267  1.00  0.00    -0.356 N 
HETATM   14  H   UNL     1      25.776  48.346  51.549  1.00  0.00     0.162 HD
BRANCH  13  15
HETATM   15  C   UNL     1      24.675  47.338  50.048  1.00  0.00     0.128 C 
BRANCH  15  16
HETATM   16  C   UNL     1      24.843  48.561  49.145  1.00  0.00     0.066 C 
BRANCH  16  17
HETATM   17  C   UNL     1      23.547  49.293  48.926  1.00  0.00    -0.016 A 
HETATM   18  C   UNL     1      23.337  50.658  48.885  1.00  0.00     0.015 A 
HETATM   19  C   UNL     1      21.971  50.988  48.651  1.00  0.00     0.008 A 
HETATM   20  C   UNL     1      21.184  49.865  48.525  1.00  0.00     0.050 A 
HETATM   21  S   UNL     1      22.089  48.425  48.691  1.00  0.00    -0.107 SA
ENDBRANCH  16  17
ENDBRANCH  15  16
ENDBRANCH  13  15
ENDBRANCH   1  11
BRANCH   7  22
HETATM   22  C   UNL     1      30.391  44.443  56.435  1.00  0.00     0.010 A 
HETATM   23  C   UNL     1      30.908  44.882  57.676  1.00  0.00     0.152 A 
HETATM   24  N   UNL     1      31.926  44.133  58.109  1.00  0.00    -0.187 NA
HETATM   25  N   UNL     1      32.067  43.211  57.142  1.00  0.00    -0.289 N 
HETATM   26  H   UNL     1      32.795  42.512  57.247  1.00  0.00     0.188 HD
HETATM   27  C   UNL     1      31.172  43.350  56.122  1.00  0.00     0.123 A 
ENDBRANCH   7  22
TORSDOF 5
ENDMDL
MODEL 3
REMARK VINA RESULT:      -8.7      1.526      1.932
REMARK  5 active torsions:
REMARK  status: ('A' for Active; 'I' for Inactive)
REMARK       I    between atoms: C_2  and  N_3 
REMARK    1  A    between atoms: C_2  and  C_11 
REMARK    2  A    between atoms: N_3  and  C_4 
REMARK    3  A    between atoms: C_4  and  C_5 
REMARK    4  A    between atoms: C_5  and  C_6 
REMARK    5  A    between atoms: C_17  and  C_21 
ROOT
HETATM    1  C   UNL     1      26.884  44.460  52.145  1.00  0.00     0.059 A 
HETATM    2  C   UNL     1      27.542  43.429  51.489  1.00  0.00     0.106 A 
HETATM    3  N   UNL     1      28.622  43.051  52.240  1.00  0.00    -0.364 N 
HETATM    4  H   UNL     1      29.272  42.315  51.999  1.00  0.00     0.165 HD
HETATM    5  C   UNL     1      28.691  43.801  53.389  1.00  0.00     0.044 A 
HETATM    6  C   UNL     1      29.613  43.749  54.444  1.00  0.00     0.042 A 
HETATM    7  C   UNL     1      29.452  44.643  55.517  1.00  0.00    -0.021 A 
HETATM    8  C   UNL     1      28.389  45.552  55.504  1.00  0.00     0.013 A 
HETATM    9  C   UNL     1      27.475  45.587  54.440  1.00  0.00     0.016 A 
HETATM   10  C   UNL     1      27.621  44.695  53.358  1.00  0.00     0.008 A 
ENDROOT
BRANCH   1  11
HETATM   11  C   UNL     1      25.669  45.155  51.712  1.00  0.00     0.253 C 
HETATM   12  O   UNL     1      24.556  44.885  52.154  1.00  0.00    -0.268 OA
HETATM   13  N   UNL     1      25.866  46.150  50.775  1.00  0.00    -0.356 N 
HETATM   14  H   UNL     1      26.809  46.490  50.646  1.00  0.00     0.162 HD
BRANCH  13  15
HETATM   15  C   UNL     1      24.778  47.012  50.356  1.00  0.00     0.128 C 
BRANCH  15  16
HETATM   16  C   UNL     1      25.259  48.226  49.559  1.00  0.00     0.066 C 
BRANCH  16  17
HETATM   17  C   UNL     1      24.132  48.930  48.854  1.00  0.00    -0.016 A 
HETATM   18  C   UNL     1      24.154  50.166  48.239  1.00  0.00     0.015 A 
HETATM   19  C   UNL     1      22.893  50.508  47.667  1.00  0.00     0.008 A 
HETATM   20  C   UNL     1      21.952  49.524  47.869  1.00  0.00     0.050 A 
HETATM   21  S   UNL     1      22.586  48.199  48.743  1.00  0.00    -0.107 SA
ENDBRANCH  16  17
ENDBRANCH  15  16
ENDBRANCH  13  15
ENDBRANCH   1  11
BRANCH   7  22
HETATM   22  C   UNL     1      30.384  44.600  56.632  1.00  0.00     0.010 A 
HETATM   23  C   UNL     1      31.462  43.725  56.902  1.00  0.00     0.152 A 
HETATM   24  N   UNL     1      32.101  44.022  58.038  1.00  0.00    -0.187 NA
HETATM   25  N   UNL     1      31.430  45.090  58.501  1.00  0.00    -0.289 N 
HETATM   26  H   UNL     1      31.735  45.507  59.375  1.00  0.00     0.188 HD
HETATM   27  C   UNL     1      30.398  45.477  57.697  1.00  0.00     0.123 A 
ENDBRANCH   7  22
TORSDOF 5
ENDMDL
MODEL 4
REMARK VINA RESULT:      -8.5      1.578      2.088
REMARK  5 active torsions:
REMARK  status: ('A' for Active; 'I' for Inactive)
REMARK       I    between atoms: C_2  and  N_3 
REMARK    1  A    between atoms: C_2  and  C_11 
REMARK    2  A    between atoms: N_3  and  C_4 
REMARK    3  A    between atoms: C_4  and  C_5 
REMARK    4  A    between atoms: C_5  and  C_6 
REMARK    5  A    between atoms: C_17  and  C_21 
ROOT
HETATM    1  C   UNL     1      27.835  42.236  51.390  1.00  0.00     0.059 A 
HETATM    2  C   UNL     1      28.489  41.015  51.313  1.00  0.00     0.106 A 
HETATM    3  N   UNL     1      29.375  40.926  52.355  1.00  0.00    -0.364 N 
HETATM    4  H   UNL     1      29.978  40.137  52.541  1.00  0.00     0.165 HD
HETATM    5  C   UNL     1      29.315  42.059  53.129  1.00  0.00     0.044 A 
HETATM    6  C   UNL     1      30.025  42.393  54.292  1.00  0.00     0.042 A 
HETATM    7  C   UNL     1      29.768  43.635  54.898  1.00  0.00    -0.021 A 
HETATM    8  C   UNL     1      28.823  44.497  54.331  1.00  0.00     0.013 A 
HETATM    9  C   UNL     1      28.121  44.144  53.169  1.00  0.00     0.016 A 
HETATM   10  C   UNL     1      28.365  42.901  52.551  1.00  0.00     0.008 A 
ENDROOT
BRANCH   1  11
HETATM   11  C   UNL     1      26.794  42.743  50.492  1.00  0.00     0.253 C 
HETATM   12  O   UNL     1      27.046  43.244  49.400  1.00  0.00    -0.268 OA
HETATM   13  N   UNL     1      25.502  42.605  50.955  1.00  0.00    -0.356 N 
HETATM   14  H   UNL     1      25.346  41.968  51.725  1.00  0.00     0.162 HD
BRANCH  13  15
HETATM   15  C   UNL     1      24.365  42.936  50.118  1.00  0.00     0.128 C 
BRANCH  15  16
HETATM   16  C   UNL     1      23.595  44.158  50.622  1.00  0.00     0.066 C 
BRANCH  16  17
HETATM   17  C   UNL     1      24.502  45.319  50.927  1.00  0.00    -0.016 A 
HETATM   18  C   UNL     1      25.000  45.709  52.155  1.00  0.00     0.015 A 
HETATM   19  C   UNL     1      25.838  46.858  52.058  1.00  0.00     0.008 A 
HETATM   20  C   UNL     1      25.947  47.309  50.761  1.00  0.00     0.050 A 
HETATM   21  S   UNL     1      25.044  46.351  49.671  1.00  0.00    -0.107 SA
ENDBRANCH  16  17
ENDBRANCH  15  16
ENDBRANCH  13  15
ENDBRANCH   1  11
BRANCH   7  22
HETATM   22  C   UNL     1      30.478  44.000  56.113  1.00  0.00     0.010 A 
HETATM   23  C   UNL     1      31.462  43.304  56.853  1.00  0.00     0.152 A 
HETATM   24  N   UNL     1      31.890  43.986  57.920  1.00  0.00    -0.187 NA
HETATM   25  N   UNL     1      31.177  45.123  57.868  1.00  0.00    -0.289 N 
HETATM   26  H   UNL     1      31.328  45.819  58.591  1.00  0.00     0.188 HD
HETATM   27  C   UNL     1      30.322  45.183  56.806  1.00  0.00     0.123 A 
ENDBRANCH   7  22
TORSDOF 5
ENDMDL
MODEL 5
REMARK VINA RESULT:      -8.5      2.983      4.625
REMARK  5 active torsions:
REMARK  status: ('A' for Active; 'I' for Inactive)
REMARK       I    between atoms: C_2  and  N_3 
REMARK    1  A    between atoms: C_2  and  C_11 
REMARK    2  A    between atoms: N_3  and  C_4 
REMARK    3  A    between atoms: C_4  and  C_5 
REMARK    4  A    between atoms: C_5  and  C_6 
REMARK    5  A    between atoms: C_17  and  C_21 
ROOT
HETATM    1  C   UNL     1      26.131  46.918  53.589  1.00  0.00     0.059 A 
HETATM    2  C   UNL     1      25.967  47.988  54.457  1.00  0.00     0.106 A 
HETATM    3  N   UNL     1      26.865  47.861  55.484  1.00  0.00    -0.364 N 
HETATM    4  H   UNL     1      26.966  48.507  56.254  1.00  0.00     0.165 HD
HETATM    5  C   UNL     1      27.631  46.733  55.309  1.00  0.00     0.044 A 
HETATM    6  C   UNL     1      28.672  46.222  56.098  1.00  0.00     0.042 A 
HETATM    7  C   UNL     1      29.300  45.033  55.688  1.00  0.00    -0.021 A 
HETATM    8  C   UNL     1      28.873  44.397  54.517  1.00  0.00     0.013 A 
HETATM    9  C   UNL     1      27.832  44.925  53.740  1.00  0.00     0.016 A 
HETATM   10  C   UNL     1      27.195  46.119  54.137  1.00  0.00     0.008 A 
ENDROOT
BRANCH   1  11
HETATM   11  C   UNL     1      25.394  46.662  52.349  1.00  0.00     0.253 C 
HETATM   12  O   UNL     1      25.167  47.537  51.518  1.00  0.00    -0.268 OA
HETATM   13  N   UNL     1      24.982  45.357  52.171  1.00  0.00    -0.356 N 
HETATM   14  H   UNL     1      25.411  44.648  52.751  1.00  0.00     0.162 HD
BRANCH  13  15
HETATM   15  C   UNL     1      24.363  44.926  50.933  1.00  0.00     0.128 C 
BRANCH  15  16
HETATM   16  C   UNL     1      25.384  44.464  49.891  1.00  0.00     0.066 C 
BRANCH  16  17
HETATM   17  C   UNL     1      25.994  43.134  50.241  1.00  0.00    -0.016 A 
HETATM   18  C   UNL     1      27.236  42.887  50.794  1.00  0.00     0.015 A 
HETATM   19  C   UNL     1      27.472  41.495  50.992  1.00  0.00     0.008 A 
HETATM   20  C   UNL     1      26.406  40.728  50.580  1.00  0.00     0.050 A 
HETATM   21  S   UNL     1      25.131  41.681  49.958  1.00  0.00    -0.107 SA
ENDBRANCH  16  17
ENDBRANCH  15  16
ENDBRANCH  13  15
ENDBRANCH   1  11
BRANCH   7  22
HETATM   22  C   UNL     1      30.392  44.490  56.478  1.00  0.00     0.010 A 
HETATM   23  C   UNL     1      30.911  44.885  57.733  1.00  0.00     0.152 A 
HETATM   24  N   UNL     1      31.924  44.116  58.142  1.00  0.00    -0.187 NA
HETATM   25  N   UNL     1      32.059  43.224  57.147  1.00  0.00    -0.289 N 
HETATM   26  H   UNL     1      32.783  42.517  57.229  1.00  0.00     0.188 HD
HETATM   27  C   UNL     1      31.166  43.401  56.130  1.00  0.00     0.123 A 
ENDBRANCH   7  22
TORSDOF 5
ENDMDL
MODEL 6
REMARK VINA RESULT:      -8.2      3.297      5.430
REMARK  5 active torsions:
REMARK  status: ('A' for Active; 'I' for Inactive)
REMARK       I    between atoms: C_2  and  N_3 
REMARK    1  A    between atoms: C_2  and  C_11 
REMARK    2  A    between atoms: N_3  and  C_4 
REMARK    3  A    between atoms: C_4  and  C_5 
REMARK    4  A    between atoms: C_5  and  C_6 
REMARK    5  A    between atoms: C_17  and  C_21 
ROOT
HETATM    1  C   UNL     1      26.971  44.407  52.017  1.00  0.00     0.059 A 
HETATM    2  C   UNL     1      26.205  45.493  52.415  1.00  0.00     0.106 A 
HETATM    3  N   UNL     1      26.673  45.942  53.622  1.00  0.00    -0.364 N 
HETATM    4  H   UNL     1      26.300  46.727  54.137  1.00  0.00     0.165 HD
HETATM    5  C   UNL     1      27.743  45.182  54.029  1.00  0.00     0.044 A 
HETATM    6  C   UNL     1      28.535  45.289  55.181  1.00  0.00     0.042 A 
HETATM    7  C   UNL     1      29.585  44.371  55.358  1.00  0.00    -0.021 A 
HETATM    8  C   UNL     1      29.809  43.385  54.391  1.00  0.00     0.013 A 
HETATM    9  C   UNL     1      29.008  43.296  53.244  1.00  0.00     0.016 A 
HETATM   10  C   UNL     1      27.953  44.211  53.050  1.00  0.00     0.008 A 
ENDROOT
BRANCH   1  11
HETATM   11  C   UNL     1      26.833  43.629  50.783  1.00  0.00     0.253 C 
HETATM   12  O   UNL     1      27.247  44.026  49.698  1.00  0.00    -0.268 OA
HETATM   13  N   UNL     1      26.213  42.405  50.929  1.00  0.00    -0.356 N 
HETATM   14  H   UNL     1      26.129  42.032  51.864  1.00  0.00     0.162 HD
BRANCH  13  15
HETATM   15  C   UNL     1      26.129  41.469  49.824  1.00  0.00     0.128 C 
BRANCH  15  16
HETATM   16  C   UNL     1      26.281  40.013  50.269  1.00  0.00     0.066 C 
BRANCH  16  17
HETATM   17  C   UNL     1      27.384  39.303  49.533  1.00  0.00    -0.016 A 
HETATM   18  C   UNL     1      28.691  39.112  49.937  1.00  0.00     0.015 A 
HETATM   19  C   UNL     1      29.453  38.384  48.977  1.00  0.00     0.008 A 
HETATM   20  C   UNL     1      28.704  38.047  47.872  1.00  0.00     0.050 A 
HETATM   21  S   UNL     1      27.093  38.608  47.994  1.00  0.00    -0.107 SA
ENDBRANCH  16  17
ENDBRANCH  15  16
ENDBRANCH  13  15
ENDBRANCH   1  11
BRANCH   7  22
HETATM   22  C   UNL     1      30.432  44.468  56.536  1.00  0.00     0.010 A 
HETATM   23  C   UNL     1      31.496  43.648  56.980  1.00  0.00     0.152 A 
HETATM   24  N   UNL     1      32.045  44.081  58.119  1.00  0.00    -0.187 NA
HETATM   25  N   UNL     1      31.331  45.181  58.410  1.00  0.00    -0.289 N 
HETATM   26  H   UNL     1      31.567  45.698  59.250  1.00  0.00     0.188 HD
HETATM   27  C   UNL     1      30.358  45.458  57.494  1.00  0.00     0.123 A 
ENDBRANCH   7  22
TORSDOF 5
ENDMDL
MODEL 7
REMARK VINA RESULT:      -8.1      3.429      5.680
REMARK  5 active torsions:
REMARK  status: ('A' for Active; 'I' for Inactive)
REMARK       I    between atoms: C_2  and  N_3 
REMARK    1  A    between atoms: C_2  and  C_11 
REMARK    2  A    between atoms: N_3  and  C_4 
REMARK    3  A    between atoms: C_4  and  C_5 
REMARK    4  A    between atoms: C_5  and  C_6 
REMARK    5  A    between atoms: C_17  and  C_21 
ROOT
HETATM    1  C   UNL     1      27.060  44.232  51.763  1.00  0.00     0.059 A 
HETATM    2  C   UNL     1      26.140  45.102  52.330  1.00  0.00     0.106 A 
HETATM    3  N   UNL     1      26.555  45.414  53.598  1.00  0.00    -0.364 N 
HETATM    4  H   UNL     1      26.073  46.035  54.233  1.00  0.00     0.165 HD
HETATM    5  C   UNL     1      27.739  44.777  53.882  1.00  0.00     0.044 A 
HETATM    6  C   UNL     1      28.526  44.816  55.042  1.00  0.00     0.042 A 
HETATM    7  C   UNL     1      29.710  44.059  55.073  1.00  0.00    -0.021 A 
HETATM    8  C   UNL     1      30.068  43.294  53.958  1.00  0.00     0.013 A 
HETATM    9  C   UNL     1      29.269  43.270  52.805  1.00  0.00     0.016 A 
HETATM   10  C   UNL     1      28.080  44.026  52.758  1.00  0.00     0.008 A 
ENDROOT
BRANCH   1  11
HETATM   11  C   UNL     1      27.024  43.655  50.417  1.00  0.00     0.253 C 
HETATM   12  O   UNL     1      27.202  44.324  49.403  1.00  0.00    -0.268 OA
HETATM   13  N   UNL     1      26.786  42.297  50.367  1.00  0.00    -0.356 N 
HETATM   14  H   UNL     1      26.901  41.771  51.222  1.00  0.00     0.162 HD
BRANCH  13  15
HETATM   15  C   UNL     1      26.857  41.567  49.116  1.00  0.00     0.128 C 
BRANCH  15  16
HETATM   16  C   UNL     1      28.068  40.636  49.042  1.00  0.00     0.066 C 
BRANCH  16  17
HETATM   17  C   UNL     1      27.675  39.206  48.788  1.00  0.00    -0.016 A 
HETATM   18  C   UNL     1      26.941  38.368  49.604  1.00  0.00     0.015 A 
HETATM   19  C   UNL     1      26.759  37.077  49.028  1.00  0.00     0.008 A 
HETATM   20  C   UNL     1      27.363  36.971  47.796  1.00  0.00     0.050 A 
HETATM   21  S   UNL     1      28.146  38.421  47.339  1.00  0.00    -0.107 SA
ENDBRANCH  16  17
ENDBRANCH  15  16
ENDBRANCH  13  15
ENDBRANCH   1  11
BRANCH   7  22
HETATM   22  C   UNL     1      30.553  44.094  56.257  1.00  0.00     0.010 A 
HETATM   23  C   UNL     1      31.563  43.209  56.698  1.00  0.00     0.152 A 
HETATM   24  N   UNL     1      32.129  43.596  57.845  1.00  0.00    -0.187 NA
HETATM   25  N   UNL     1      31.479  44.733  58.144  1.00  0.00    -0.289 N 
HETATM   26  H   UNL     1      31.738  45.226  58.992  1.00  0.00     0.188 HD
HETATM   27  C   UNL     1      30.529  45.076  57.226  1.00  0.00     0.123 A 
ENDBRANCH   7  22
TORSDOF 5
ENDMDL
MODEL 8
REMARK VINA RESULT:      -8.0      4.110      7.373
REMARK  5 active torsions:
REMARK  status: ('A' for Active; 'I' for Inactive)
REMARK       I    between atoms: C_2  and  N_3 
REMARK    1  A    between atoms: C_2  and  C_11 
REMARK    2  A    between atoms: N_3  and  C_4 
REMARK    3  A    between atoms: C_4  and  C_5 
REMARK    4  A    between atoms: C_5  and  C_6 
REMARK    5  A    between atoms: C_17  and  C_21 
ROOT
HETATM    1  C   UNL     1      26.342  44.019  52.425  1.00  0.00     0.059 A 
HETATM    2  C   UNL     1      25.107  43.777  51.839  1.00  0.00     0.106 A 
HETATM    3  N   UNL     1      25.163  42.578  51.179  1.00  0.00    -0.364 N 
HETATM    4  H   UNL     1      24.398  42.157  50.670  1.00  0.00     0.165 HD
HETATM    5  C   UNL     1      26.406  42.012  51.323  1.00  0.00     0.044 A 
HETATM    6  C   UNL     1      26.902  40.794  50.834  1.00  0.00     0.042 A 
HETATM    7  C   UNL     1      28.231  40.447  51.131  1.00  0.00    -0.021 A 
HETATM    8  C   UNL     1      29.016  41.315  51.898  1.00  0.00     0.013 A 
HETATM    9  C   UNL     1      28.501  42.527  52.380  1.00  0.00     0.016 A 
HETATM   10  C   UNL     1      27.169  42.889  52.093  1.00  0.00     0.008 A 
ENDROOT
BRANCH   1  11
HETATM   11  C   UNL     1      26.726  45.173  53.240  1.00  0.00     0.253 C 
HETATM   12  O   UNL     1      26.514  46.332  52.893  1.00  0.00    -0.268 OA
HETATM   13  N   UNL     1      27.335  44.868  54.440  1.00  0.00    -0.356 N 
HETATM   14  H   UNL     1      27.251  43.919  54.778  1.00  0.00     0.162 HD
BRANCH  13  15
HETATM   15  C   UNL     1      27.646  45.900  55.410  1.00  0.00     0.128 C 
BRANCH  15  16
HETATM   16  C   UNL     1      29.120  46.310  55.385  1.00  0.00     0.066 C 
BRANCH  16  17
HETATM   17  C   UNL     1      29.991  45.355  56.155  1.00  0.00    -0.016 A 
HETATM   18  C   UNL     1      30.556  44.175  55.714  1.00  0.00     0.015 A 
HETATM   19  C   UNL     1      31.330  43.535  56.725  1.00  0.00     0.008 A 
HETATM   20  C   UNL     1      31.328  44.246  57.904  1.00  0.00     0.050 A 
HETATM   21  S   UNL     1      30.396  45.674  57.790  1.00  0.00    -0.107 SA
ENDBRANCH  16  17
ENDBRANCH  15  16
ENDBRANCH  13  15
ENDBRANCH   1  11
BRANCH   7  22
HETATM   22  C   UNL     1      28.766  39.183  50.651  1.00  0.00     0.010 A 
HETATM   23  C   UNL     1      29.896  38.441  51.066  1.00  0.00     0.152 A 
HETATM   24  N   UNL     1      30.052  37.304  50.380  1.00  0.00    -0.187 NA
HETATM   25  N   UNL     1      29.021  37.317  49.519  1.00  0.00    -0.289 N 
HETATM   26  H   UNL     1      28.922  36.539  48.876  1.00  0.00     0.188 HD
HETATM   27  C   UNL     1      28.221  38.416  49.642  1.00  0.00     0.123 A 
ENDBRANCH   7  22
TORSDOF 5
ENDMDL
MODEL 9
REMARK VINA RESULT:      -7.9      3.374      8.628
REMARK  5 active torsions:
REMARK  status: ('A' for Active; 'I' for Inactive)
REMARK       I    between atoms: C_2  and  N_3 
REMARK    1  A    between atoms: C_2  and  C_11 
REMARK    2  A    between atoms: N_3  and  C_4 
REMARK    3  A    between atoms: C_4  and  C_5 
REMARK    4  A    between atoms: C_5  and  C_6 
REMARK    5  A    between atoms: C_17  and  C_21 
ROOT
HETATM    1  C   UNL     1      25.431  43.753  51.245  1.00  0.00     0.059 A 
HETATM    2  C   UNL     1      24.296  43.054  50.858  1.00  0.00     0.106 A 
HETATM    3  N   UNL     1      23.478  43.901  50.158  1.00  0.00    -0.364 N 
HETATM    4  H   UNL     1      22.587  43.649  49.754  1.00  0.00     0.165 HD
HETATM    5  C   UNL     1      24.051  45.146  50.063  1.00  0.00     0.044 A 
HETATM    6  C   UNL     1      23.580  46.306  49.430  1.00  0.00     0.042 A 
HETATM    7  C   UNL     1      24.375  47.465  49.483  1.00  0.00    -0.021 A 
HETATM    8  C   UNL     1      25.600  47.430  50.158  1.00  0.00     0.013 A 
HETATM    9  C   UNL     1      26.054  46.260  50.782  1.00  0.00     0.016 A 
HETATM   10  C   UNL     1      25.270  45.089  50.736  1.00  0.00     0.008 A 
ENDROOT
BRANCH   1  11
HETATM   11  C   UNL     1      26.577  43.236  51.997  1.00  0.00     0.253 C 
HETATM   12  O   UNL     1      27.472  42.578  51.474  1.00  0.00    -0.268 OA
HETATM   13  N   UNL     1      26.588  43.553  53.340  1.00  0.00    -0.356 N 
HETATM   14  H   UNL     1      25.975  44.294  53.650  1.00  0.00     0.162 HD
BRANCH  13  15
HETATM   15  C   UNL     1      27.725  43.227  54.180  1.00  0.00     0.128 C 
BRANCH  15  16
HETATM   16  C   UNL     1      28.788  44.327  54.189  1.00  0.00     0.066 C 
BRANCH  16  17
HETATM   17  C   UNL     1      29.762  44.171  55.324  1.00  0.00    -0.016 A 
HETATM   18  C   UNL     1      30.613  43.112  55.575  1.00  0.00     0.015 A 
HETATM   19  C   UNL     1      31.400  43.317  56.746  1.00  0.00     0.008 A 
HETATM   20  C   UNL     1      31.120  44.521  57.351  1.00  0.00     0.050 A 
HETATM   21  S   UNL     1      29.916  45.397  56.512  1.00  0.00    -0.107 SA
ENDBRANCH  16  17
ENDBRANCH  15  16
ENDBRANCH  13  15
ENDBRANCH   1  11
BRANCH   7  22
HETATM   22  C   UNL     1      23.920  48.677  48.822  1.00  0.00     0.010 A 
HETATM   23  C   UNL     1      24.645  49.705  48.175  1.00  0.00     0.152 A 
HETATM   24  N   UNL     1      23.856  50.658  47.670  1.00  0.00    -0.187 NA
HETATM   25  N   UNL     1      22.621  50.244  47.994  1.00  0.00    -0.289 N 
HETATM   26  H   UNL     1      21.832  50.816  47.712  1.00  0.00     0.188 HD
HETATM   27  C   UNL     1      22.603  49.064  48.680  1.00  0.00     0.123 A 
ENDBRANCH   7  22
TORSDOF 5
ENDMDL
MODEL 10
REMARK VINA RESULT:      -7.8      3.744      5.656
REMARK  5 active torsions:
REMARK  status: ('A' for Active; 'I' for Inactive)
REMARK       I    between atoms: C_2  and  N_3 
REMARK    1  A    between atoms: C_2  and  C_11 
REMARK    2  A    between atoms: N_3  and  C_4 
REMARK    3  A    between atoms: C_4  and  C_5 
REMARK    4  A    between atoms: C_5  and  C_6 
REMARK    5  A    between atoms: C_17  and  C_21 
ROOT
HETATM    1  C   UNL     1      26.704  43.515  51.509  1.00  0.00     0.059 A 
HETATM    2  C   UNL     1      25.620  44.121  52.129  1.00  0.00     0.106 A 
HETATM    3  N   UNL     1      25.988  44.483  53.398  1.00  0.00    -0.364 N 
HETATM    4  H   UNL     1      25.392  44.949  54.067  1.00  0.00     0.165 HD
HETATM    5  C   UNL     1      27.298  44.142  53.630  1.00  0.00     0.044 A 
HETATM    6  C   UNL     1      28.089  44.333  54.772  1.00  0.00     0.042 A 
HETATM    7  C   UNL     1      29.421  43.883  54.746  1.00  0.00    -0.021 A 
HETATM    8  C   UNL     1      29.916  43.262  53.595  1.00  0.00     0.013 A 
HETATM    9  C   UNL     1      29.110  43.082  52.461  1.00  0.00     0.016 A 
HETATM   10  C   UNL     1      27.774  43.530  52.470  1.00  0.00     0.008 A 
ENDROOT
BRANCH   1  11
HETATM   11  C   UNL     1      26.763  42.990  50.143  1.00  0.00     0.253 C 
HETATM   12  O   UNL     1      27.036  43.691  49.173  1.00  0.00    -0.268 OA
HETATM   13  N   UNL     1      26.504  41.640  50.022  1.00  0.00    -0.356 N 
HETATM   14  H   UNL     1      26.540  41.080  50.863  1.00  0.00     0.162 HD
BRANCH  13  15
HETATM   15  C   UNL     1      26.660  40.955  48.754  1.00  0.00     0.128 C 
BRANCH  15  16
HETATM   16  C   UNL     1      28.124  40.660  48.417  1.00  0.00     0.066 C 
BRANCH  16  17
HETATM   17  C   UNL     1      28.715  39.608  49.315  1.00  0.00    -0.016 A 
HETATM   18  C   UNL     1      28.928  39.673  50.677  1.00  0.00     0.015 A 
HETATM   19  C   UNL     1      29.506  38.476  51.193  1.00  0.00     0.008 A 
HETATM   20  C   UNL     1      29.717  37.540  50.206  1.00  0.00     0.050 A 
HETATM   21  S   UNL     1      29.224  38.103  48.670  1.00  0.00    -0.107 SA
ENDBRANCH  16  17
ENDBRANCH  15  16
ENDBRANCH  13  15
ENDBRANCH   1  11
BRANCH   7  22
HETATM   22  C   UNL     1      30.268  44.083  55.911  1.00  0.00     0.010 A 
HETATM   23  C   UNL     1      30.317  45.142  56.847  1.00  0.00     0.152 A 
HETATM   24  N   UNL     1      31.235  44.951  57.799  1.00  0.00    -0.187 NA
HETATM   25  N   UNL     1      31.780  43.768  57.473  1.00  0.00    -0.289 N 
HETATM   26  H   UNL     1      32.520  43.401  58.063  1.00  0.00     0.188 HD
HETATM   27  C   UNL     1      31.236  43.206  56.355  1.00  0.00     0.123 A 
ENDBRANCH   7  22
TORSDOF 5
ENDMDL
