MODEL 1
REMARK VINA RESULT:      -9.4      0.000      0.000
REMARK  5 active torsions:
REMARK  status: ('A' for Active; 'I' for Inactive)
REMARK    1  A    between atoms: C_9  and  C_10 
REMARK    2  A    between atoms: C_13  and  O_14 
REMARK    3  A    between atoms: O_14  and  C_15 
REMARK    4  A    between atoms: C_20  and  C_21 
REMARK       I    between atoms: C_21  and  N_22 
REMARK    5  A    between atoms: N_22  and  C_23 
ROOT
HETATM    1  C   UNL     1      28.771  40.764  52.325  1.00  0.00     0.070 C 
HETATM    2  C   UNL     1      27.569  41.393  51.664  1.00  0.00     0.037 A 
HETATM    3  N   UNL     1      27.198  40.850  50.439  1.00  0.00    -0.192 N 
HETATM    4  C   UNL     1      26.095  41.228  49.766  1.00  0.00     0.725 A 
HETATM    5  N   UNL     1      25.345  42.268  50.243  1.00  0.00    -0.084 N 
HETATM    6  N   UNL     1      24.204  42.412  49.535  1.00  0.00    -0.149 NA
HETATM    7  C   UNL     1      24.390  41.492  48.581  1.00  0.00     0.275 A 
HETATM    8  N   UNL     1      25.531  40.741  48.691  1.00  0.00    -0.054 NA
HETATM    9  C   UNL     1      25.660  43.020  51.462  1.00  0.00     0.202 A 
HETATM   10  C   UNL     1      26.848  42.411  52.195  1.00  0.00     0.062 A 
HETATM   11  H   UNL     1      27.736  40.062  50.089  1.00  0.00     0.184 HD
ENDROOT
BRANCH   9  12
HETATM   12  C   UNL     1      25.837  44.498  51.133  1.00  0.00    -0.028 A 
HETATM   13  C   UNL     1      26.712  44.886  50.107  1.00  0.00     0.012 A 
HETATM   14  C   UNL     1      26.893  46.237  49.802  1.00  0.00     0.037 A 
HETATM   15  C   UNL     1      26.204  47.226  50.505  1.00  0.00     0.074 A 
HETATM   16  C   UNL     1      25.348  46.853  51.542  1.00  0.00     0.037 A 
HETATM   17  C   UNL     1      25.167  45.501  51.854  1.00  0.00     0.012 A 
BRANCH  15  18
HETATM   18  O   UNL     1      26.474  48.505  50.107  1.00  0.00    -0.290 OA
BRANCH  18  19
HETATM   19  C   UNL     1      27.296  48.643  48.961  1.00  0.00     0.505 C 
HETATM   20  F   UNL     1      26.636  49.362  48.020  1.00  0.00    -0.184 F 
HETATM   21  F   UNL     1      28.375  49.383  49.326  1.00  0.00    -0.184 F 
ENDBRANCH  18  19
ENDBRANCH  15  18
ENDBRANCH   9  12
BRANCH  10  22
HETATM   22  C   UNL     1      27.252  43.037  53.482  1.00  0.00     0.256 C 
HETATM   23  N   UNL     1      28.534  43.543  53.457  1.00  0.00    -0.323 N 
HETATM   24  H   UNL     1      29.067  43.450  52.604  1.00  0.00     0.169 HD
HETATM   25  O   UNL     1      26.458  43.061  54.415  1.00  0.00    -0.267 OA
BRANCH  23  26
HETATM   26  C   UNL     1      29.203  44.218  54.503  1.00  0.00     0.035 A 
HETATM   27  C   UNL     1      28.821  45.466  54.997  1.00  0.00     0.029 A 
HETATM   28  C   UNL     1      29.549  46.073  56.026  1.00  0.00     0.002 A 
HETATM   29  C   UNL     1      30.658  45.434  56.575  1.00  0.00     0.000 A 
HETATM   30  C   UNL     1      31.043  44.186  56.093  1.00  0.00     0.002 A 
HETATM   31  C   UNL     1      30.323  43.584  55.058  1.00  0.00     0.029 A 
ENDBRANCH  23  26
ENDBRANCH  10  22
TORSDOF 5
ENDMDL
MODEL 2
REMARK VINA RESULT:      -8.8      2.154      3.005
REMARK  5 active torsions:
REMARK  status: ('A' for Active; 'I' for Inactive)
REMARK    1  A    between atoms: C_9  and  C_10 
REMARK    2  A    between atoms: C_13  and  O_14 
REMARK    3  A    between atoms: O_14  and  C_15 
REMARK    4  A    between atoms: C_20  and  C_21 
REMARK       I    between atoms: C_21  and  N_22 
REMARK    5  A    between atoms: N_22  and  C_23 
ROOT
HETATM    1  C   UNL     1      29.972  42.302  53.348  1.00  0.00     0.070 C 
HETATM    2  C   UNL     1      28.795  41.929  52.481  1.00  0.00     0.037 A 
HETATM    3  N   UNL     1      29.062  41.036  51.448  1.00  0.00    -0.192 N 
HETATM    4  C   UNL     1      28.109  40.526  50.646  1.00  0.00     0.725 A 
HETATM    5  N   UNL     1      26.822  40.974  50.769  1.00  0.00    -0.084 N 
HETATM    6  N   UNL     1      25.978  40.255  49.999  1.00  0.00    -0.149 NA
HETATM    7  C   UNL     1      26.847  39.462  49.359  1.00  0.00     0.275 A 
HETATM    8  N   UNL     1      28.159  39.592  49.732  1.00  0.00    -0.054 NA
HETATM    9  C   UNL     1      26.393  41.993  51.733  1.00  0.00     0.202 A 
HETATM   10  C   UNL     1      27.532  42.388  52.663  1.00  0.00     0.062 A 
HETATM   11  H   UNL     1      30.011  40.681  51.365  1.00  0.00     0.184 HD
ENDROOT
BRANCH   9  12
HETATM   12  C   UNL     1      25.764  43.173  51.001  1.00  0.00    -0.028 A 
HETATM   13  C   UNL     1      24.396  43.441  51.153  1.00  0.00     0.012 A 
HETATM   14  C   UNL     1      23.803  44.512  50.479  1.00  0.00     0.037 A 
HETATM   15  C   UNL     1      24.560  45.339  49.648  1.00  0.00     0.074 A 
HETATM   16  C   UNL     1      25.917  45.068  49.472  1.00  0.00     0.037 A 
HETATM   17  C   UNL     1      26.514  43.994  50.141  1.00  0.00     0.012 A 
BRANCH  15  18
HETATM   18  O   UNL     1      23.857  46.347  49.050  1.00  0.00    -0.290 OA
BRANCH  18  19
HETATM   19  C   UNL     1      24.015  47.639  49.611  1.00  0.00     0.505 C 
HETATM   20  F   UNL     1      24.424  47.521  50.898  1.00  0.00    -0.184 F 
HETATM   21  F   UNL     1      25.024  48.250  48.939  1.00  0.00    -0.184 F 
ENDBRANCH  18  19
ENDBRANCH  15  18
ENDBRANCH   9  12
BRANCH  10  22
HETATM   22  C   UNL     1      27.231  43.376  53.733  1.00  0.00     0.256 C 
HETATM   23  N   UNL     1      27.463  44.679  53.345  1.00  0.00    -0.323 N 
HETATM   24  H   UNL     1      27.803  44.844  52.407  1.00  0.00     0.169 HD
HETATM   25  O   UNL     1      26.816  42.983  54.816  1.00  0.00    -0.267 OA
BRANCH  23  26
HETATM   26  C   UNL     1      27.253  45.846  54.113  1.00  0.00     0.035 A 
HETATM   27  C   UNL     1      28.021  46.200  55.223  1.00  0.00     0.029 A 
HETATM   28  C   UNL     1      27.736  47.367  55.939  1.00  0.00     0.002 A 
HETATM   29  C   UNL     1      26.688  48.195  55.545  1.00  0.00     0.000 A 
HETATM   30  C   UNL     1      25.919  47.854  54.435  1.00  0.00     0.002 A 
HETATM   31  C   UNL     1      26.196  46.683  53.727  1.00  0.00     0.029 A 
ENDBRANCH  23  26
ENDBRANCH  10  22
TORSDOF 5
ENDMDL
MODEL 3
REMARK VINA RESULT:      -8.4      3.956      5.573
REMARK  5 active torsions:
REMARK  status: ('A' for Active; 'I' for Inactive)
REMARK    1  A    between atoms: C_9  and  C_10 
REMARK    2  A    between atoms: C_13  and  O_14 
REMARK    3  A    between atoms: O_14  and  C_15 
REMARK    4  A    between atoms: C_20  and  C_21 
REMARK       I    between atoms: C_21  and  N_22 
REMARK    5  A    between atoms: N_22  and  C_23 
ROOT
HETATM    1  C   UNL     1      24.894  44.617  54.648  1.00  0.00     0.070 C 
HETATM    2  C   UNL     1      25.266  44.417  53.199  1.00  0.00     0.037 A 
HETATM    3  N   UNL     1      24.312  44.815  52.268  1.00  0.00    -0.192 N 
HETATM    4  C   UNL     1      24.524  44.797  50.939  1.00  0.00     0.725 A 
HETATM    5  N   UNL     1      25.689  44.268  50.454  1.00  0.00    -0.084 N 
HETATM    6  N   UNL     1      25.800  44.467  49.124  1.00  0.00    -0.149 NA
HETATM    7  C   UNL     1      24.614  45.026  48.860  1.00  0.00     0.275 A 
HETATM    8  N   UNL     1      23.807  45.253  49.945  1.00  0.00    -0.054 NA
HETATM    9  C   UNL     1      26.750  43.705  51.296  1.00  0.00     0.202 A 
HETATM   10  C   UNL     1      26.449  43.906  52.775  1.00  0.00     0.062 A 
HETATM   11  H   UNL     1      23.455  45.231  52.619  1.00  0.00     0.184 HD
ENDROOT
BRANCH   9  12
HETATM   12  C   UNL     1      27.002  42.250  50.915  1.00  0.00    -0.028 A 
HETATM   13  C   UNL     1      28.317  41.787  50.756  1.00  0.00     0.012 A 
HETATM   14  C   UNL     1      28.563  40.460  50.396  1.00  0.00     0.037 A 
HETATM   15  C   UNL     1      27.508  39.567  50.195  1.00  0.00     0.074 A 
HETATM   16  C   UNL     1      26.197  40.023  50.329  1.00  0.00     0.037 A 
HETATM   17  C   UNL     1      25.946  41.353  50.685  1.00  0.00     0.012 A 
BRANCH  15  18
HETATM   18  O   UNL     1      27.888  38.302  49.846  1.00  0.00    -0.290 OA
BRANCH  18  19
HETATM   19  C   UNL     1      29.251  37.976  50.059  1.00  0.00     0.505 C 
HETATM   20  F   UNL     1      29.330  36.858  50.822  1.00  0.00    -0.184 F 
HETATM   21  F   UNL     1      29.782  37.658  48.851  1.00  0.00    -0.184 F 
ENDBRANCH  18  19
ENDBRANCH  15  18
ENDBRANCH   9  12
BRANCH  10  22
HETATM   22  C   UNL     1      27.465  43.433  53.751  1.00  0.00     0.256 C 
HETATM   23  N   UNL     1      28.319  44.432  54.168  1.00  0.00    -0.323 N 
HETATM   24  H   UNL     1      28.188  45.360  53.790  1.00  0.00     0.169 HD
HETATM   25  O   UNL     1      27.464  42.259  54.100  1.00  0.00    -0.267 OA
BRANCH  23  26
HETATM   26  C   UNL     1      29.371  44.317  55.104  1.00  0.00     0.035 A 
HETATM   27  C   UNL     1      30.306  43.280  55.107  1.00  0.00     0.029 A 
HETATM   28  C   UNL     1      31.308  43.233  56.081  1.00  0.00     0.002 A 
HETATM   29  C   UNL     1      31.390  44.225  57.055  1.00  0.00     0.000 A 
HETATM   30  C   UNL     1      30.466  45.266  57.057  1.00  0.00     0.002 A 
HETATM   31  C   UNL     1      29.458  45.309  56.091  1.00  0.00     0.029 A 
ENDBRANCH  23  26
ENDBRANCH  10  22
TORSDOF 5
ENDMDL
MODEL 4
REMARK VINA RESULT:      -8.4      4.016      6.076
REMARK  5 active torsions:
REMARK  status: ('A' for Active; 'I' for Inactive)
REMARK    1  A    between atoms: C_9  and  C_10 
REMARK    2  A    between atoms: C_13  and  O_14 
REMARK    3  A    between atoms: O_14  and  C_15 
REMARK    4  A    between atoms: C_20  and  C_21 
REMARK       I    between atoms: C_21  and  N_22 
REMARK    5  A    between atoms: N_22  and  C_23 
ROOT
HETATM    1  C   UNL     1      24.263  44.282  51.792  1.00  0.00     0.070 C 
HETATM    2  C   UNL     1      24.507  43.455  50.553  1.00  0.00     0.037 A 
HETATM    3  N   UNL     1      23.369  42.993  49.899  1.00  0.00    -0.192 N 
HETATM    4  C   UNL     1      23.407  42.328  48.729  1.00  0.00     0.725 A 
HETATM    5  N   UNL     1      24.619  41.988  48.192  1.00  0.00    -0.084 N 
HETATM    6  N   UNL     1      24.477  41.464  46.957  1.00  0.00    -0.149 NA
HETATM    7  C   UNL     1      23.143  41.421  46.862  1.00  0.00     0.275 A 
HETATM    8  N   UNL     1      22.452  41.947  47.922  1.00  0.00    -0.054 NA
HETATM    9  C   UNL     1      25.911  42.302  48.812  1.00  0.00     0.202 A 
HETATM   10  C   UNL     1      25.734  43.167  50.053  1.00  0.00     0.062 A 
HETATM   11  H   UNL     1      22.465  43.261  50.278  1.00  0.00     0.184 HD
ENDROOT
BRANCH   9  12
HETATM   12  C   UNL     1      26.694  41.019  49.067  1.00  0.00    -0.028 A 
HETATM   13  C   UNL     1      26.143  40.013  49.875  1.00  0.00     0.012 A 
HETATM   14  C   UNL     1      26.853  38.837  50.127  1.00  0.00     0.037 A 
HETATM   15  C   UNL     1      28.120  38.636  49.578  1.00  0.00     0.074 A 
HETATM   16  C   UNL     1      28.687  39.639  48.791  1.00  0.00     0.037 A 
HETATM   17  C   UNL     1      27.981  40.821  48.539  1.00  0.00     0.012 A 
BRANCH  15  18
HETATM   18  O   UNL     1      28.704  37.445  49.905  1.00  0.00    -0.290 OA
BRANCH  18  19
HETATM   19  C   UNL     1      29.875  37.518  50.698  1.00  0.00     0.505 C 
HETATM   20  F   UNL     1      29.790  38.589  51.526  1.00  0.00    -0.184 F 
HETATM   21  F   UNL     1      29.894  36.416  51.492  1.00  0.00    -0.184 F 
ENDBRANCH  18  19
ENDBRANCH  15  18
ENDBRANCH   9  12
BRANCH  10  22
HETATM   22  C   UNL     1      26.964  43.612  50.759  1.00  0.00     0.256 C 
HETATM   23  N   UNL     1      27.200  42.914  51.924  1.00  0.00    -0.323 N 
HETATM   24  H   UNL     1      26.545  42.191  52.188  1.00  0.00     0.169 HD
HETATM   25  O   UNL     1      27.643  44.510  50.276  1.00  0.00    -0.267 OA
BRANCH  23  26
HETATM   26  C   UNL     1      28.292  43.075  52.806  1.00  0.00     0.035 A 
HETATM   27  C   UNL     1      29.521  42.432  52.654  1.00  0.00     0.029 A 
HETATM   28  C   UNL     1      30.547  42.635  53.584  1.00  0.00     0.002 A 
HETATM   29  C   UNL     1      30.355  43.490  54.667  1.00  0.00     0.000 A 
HETATM   30  C   UNL     1      29.134  44.141  54.824  1.00  0.00     0.002 A 
HETATM   31  C   UNL     1      28.106  43.930  53.902  1.00  0.00     0.029 A 
ENDBRANCH  23  26
ENDBRANCH  10  22
TORSDOF 5
ENDMDL
MODEL 5
REMARK VINA RESULT:      -8.3      3.413      6.244
REMARK  5 active torsions:
REMARK  status: ('A' for Active; 'I' for Inactive)
REMARK    1  A    between atoms: C_9  and  C_10 
REMARK    2  A    between atoms: C_13  and  O_14 
REMARK    3  A    between atoms: O_14  and  C_15 
REMARK    4  A    between atoms: C_20  and  C_21 
REMARK       I    between atoms: C_21  and  N_22 
REMARK    5  A    between atoms: N_22  and  C_23 
ROOT
HETATM    1  C   UNL     1      23.632  43.913  50.484  1.00  0.00     0.070 C 
HETATM    2  C   UNL     1      24.974  43.246  50.667  1.00  0.00     0.037 A 
HETATM    3  N   UNL     1      24.965  41.855  50.650  1.00  0.00    -0.192 N 
HETATM    4  C   UNL     1      26.084  41.109  50.700  1.00  0.00     0.725 A 
HETATM    5  N   UNL     1      27.292  41.725  50.882  1.00  0.00    -0.084 N 
HETATM    6  N   UNL     1      28.312  40.850  50.758  1.00  0.00    -0.149 NA
HETATM    7  C   UNL     1      27.635  39.705  50.610  1.00  0.00     0.275 A 
HETATM    8  N   UNL     1      26.270  39.821  50.561  1.00  0.00    -0.054 NA
HETATM    9  C   UNL     1      27.463  43.174  51.029  1.00  0.00     0.202 A 
HETATM   10  C   UNL     1      26.146  43.910  50.821  1.00  0.00     0.062 A 
HETATM   11  H   UNL     1      24.076  41.390  50.491  1.00  0.00     0.184 HD
ENDROOT
BRANCH   9  12
HETATM   12  C   UNL     1      28.135  43.489  52.362  1.00  0.00    -0.028 A 
HETATM   13  C   UNL     1      29.524  43.346  52.494  1.00  0.00     0.012 A 
HETATM   14  C   UNL     1      30.152  43.619  53.711  1.00  0.00     0.037 A 
HETATM   15  C   UNL     1      29.413  44.045  54.817  1.00  0.00     0.074 A 
HETATM   16  C   UNL     1      28.029  44.169  54.702  1.00  0.00     0.037 A 
HETATM   17  C   UNL     1      27.394  43.892  53.486  1.00  0.00     0.012 A 
BRANCH  15  18
HETATM   18  O   UNL     1      30.151  44.276  55.943  1.00  0.00    -0.290 OA
BRANCH  18  19
HETATM   19  C   UNL     1      31.193  43.354  56.210  1.00  0.00     0.505 C 
HETATM   20  F   UNL     1      32.040  43.888  57.124  1.00  0.00    -0.184 F 
HETATM   21  F   UNL     1      30.629  42.266  56.795  1.00  0.00    -0.184 F 
ENDBRANCH  18  19
ENDBRANCH  15  18
ENDBRANCH   9  12
BRANCH  10  22
HETATM   22  C   UNL     1      26.173  45.395  50.887  1.00  0.00     0.256 C 
HETATM   23  N   UNL     1      26.404  45.986  49.662  1.00  0.00    -0.323 N 
HETATM   24  H   UNL     1      26.530  45.385  48.859  1.00  0.00     0.169 HD
HETATM   25  O   UNL     1      25.992  45.954  51.962  1.00  0.00    -0.267 OA
BRANCH  23  26
HETATM   26  C   UNL     1      26.463  47.369  49.382  1.00  0.00     0.035 A 
HETATM   27  C   UNL     1      25.341  48.180  49.206  1.00  0.00     0.029 A 
HETATM   28  C   UNL     1      25.488  49.540  48.914  1.00  0.00     0.002 A 
HETATM   29  C   UNL     1      26.757  50.102  48.807  1.00  0.00     0.000 A 
HETATM   30  C   UNL     1      27.883  49.304  48.987  1.00  0.00     0.002 A 
HETATM   31  C   UNL     1      27.737  47.943  49.267  1.00  0.00     0.029 A 
ENDBRANCH  23  26
ENDBRANCH  10  22
TORSDOF 5
ENDMDL
MODEL 6
REMARK VINA RESULT:      -8.1      3.547      5.316
REMARK  5 active torsions:
REMARK  status: ('A' for Active; 'I' for Inactive)
REMARK    1  A    between atoms: C_9  and  C_10 
REMARK    2  A    between atoms: C_13  and  O_14 
REMARK    3  A    between atoms: O_14  and  C_15 
REMARK    4  A    between atoms: C_20  and  C_21 
REMARK       I    between atoms: C_21  and  N_22 
REMARK    5  A    between atoms: N_22  and  C_23 
ROOT
HETATM    1  C   UNL     1      25.840  46.875  55.092  1.00  0.00     0.070 C 
HETATM    2  C   UNL     1      26.127  46.517  53.654  1.00  0.00     0.037 A 
HETATM    3  N   UNL     1      25.434  47.252  52.697  1.00  0.00    -0.192 N 
HETATM    4  C   UNL     1      25.646  47.128  51.374  1.00  0.00     0.725 A 
HETATM    5  N   UNL     1      26.506  46.164  50.921  1.00  0.00    -0.084 N 
HETATM    6  N   UNL     1      26.713  46.279  49.592  1.00  0.00    -0.149 NA
HETATM    7  C   UNL     1      25.860  47.266  49.296  1.00  0.00     0.275 A 
HETATM    8  N   UNL     1      25.194  47.818  50.359  1.00  0.00    -0.054 NA
HETATM    9  C   UNL     1      27.232  45.234  51.792  1.00  0.00     0.202 A 
HETATM   10  C   UNL     1      27.009  45.564  53.262  1.00  0.00     0.062 A 
HETATM   11  H   UNL     1      24.812  47.985  53.024  1.00  0.00     0.184 HD
ENDROOT
BRANCH   9  12
HETATM   12  C   UNL     1      26.880  43.795  51.429  1.00  0.00    -0.028 A 
HETATM   13  C   UNL     1      27.887  42.820  51.382  1.00  0.00     0.012 A 
HETATM   14  C   UNL     1      27.582  41.501  51.039  1.00  0.00     0.037 A 
HETATM   15  C   UNL     1      26.270  41.125  50.744  1.00  0.00     0.074 A 
HETATM   16  C   UNL     1      25.265  42.091  50.766  1.00  0.00     0.037 A 
HETATM   17  C   UNL     1      25.567  43.415  51.104  1.00  0.00     0.012 A 
BRANCH  15  18
HETATM   18  O   UNL     1      26.111  39.806  50.424  1.00  0.00    -0.290 OA
BRANCH  18  19
HETATM   19  C   UNL     1      26.270  39.469  49.057  1.00  0.00     0.505 C 
HETATM   20  F   UNL     1      26.657  40.570  48.367  1.00  0.00    -0.184 F 
HETATM   21  F   UNL     1      27.295  38.582  48.977  1.00  0.00    -0.184 F 
ENDBRANCH  18  19
ENDBRANCH  15  18
ENDBRANCH   9  12
BRANCH  10  22
HETATM   22  C   UNL     1      27.728  44.737  54.267  1.00  0.00     0.256 C 
HETATM   23  N   UNL     1      28.917  45.299  54.678  1.00  0.00    -0.323 N 
HETATM   24  H   UNL     1      29.188  46.188  54.279  1.00  0.00     0.169 HD
HETATM   25  O   UNL     1      27.234  43.679  54.639  1.00  0.00    -0.267 OA
BRANCH  23  26
HETATM   26  C   UNL     1      29.817  44.782  55.636  1.00  0.00     0.035 A 
HETATM   27  C   UNL     1      30.564  43.616  55.457  1.00  0.00     0.029 A 
HETATM   28  C   UNL     1      31.422  43.163  56.464  1.00  0.00     0.002 A 
HETATM   29  C   UNL     1      31.549  43.876  57.653  1.00  0.00     0.000 A 
HETATM   30  C   UNL     1      30.813  45.043  57.839  1.00  0.00     0.002 A 
HETATM   31  C   UNL     1      29.947  45.491  56.839  1.00  0.00     0.029 A 
ENDBRANCH  23  26
ENDBRANCH  10  22
TORSDOF 5
ENDMDL
MODEL 7
REMARK VINA RESULT:      -8.0      3.232      5.361
REMARK  5 active torsions:
REMARK  status: ('A' for Active; 'I' for Inactive)
REMARK    1  A    between atoms: C_9  and  C_10 
REMARK    2  A    between atoms: C_13  and  O_14 
REMARK    3  A    between atoms: O_14  and  C_15 
REMARK    4  A    between atoms: C_20  and  C_21 
REMARK       I    between atoms: C_21  and  N_22 
REMARK    5  A    between atoms: N_22  and  C_23 
ROOT
HETATM    1  C   UNL     1      23.904  43.181  51.000  1.00  0.00     0.070 C 
HETATM    2  C   UNL     1      25.273  42.551  50.912  1.00  0.00     0.037 A 
HETATM    3  N   UNL     1      25.300  41.209  50.548  1.00  0.00    -0.192 N 
HETATM    4  C   UNL     1      26.439  40.526  50.328  1.00  0.00     0.725 A 
HETATM    5  N   UNL     1      27.641  41.133  50.570  1.00  0.00    -0.084 N 
HETATM    6  N   UNL     1      28.670  40.363  50.157  1.00  0.00    -0.149 NA
HETATM    7  C   UNL     1      28.013  39.261  49.777  1.00  0.00     0.275 A 
HETATM    8  N   UNL     1      26.646  39.323  49.858  1.00  0.00    -0.054 NA
HETATM    9  C   UNL     1      27.784  42.507  51.062  1.00  0.00     0.202 A 
HETATM   10  C   UNL     1      26.436  43.210  51.141  1.00  0.00     0.062 A 
HETATM   11  H   UNL     1      24.413  40.757  50.344  1.00  0.00     0.184 HD
ENDROOT
BRANCH   9  12
HETATM   12  C   UNL     1      28.555  42.513  52.378  1.00  0.00    -0.028 A 
HETATM   13  C   UNL     1      29.787  43.178  52.463  1.00  0.00     0.012 A 
HETATM   14  C   UNL     1      30.510  43.182  53.658  1.00  0.00     0.037 A 
HETATM   15  C   UNL     1      30.020  42.532  54.792  1.00  0.00     0.074 A 
HETATM   16  C   UNL     1      28.807  41.849  54.712  1.00  0.00     0.037 A 
HETATM   17  C   UNL     1      28.081  41.838  53.515  1.00  0.00     0.012 A 
BRANCH  15  18
HETATM   18  O   UNL     1      30.826  42.613  55.892  1.00  0.00    -0.290 OA
BRANCH  18  19
HETATM   19  C   UNL     1      31.073  43.915  56.392  1.00  0.00     0.505 C 
HETATM   20  F   UNL     1      29.912  44.616  56.410  1.00  0.00    -0.184 F 
HETATM   21  F   UNL     1      31.464  43.782  57.686  1.00  0.00    -0.184 F 
ENDBRANCH  18  19
ENDBRANCH  15  18
ENDBRANCH   9  12
BRANCH  10  22
HETATM   22  C   UNL     1      26.429  44.632  51.574  1.00  0.00     0.256 C 
HETATM   23  N   UNL     1      26.536  44.782  52.940  1.00  0.00    -0.323 N 
HETATM   24  H   UNL     1      26.606  43.948  53.507  1.00  0.00     0.169 HD
HETATM   25  O   UNL     1      26.342  45.517  50.732  1.00  0.00    -0.267 OA
BRANCH  23  26
HETATM   26  C   UNL     1      26.585  45.994  53.663  1.00  0.00     0.035 A 
HETATM   27  C   UNL     1      25.606  46.986  53.594  1.00  0.00     0.029 A 
HETATM   28  C   UNL     1      25.740  48.167  54.332  1.00  0.00     0.002 A 
HETATM   29  C   UNL     1      26.848  48.362  55.152  1.00  0.00     0.000 A 
HETATM   30  C   UNL     1      27.828  47.376  55.233  1.00  0.00     0.002 A 
HETATM   31  C   UNL     1      27.701  46.201  54.488  1.00  0.00     0.029 A 
ENDBRANCH  23  26
ENDBRANCH  10  22
TORSDOF 5
ENDMDL
MODEL 8
REMARK VINA RESULT:      -7.9     17.115     18.692
REMARK  5 active torsions:
REMARK  status: ('A' for Active; 'I' for Inactive)
REMARK    1  A    between atoms: C_9  and  C_10 
REMARK    2  A    between atoms: C_13  and  O_14 
REMARK    3  A    between atoms: O_14  and  C_15 
REMARK    4  A    between atoms: C_20  and  C_21 
REMARK       I    between atoms: C_21  and  N_22 
REMARK    5  A    between atoms: N_22  and  C_23 
ROOT
HETATM    1  C   UNL     1      35.679  43.682  65.794  1.00  0.00     0.070 C 
HETATM    2  C   UNL     1      36.891  43.097  65.112  1.00  0.00     0.037 A 
HETATM    3  N   UNL     1      37.068  41.725  65.262  1.00  0.00    -0.192 N 
HETATM    4  C   UNL     1      38.039  41.032  64.639  1.00  0.00     0.725 A 
HETATM    5  N   UNL     1      38.972  41.706  63.899  1.00  0.00    -0.084 N 
HETATM    6  N   UNL     1      39.774  40.853  63.228  1.00  0.00    -0.149 NA
HETATM    7  C   UNL     1      39.331  39.681  63.699  1.00  0.00     0.275 A 
HETATM    8  N   UNL     1      38.266  39.747  64.558  1.00  0.00    -0.054 NA
HETATM    9  C   UNL     1      38.993  43.163  63.730  1.00  0.00     0.202 A 
HETATM   10  C   UNL     1      37.773  43.812  64.370  1.00  0.00     0.062 A 
HETATM   11  H   UNL     1      36.366  41.214  65.790  1.00  0.00     0.184 HD
ENDROOT
BRANCH   9  12
HETATM   12  C   UNL     1      40.319  43.728  64.230  1.00  0.00    -0.028 A 
HETATM   13  C   UNL     1      41.090  44.546  63.391  1.00  0.00     0.012 A 
HETATM   14  C   UNL     1      42.312  45.061  63.831  1.00  0.00     0.037 A 
HETATM   15  C   UNL     1      42.786  44.778  65.113  1.00  0.00     0.074 A 
HETATM   16  C   UNL     1      42.038  43.948  65.947  1.00  0.00     0.037 A 
HETATM   17  C   UNL     1      40.815  43.426  65.509  1.00  0.00     0.012 A 
BRANCH  15  18
HETATM   18  O   UNL     1      43.993  45.344  65.414  1.00  0.00    -0.290 OA
BRANCH  18  19
HETATM   19  C   UNL     1      44.453  46.348  64.527  1.00  0.00     0.505 C 
HETATM   20  F   UNL     1      44.508  47.534  65.182  1.00  0.00    -0.184 F 
HETATM   21  F   UNL     1      45.730  46.033  64.189  1.00  0.00    -0.184 F 
ENDBRANCH  18  19
ENDBRANCH  15  18
ENDBRANCH   9  12
BRANCH  10  22
HETATM   22  C   UNL     1      37.629  45.285  64.232  1.00  0.00     0.256 C 
HETATM   23  N   UNL     1      38.268  45.986  65.233  1.00  0.00    -0.323 N 
HETATM   24  H   UNL     1      38.759  45.461  65.944  1.00  0.00     0.169 HD
HETATM   25  O   UNL     1      36.995  45.742  63.289  1.00  0.00    -0.267 OA
BRANCH  23  26
HETATM   26  C   UNL     1      38.344  47.389  65.374  1.00  0.00     0.035 A 
HETATM   27  C   UNL     1      37.342  48.172  65.951  1.00  0.00     0.029 A 
HETATM   28  C   UNL     1      37.490  49.560  66.038  1.00  0.00     0.002 A 
HETATM   29  C   UNL     1      38.644  50.176  65.560  1.00  0.00     0.000 A 
HETATM   30  C   UNL     1      39.651  49.404  64.988  1.00  0.00     0.002 A 
HETATM   31  C   UNL     1      39.500  48.019  64.891  1.00  0.00     0.029 A 
ENDBRANCH  23  26
ENDBRANCH  10  22
TORSDOF 5
ENDMDL
MODEL 9
REMARK VINA RESULT:      -7.4      2.349      6.291
REMARK  5 active torsions:
REMARK  status: ('A' for Active; 'I' for Inactive)
REMARK    1  A    between atoms: C_9  and  C_10 
REMARK    2  A    between atoms: C_13  and  O_14 
REMARK    3  A    between atoms: O_14  and  C_15 
REMARK    4  A    between atoms: C_20  and  C_21 
REMARK       I    between atoms: C_21  and  N_22 
REMARK    5  A    between atoms: N_22  and  C_23 
ROOT
HETATM    1  C   UNL     1      26.170  39.603  50.577  1.00  0.00     0.070 C 
HETATM    2  C   UNL     1      26.847  40.864  51.055  1.00  0.00     0.037 A 
HETATM    3  N   UNL     1      27.310  40.843  52.367  1.00  0.00    -0.192 N 
HETATM    4  C   UNL     1      28.022  41.845  52.916  1.00  0.00     0.725 A 
HETATM    5  N   UNL     1      28.221  42.994  52.201  1.00  0.00    -0.084 N 
HETATM    6  N   UNL     1      29.074  43.825  52.837  1.00  0.00    -0.149 NA
HETATM    7  C   UNL     1      29.260  43.154  53.980  1.00  0.00     0.275 A 
HETATM    8  N   UNL     1      28.641  41.935  54.064  1.00  0.00    -0.054 NA
HETATM    9  C   UNL     1      27.705  43.221  50.846  1.00  0.00     0.202 A 
HETATM   10  C   UNL     1      27.037  41.969  50.292  1.00  0.00     0.062 A 
HETATM   11  H   UNL     1      27.187  39.985  52.897  1.00  0.00     0.184 HD
ENDROOT
BRANCH   9  12
HETATM   12  C   UNL     1      26.805  44.452  50.829  1.00  0.00    -0.028 A 
HETATM   13  C   UNL     1      27.051  45.484  49.912  1.00  0.00     0.012 A 
HETATM   14  C   UNL     1      26.243  46.623  49.892  1.00  0.00     0.037 A 
HETATM   15  C   UNL     1      25.173  46.755  50.778  1.00  0.00     0.074 A 
HETATM   16  C   UNL     1      24.933  45.745  51.710  1.00  0.00     0.037 A 
HETATM   17  C   UNL     1      25.743  44.603  51.736  1.00  0.00     0.012 A 
BRANCH  15  18
HETATM   18  O   UNL     1      24.465  47.917  50.653  1.00  0.00    -0.290 OA
BRANCH  18  19
HETATM   19  C   UNL     1      23.562  47.986  49.563  1.00  0.00     0.505 C 
HETATM   20  F   UNL     1      24.164  48.610  48.521  1.00  0.00    -0.184 F 
HETATM   21  F   UNL     1      23.317  46.712  49.161  1.00  0.00    -0.184 F 
ENDBRANCH  18  19
ENDBRANCH  15  18
ENDBRANCH   9  12
BRANCH  10  22
HETATM   22  C   UNL     1      26.512  42.031  48.903  1.00  0.00     0.256 C 
HETATM   23  N   UNL     1      25.159  42.289  48.848  1.00  0.00    -0.323 N 
HETATM   24  H   UNL     1      24.661  42.409  49.719  1.00  0.00     0.169 HD
HETATM   25  O   UNL     1      27.279  41.864  47.962  1.00  0.00    -0.267 OA
BRANCH  23  26
HETATM   26  C   UNL     1      24.367  42.436  47.688  1.00  0.00     0.035 A 
HETATM   27  C   UNL     1      24.215  41.447  46.715  1.00  0.00     0.029 A 
HETATM   28  C   UNL     1      23.423  41.679  45.586  1.00  0.00     0.002 A 
HETATM   29  C   UNL     1      22.768  42.898  45.425  1.00  0.00     0.000 A 
HETATM   30  C   UNL     1      22.908  43.889  46.393  1.00  0.00     0.002 A 
HETATM   31  C   UNL     1      23.707  43.662  47.515  1.00  0.00     0.029 A 
ENDBRANCH  23  26
ENDBRANCH  10  22
TORSDOF 5
ENDMDL
MODEL 10
REMARK VINA RESULT:      -7.3      5.681      8.962
REMARK  5 active torsions:
REMARK  status: ('A' for Active; 'I' for Inactive)
REMARK    1  A    between atoms: C_9  and  C_10 
REMARK    2  A    between atoms: C_13  and  O_14 
REMARK    3  A    between atoms: O_14  and  C_15 
REMARK    4  A    between atoms: C_20  and  C_21 
REMARK       I    between atoms: C_21  and  N_22 
REMARK    5  A    between atoms: N_22  and  C_23 
ROOT
HETATM    1  C   UNL     1      25.472  49.458  48.770  1.00  0.00     0.070 C 
HETATM    2  C   UNL     1      25.002  48.099  49.231  1.00  0.00     0.037 A 
HETATM    3  N   UNL     1      25.992  47.247  49.710  1.00  0.00    -0.192 N 
HETATM    4  C   UNL     1      25.731  46.041  50.249  1.00  0.00     0.725 A 
HETATM    5  N   UNL     1      24.447  45.568  50.240  1.00  0.00    -0.084 N 
HETATM    6  N   UNL     1      24.343  44.424  50.949  1.00  0.00    -0.149 NA
HETATM    7  C   UNL     1      25.626  44.213  51.263  1.00  0.00     0.275 A 
HETATM    8  N   UNL     1      26.506  45.183  50.860  1.00  0.00    -0.054 NA
HETATM    9  C   UNL     1      23.306  46.294  49.673  1.00  0.00     0.202 A 
HETATM   10  C   UNL     1      23.709  47.691  49.220  1.00  0.00     0.062 A 
HETATM   11  H   UNL     1      26.944  47.599  49.742  1.00  0.00     0.184 HD
ENDROOT
BRANCH   9  12
HETATM   12  C   UNL     1      22.648  45.462  48.578  1.00  0.00    -0.028 A 
HETATM   13  C   UNL     1      23.443  44.812  47.622  1.00  0.00     0.012 A 
HETATM   14  C   UNL     1      22.854  44.056  46.606  1.00  0.00     0.037 A 
HETATM   15  C   UNL     1      21.467  43.925  46.525  1.00  0.00     0.074 A 
HETATM   16  C   UNL     1      20.666  44.585  47.457  1.00  0.00     0.037 A 
HETATM   17  C   UNL     1      21.252  45.348  48.475  1.00  0.00     0.012 A 
BRANCH  15  18
HETATM   18  O   UNL     1      21.024  43.159  45.484  1.00  0.00    -0.290 OA
BRANCH  18  19
HETATM   19  C   UNL     1      20.328  41.974  45.830  1.00  0.00     0.505 C 
HETATM   20  F   UNL     1      19.951  41.330  44.698  1.00  0.00    -0.184 F 
HETATM   21  F   UNL     1      21.211  41.159  46.462  1.00  0.00    -0.184 F 
ENDBRANCH  18  19
ENDBRANCH  15  18
ENDBRANCH   9  12
BRANCH  10  22
HETATM   22  C   UNL     1      22.641  48.568  48.671  1.00  0.00     0.256 C 
HETATM   23  N   UNL     1      21.917  49.214  49.651  1.00  0.00    -0.323 N 
HETATM   24  H   UNL     1      22.163  49.043  50.616  1.00  0.00     0.169 HD
HETATM   25  O   UNL     1      22.496  48.652  47.458  1.00  0.00    -0.267 OA
BRANCH  23  26
HETATM   26  C   UNL     1      20.859  50.130  49.462  1.00  0.00     0.035 A 
HETATM   27  C   UNL     1      20.935  51.253  48.636  1.00  0.00     0.029 A 
HETATM   28  C   UNL     1      19.844  52.120  48.518  1.00  0.00     0.002 A 
HETATM   29  C   UNL     1      18.666  51.867  49.215  1.00  0.00     0.000 A 
HETATM   30  C   UNL     1      18.578  50.747  50.037  1.00  0.00     0.002 A 
HETATM   31  C   UNL     1      19.670  49.886  50.165  1.00  0.00     0.029 A 
ENDBRANCH  23  26
ENDBRANCH  10  22
TORSDOF 5
ENDMDL
