MODEL 1
REMARK VINA RESULT:      -9.3      0.000      0.000
REMARK  7 active torsions:
REMARK  status: ('A' for Active; 'I' for Inactive)
REMARK    1  A    between atoms: C_2  and  O_3 
REMARK    2  A    between atoms: O_3  and  C_4 
REMARK    3  A    between atoms: C_4  and  C_5 
REMARK    4  A    between atoms: C_6  and  C_7 
REMARK    5  A    between atoms: C_18  and  C_19 
REMARK    6  A    between atoms: C_19  and  N_20 
REMARK    7  A    between atoms: N_20  and  C_21 
ROOT
HETATM    1  C   UNL     1      26.142  44.049  51.619  1.00  0.00     0.068 A 
HETATM    2  C   UNL     1      25.597  44.424  50.270  1.00  0.00     0.161 A 
HETATM    3  N   UNL     1      26.074  43.530  49.231  1.00  0.00    -0.330 N 
HETATM    4  C   UNL     1      27.014  42.571  49.393  1.00  0.00     0.321 A 
HETATM    5  O   UNL     1      27.426  41.908  48.448  1.00  0.00    -0.247 OA
HETATM    6  N   UNL     1      27.465  42.370  50.660  1.00  0.00    -0.310 N 
HETATM    7  C   UNL     1      27.043  43.058  51.781  1.00  0.00     0.046 A 
HETATM    8  H   UNL     1      25.769  43.677  48.278  1.00  0.00     0.165 HD
HETATM    9  H   UNL     1      28.147  41.625  50.751  1.00  0.00     0.170 HD
ENDROOT
BRANCH   7  10
HETATM   10  C   UNL     1      27.629  42.578  53.095  1.00  0.00     0.177 C 
BRANCH  10  11
HETATM   11  N   UNL     1      28.939  43.184  53.262  1.00  0.00    -0.384 N 
HETATM   12  H   UNL     1      29.702  42.703  52.796  1.00  0.00     0.160 HD
BRANCH  11  13
HETATM   13  C   UNL     1      29.295  43.820  54.448  1.00  0.00     0.029 A 
HETATM   14  C   UNL     1      30.366  43.304  55.190  1.00  0.00     0.053 A 
HETATM   15  C   UNL     1      30.832  43.946  56.346  1.00  0.00     0.042 A 
HETATM   16 CL   UNL     1      32.164  43.229  57.184  1.00  0.00    -0.084 Cl
HETATM   17  C   UNL     1      30.243  45.134  56.791  1.00  0.00    -0.040 A 
HETATM   18  C   UNL     1      30.730  45.868  58.008  1.00  0.00     0.050 C 
HETATM   19  C   UNL     1      29.198  45.675  56.034  1.00  0.00     0.011 A 
HETATM   20  C   UNL     1      28.742  45.030  54.876  1.00  0.00     0.030 A 
ENDBRANCH  11  13
ENDBRANCH  10  11
ENDBRANCH   7  10
BRANCH   1  21
HETATM   21  C   UNL     1      25.663  44.844  52.774  1.00  0.00     0.293 C 
HETATM   22  O   UNL     1      24.685  44.572  53.449  1.00  0.00    -0.259 OA
BRANCH  21  23
HETATM   23  O   UNL     1      26.462  45.928  52.942  1.00  0.00    -0.318 OA
BRANCH  23  24
HETATM   24  C   UNL     1      25.778  47.156  53.241  1.00  0.00     0.174 C 
HETATM   25  C   UNL     1      26.207  47.674  54.599  1.00  0.00     0.034 C 
ENDBRANCH  23  24
ENDBRANCH  21  23
ENDBRANCH   1  21
BRANCH   2  26
HETATM   26  C   UNL     1      25.891  45.864  49.870  1.00  0.00    -0.031 A 
HETATM   27  C   UNL     1      27.202  46.293  49.598  1.00  0.00     0.011 A 
HETATM   28  C   UNL     1      27.456  47.617  49.232  1.00  0.00     0.024 A 
HETATM   29  C   UNL     1      26.404  48.524  49.139  1.00  0.00     0.034 A 
HETATM   30 CL   UNL     1      26.717  50.154  48.687  1.00  0.00    -0.084 Cl
HETATM   31  C   UNL     1      25.099  48.120  49.410  1.00  0.00     0.024 A 
HETATM   32  C   UNL     1      24.843  46.795  49.773  1.00  0.00     0.011 A 
ENDBRANCH   2  26
TORSDOF 7
ENDMDL
MODEL 2
REMARK VINA RESULT:      -8.7      4.121      8.908
REMARK  7 active torsions:
REMARK  status: ('A' for Active; 'I' for Inactive)
REMARK    1  A    between atoms: C_2  and  O_3 
REMARK    2  A    between atoms: O_3  and  C_4 
REMARK    3  A    between atoms: C_4  and  C_5 
REMARK    4  A    between atoms: C_6  and  C_7 
REMARK    5  A    between atoms: C_18  and  C_19 
REMARK    6  A    between atoms: C_19  and  N_20 
REMARK    7  A    between atoms: N_20  and  C_21 
ROOT
HETATM    1  C   UNL     1      25.250  46.468  49.672  1.00  0.00     0.068 A 
HETATM    2  C   UNL     1      25.731  45.051  49.532  1.00  0.00     0.161 A 
HETATM    3  N   UNL     1      24.675  44.168  49.073  1.00  0.00    -0.330 N 
HETATM    4  C   UNL     1      23.373  44.509  48.933  1.00  0.00     0.321 A 
HETATM    5  O   UNL     1      22.523  43.684  48.619  1.00  0.00    -0.247 OA
HETATM    6  N   UNL     1      23.063  45.816  49.143  1.00  0.00    -0.310 N 
HETATM    7  C   UNL     1      23.959  46.810  49.482  1.00  0.00     0.046 A 
HETATM    8  H   UNL     1      24.881  43.188  48.935  1.00  0.00     0.165 HD
HETATM    9  H   UNL     1      22.085  46.043  49.001  1.00  0.00     0.170 HD
ENDROOT
BRANCH   7  10
HETATM   10  C   UNL     1      23.376  48.208  49.563  1.00  0.00     0.177 C 
BRANCH  10  11
HETATM   11  N   UNL     1      21.932  48.111  49.441  1.00  0.00    -0.384 N 
HETATM   12  H   UNL     1      21.585  47.223  49.093  1.00  0.00     0.160 HD
BRANCH  11  13
HETATM   13  C   UNL     1      21.161  49.213  49.081  1.00  0.00     0.029 A 
HETATM   14  C   UNL     1      19.766  49.086  49.086  1.00  0.00     0.053 A 
HETATM   15  C   UNL     1      18.930  50.179  48.819  1.00  0.00     0.042 A 
HETATM   16 CL   UNL     1      17.221  49.916  48.857  1.00  0.00    -0.084 Cl
HETATM   17  C   UNL     1      19.469  51.441  48.546  1.00  0.00    -0.040 A 
HETATM   18  C   UNL     1      18.608  52.644  48.282  1.00  0.00     0.050 C 
HETATM   19  C   UNL     1      20.860  51.584  48.576  1.00  0.00     0.011 A 
HETATM   20  C   UNL     1      21.688  50.487  48.849  1.00  0.00     0.030 A 
ENDBRANCH  11  13
ENDBRANCH  10  11
ENDBRANCH   7  10
BRANCH   1  21
HETATM   21  C   UNL     1      26.261  47.478  50.059  1.00  0.00     0.293 C 
HETATM   22  O   UNL     1      26.408  47.921  51.185  1.00  0.00    -0.259 OA
BRANCH  21  23
HETATM   23  O   UNL     1      26.975  47.850  48.965  1.00  0.00    -0.318 OA
BRANCH  23  24
HETATM   24  C   UNL     1      27.298  49.247  48.887  1.00  0.00     0.174 C 
HETATM   25  C   UNL     1      26.254  49.977  48.064  1.00  0.00     0.034 C 
ENDBRANCH  23  24
ENDBRANCH  21  23
ENDBRANCH   1  21
BRANCH   2  26
HETATM   26  C   UNL     1      26.345  44.485  50.807  1.00  0.00    -0.031 A 
HETATM   27  C   UNL     1      25.588  44.356  51.985  1.00  0.00     0.011 A 
HETATM   28  C   UNL     1      26.164  43.835  53.146  1.00  0.00     0.024 A 
HETATM   29  C   UNL     1      27.500  43.443  53.142  1.00  0.00     0.034 A 
HETATM   30 CL   UNL     1      28.208  42.800  54.571  1.00  0.00    -0.084 Cl
HETATM   31  C   UNL     1      28.267  43.569  51.986  1.00  0.00     0.024 A 
HETATM   32  C   UNL     1      27.692  44.087  50.823  1.00  0.00     0.011 A 
ENDBRANCH   2  26
TORSDOF 7
ENDMDL
MODEL 3
REMARK VINA RESULT:      -8.6      2.572      8.052
REMARK  7 active torsions:
REMARK  status: ('A' for Active; 'I' for Inactive)
REMARK    1  A    between atoms: C_2  and  O_3 
REMARK    2  A    between atoms: O_3  and  C_4 
REMARK    3  A    between atoms: C_4  and  C_5 
REMARK    4  A    between atoms: C_6  and  C_7 
REMARK    5  A    between atoms: C_18  and  C_19 
REMARK    6  A    between atoms: C_19  and  N_20 
REMARK    7  A    between atoms: N_20  and  C_21 
ROOT
HETATM    1  C   UNL     1      26.530  45.006  52.319  1.00  0.00     0.068 A 
HETATM    2  C   UNL     1      26.503  44.892  53.816  1.00  0.00     0.161 A 
HETATM    3  N   UNL     1      26.023  46.111  54.440  1.00  0.00    -0.330 N 
HETATM    4  C   UNL     1      25.776  47.275  53.797  1.00  0.00     0.321 A 
HETATM    5  O   UNL     1      25.451  48.289  54.405  1.00  0.00    -0.247 OA
HETATM    6  N   UNL     1      25.891  47.257  52.443  1.00  0.00    -0.310 N 
HETATM    7  C   UNL     1      26.234  46.157  51.681  1.00  0.00     0.046 A 
HETATM    8  H   UNL     1      25.954  46.152  55.448  1.00  0.00     0.165 HD
HETATM    9  H   UNL     1      25.670  48.137  51.990  1.00  0.00     0.170 HD
ENDROOT
BRANCH   7  10
HETATM   10  C   UNL     1      26.198  46.372  50.180  1.00  0.00     0.177 C 
BRANCH  10  11
HETATM   11  N   UNL     1      26.232  47.801  49.919  1.00  0.00    -0.384 N 
HETATM   12  H   UNL     1      26.685  48.362  50.634  1.00  0.00     0.160 HD
BRANCH  11  13
HETATM   13  C   UNL     1      25.185  48.442  49.262  1.00  0.00     0.029 A 
HETATM   14  C   UNL     1      23.898  47.898  49.362  1.00  0.00     0.053 A 
HETATM   15  C   UNL     1      22.786  48.539  48.797  1.00  0.00     0.042 A 
HETATM   16 CL   UNL     1      21.240  47.787  48.983  1.00  0.00    -0.084 Cl
HETATM   17  C   UNL     1      22.930  49.756  48.120  1.00  0.00    -0.040 A 
HETATM   18  C   UNL     1      21.762  50.489  47.526  1.00  0.00     0.050 C 
HETATM   19  C   UNL     1      24.207  50.322  48.049  1.00  0.00     0.011 A 
HETATM   20  C   UNL     1      25.311  49.678  48.621  1.00  0.00     0.030 A 
ENDBRANCH  11  13
ENDBRANCH  10  11
ENDBRANCH   7  10
BRANCH   1  21
HETATM   21  C   UNL     1      26.928  43.794  51.566  1.00  0.00     0.293 C 
HETATM   22  O   UNL     1      27.964  43.675  50.935  1.00  0.00    -0.259 OA
BRANCH  21  23
HETATM   23  O   UNL     1      25.953  42.856  51.667  1.00  0.00    -0.318 OA
BRANCH  23  24
HETATM   24  C   UNL     1      25.277  42.536  50.440  1.00  0.00     0.174 C 
HETATM   25  C   UNL     1      23.894  43.156  50.431  1.00  0.00     0.034 C 
ENDBRANCH  23  24
ENDBRANCH  21  23
ENDBRANCH   1  21
BRANCH   2  26
HETATM   26  C   UNL     1      27.845  44.508  54.425  1.00  0.00    -0.031 A 
HETATM   27  C   UNL     1      28.378  43.217  54.261  1.00  0.00     0.011 A 
HETATM   28  C   UNL     1      29.610  42.879  54.824  1.00  0.00     0.024 A 
HETATM   29  C   UNL     1      30.319  43.824  55.560  1.00  0.00     0.034 A 
HETATM   30 CL   UNL     1      31.838  43.409  56.252  1.00  0.00    -0.084 Cl
HETATM   31  C   UNL     1      29.806  45.107  55.739  1.00  0.00     0.024 A 
HETATM   32  C   UNL     1      28.575  45.448  55.173  1.00  0.00     0.011 A 
ENDBRANCH   2  26
TORSDOF 7
ENDMDL
MODEL 4
REMARK VINA RESULT:      -8.3      3.205      4.722
REMARK  7 active torsions:
REMARK  status: ('A' for Active; 'I' for Inactive)
REMARK    1  A    between atoms: C_2  and  O_3 
REMARK    2  A    between atoms: O_3  and  C_4 
REMARK    3  A    between atoms: C_4  and  C_5 
REMARK    4  A    between atoms: C_6  and  C_7 
REMARK    5  A    between atoms: C_18  and  C_19 
REMARK    6  A    between atoms: C_19  and  N_20 
REMARK    7  A    between atoms: N_20  and  C_21 
ROOT
HETATM    1  C   UNL     1      27.366  41.679  50.625  1.00  0.00     0.068 A 
HETATM    2  C   UNL     1      26.995  40.413  49.906  1.00  0.00     0.161 A 
HETATM    3  N   UNL     1      27.833  39.300  50.311  1.00  0.00    -0.330 N 
HETATM    4  C   UNL     1      28.921  39.388  51.111  1.00  0.00     0.321 A 
HETATM    5  O   UNL     1      29.629  38.415  51.343  1.00  0.00    -0.247 OA
HETATM    6  N   UNL     1      29.177  40.608  51.654  1.00  0.00    -0.310 N 
HETATM    7  C   UNL     1      28.423  41.748  51.460  1.00  0.00     0.046 A 
HETATM    8  H   UNL     1      27.674  38.390  49.900  1.00  0.00     0.165 HD
HETATM    9  H   UNL     1      29.982  40.632  52.271  1.00  0.00     0.170 HD
ENDROOT
BRANCH   7  10
HETATM   10  C   UNL     1      28.864  42.960  52.258  1.00  0.00     0.177 C 
BRANCH  10  11
HETATM   11  N   UNL     1      29.478  42.500  53.491  1.00  0.00    -0.384 N 
HETATM   12  H   UNL     1      29.190  41.577  53.801  1.00  0.00     0.160 HD
BRANCH  11  13
HETATM   13  C   UNL     1      29.785  43.385  54.521  1.00  0.00     0.029 A 
HETATM   14  C   UNL     1      28.964  44.505  54.710  1.00  0.00     0.053 A 
HETATM   15  C   UNL     1      29.164  45.388  55.780  1.00  0.00     0.042 A 
HETATM   16 CL   UNL     1      28.090  46.735  55.926  1.00  0.00    -0.084 Cl
HETATM   17  C   UNL     1      30.193  45.170  56.704  1.00  0.00    -0.040 A 
HETATM   18  C   UNL     1      30.424  46.075  57.880  1.00  0.00     0.050 C 
HETATM   19  C   UNL     1      30.992  44.034  56.542  1.00  0.00     0.011 A 
HETATM   20  C   UNL     1      30.782  43.153  55.473  1.00  0.00     0.030 A 
ENDBRANCH  11  13
ENDBRANCH  10  11
ENDBRANCH   7  10
BRANCH   1  21
HETATM   21  C   UNL     1      26.527  42.869  50.352  1.00  0.00     0.293 C 
HETATM   22  O   UNL     1      26.793  43.737  49.538  1.00  0.00    -0.259 OA
BRANCH  21  23
HETATM   23  O   UNL     1      25.439  42.854  51.163  1.00  0.00    -0.318 OA
BRANCH  23  24
HETATM   24  C   UNL     1      25.050  44.131  51.694  1.00  0.00     0.174 C 
HETATM   25  C   UNL     1      25.473  44.242  53.145  1.00  0.00     0.034 C 
ENDBRANCH  23  24
ENDBRANCH  21  23
ENDBRANCH   1  21
BRANCH   2  26
HETATM   26  C   UNL     1      27.024  40.540  48.388  1.00  0.00    -0.031 A 
HETATM   27  C   UNL     1      28.223  40.797  47.701  1.00  0.00     0.011 A 
HETATM   28  C   UNL     1      28.235  40.911  46.309  1.00  0.00     0.024 A 
HETATM   29  C   UNL     1      27.049  40.774  45.592  1.00  0.00     0.034 A 
HETATM   30 CL   UNL     1      27.064  40.913  43.878  1.00  0.00    -0.084 Cl
HETATM   31  C   UNL     1      25.850  40.526  46.256  1.00  0.00     0.024 A 
HETATM   32  C   UNL     1      25.837  40.408  47.648  1.00  0.00     0.011 A 
ENDBRANCH   2  26
TORSDOF 7
ENDMDL
MODEL 5
REMARK VINA RESULT:      -8.2      2.264      2.996
REMARK  7 active torsions:
REMARK  status: ('A' for Active; 'I' for Inactive)
REMARK    1  A    between atoms: C_2  and  O_3 
REMARK    2  A    between atoms: O_3  and  C_4 
REMARK    3  A    between atoms: C_4  and  C_5 
REMARK    4  A    between atoms: C_6  and  C_7 
REMARK    5  A    between atoms: C_18  and  C_19 
REMARK    6  A    between atoms: C_19  and  N_20 
REMARK    7  A    between atoms: N_20  and  C_21 
ROOT
HETATM    1  C   UNL     1      25.981  43.249  51.543  1.00  0.00     0.068 A 
HETATM    2  C   UNL     1      24.900  42.358  50.999  1.00  0.00     0.161 A 
HETATM    3  N   UNL     1      25.435  41.100  50.513  1.00  0.00    -0.330 N 
HETATM    4  C   UNL     1      26.749  40.798  50.400  1.00  0.00     0.321 A 
HETATM    5  O   UNL     1      27.126  39.744  49.902  1.00  0.00    -0.247 OA
HETATM    6  N   UNL     1      27.626  41.718  50.882  1.00  0.00    -0.310 N 
HETATM    7  C   UNL     1      27.287  42.920  51.472  1.00  0.00     0.046 A 
HETATM    8  H   UNL     1      24.801  40.413  50.129  1.00  0.00     0.165 HD
HETATM    9  H   UNL     1      28.601  41.448  50.808  1.00  0.00     0.170 HD
ENDROOT
BRANCH   7  10
HETATM   10  C   UNL     1      28.451  43.726  52.016  1.00  0.00     0.177 C 
BRANCH  10  11
HETATM   11  N   UNL     1      28.981  43.039  53.180  1.00  0.00    -0.384 N 
HETATM   12  H   UNL     1      28.634  42.096  53.323  1.00  0.00     0.160 HD
BRANCH  11  13
HETATM   13  C   UNL     1      29.281  43.727  54.353  1.00  0.00     0.029 A 
HETATM   14  C   UNL     1      30.358  43.286  55.133  1.00  0.00     0.053 A 
HETATM   15  C   UNL     1      30.767  43.984  56.278  1.00  0.00     0.042 A 
HETATM   16 CL   UNL     1      32.112  43.359  57.166  1.00  0.00    -0.084 Cl
HETATM   17  C   UNL     1      30.112  45.156  56.673  1.00  0.00    -0.040 A 
HETATM   18  C   UNL     1      30.536  45.949  57.876  1.00  0.00     0.050 C 
HETATM   19  C   UNL     1      29.060  45.622  55.878  1.00  0.00     0.011 A 
HETATM   20  C   UNL     1      28.661  44.921  54.732  1.00  0.00     0.030 A 
ENDBRANCH  11  13
ENDBRANCH  10  11
ENDBRANCH   7  10
BRANCH   1  21
HETATM   21  C   UNL     1      25.546  44.533  52.141  1.00  0.00     0.293 C 
HETATM   22  O   UNL     1      24.967  44.644  53.208  1.00  0.00    -0.259 OA
BRANCH  21  23
HETATM   23  O   UNL     1      25.868  45.555  51.308  1.00  0.00    -0.318 OA
BRANCH  23  24
HETATM   24  C   UNL     1      24.883  46.595  51.201  1.00  0.00     0.174 C 
HETATM   25  C   UNL     1      24.512  46.813  49.747  1.00  0.00     0.034 C 
ENDBRANCH  23  24
ENDBRANCH  21  23
ENDBRANCH   1  21
BRANCH   2  26
HETATM   26  C   UNL     1      24.064  43.009  49.904  1.00  0.00    -0.031 A 
HETATM   27  C   UNL     1      24.544  43.115  48.587  1.00  0.00     0.011 A 
HETATM   28  C   UNL     1      23.767  43.713  47.593  1.00  0.00     0.024 A 
HETATM   29  C   UNL     1      22.506  44.214  47.906  1.00  0.00     0.034 A 
HETATM   30 CL   UNL     1      21.548  44.950  46.681  1.00  0.00    -0.084 Cl
HETATM   31  C   UNL     1      22.016  44.124  49.206  1.00  0.00     0.024 A 
HETATM   32  C   UNL     1      22.790  43.522  50.201  1.00  0.00     0.011 A 
ENDBRANCH   2  26
TORSDOF 7
ENDMDL
MODEL 6
REMARK VINA RESULT:      -8.1      3.109      5.045
REMARK  7 active torsions:
REMARK  status: ('A' for Active; 'I' for Inactive)
REMARK    1  A    between atoms: C_2  and  O_3 
REMARK    2  A    between atoms: O_3  and  C_4 
REMARK    3  A    between atoms: C_4  and  C_5 
REMARK    4  A    between atoms: C_6  and  C_7 
REMARK    5  A    between atoms: C_18  and  C_19 
REMARK    6  A    between atoms: C_19  and  N_20 
REMARK    7  A    between atoms: N_20  and  C_21 
ROOT
HETATM    1  C   UNL     1      26.963  42.312  50.543  1.00  0.00     0.068 A 
HETATM    2  C   UNL     1      26.529  42.779  49.182  1.00  0.00     0.161 A 
HETATM    3  N   UNL     1      26.359  44.220  49.138  1.00  0.00    -0.330 N 
HETATM    4  C   UNL     1      26.418  45.050  50.205  1.00  0.00     0.321 A 
HETATM    5  O   UNL     1      26.182  46.247  50.101  1.00  0.00    -0.247 OA
HETATM    6  N   UNL     1      26.770  44.487  51.392  1.00  0.00    -0.310 N 
HETATM    7  C   UNL     1      27.069  43.154  51.592  1.00  0.00     0.046 A 
HETATM    8  H   UNL     1      26.074  44.654  48.270  1.00  0.00     0.165 HD
HETATM    9  H   UNL     1      26.834  45.141  52.164  1.00  0.00     0.170 HD
ENDROOT
BRANCH   7  10
HETATM   10  C   UNL     1      27.528  42.796  52.992  1.00  0.00     0.177 C 
BRANCH  10  11
HETATM   11  N   UNL     1      28.858  43.345  53.194  1.00  0.00    -0.384 N 
HETATM   12  H   UNL     1      29.612  42.827  52.756  1.00  0.00     0.160 HD
BRANCH  11  13
HETATM   13  C   UNL     1      29.207  43.974  54.386  1.00  0.00     0.029 A 
HETATM   14  C   UNL     1      30.285  43.466  55.122  1.00  0.00     0.053 A 
HETATM   15  C   UNL     1      30.744  44.102  56.284  1.00  0.00     0.042 A 
HETATM   16 CL   UNL     1      32.086  43.396  57.114  1.00  0.00    -0.084 Cl
HETATM   17  C   UNL     1      30.139  45.279  56.741  1.00  0.00    -0.040 A 
HETATM   18  C   UNL     1      30.617  46.007  57.964  1.00  0.00     0.050 C 
HETATM   19  C   UNL     1      29.086  45.812  55.990  1.00  0.00     0.011 A 
HETATM   20  C   UNL     1      28.638  45.172  54.827  1.00  0.00     0.030 A 
ENDBRANCH  11  13
ENDBRANCH  10  11
ENDBRANCH   7  10
BRANCH   1  21
HETATM   21  C   UNL     1      27.246  40.866  50.690  1.00  0.00     0.293 C 
HETATM   22  O   UNL     1      26.450  40.038  51.098  1.00  0.00    -0.259 OA
BRANCH  21  23
HETATM   23  O   UNL     1      28.530  40.615  50.329  1.00  0.00    -0.318 OA
BRANCH  23  24
HETATM   24  C   UNL     1      28.692  39.722  49.214  1.00  0.00     0.174 C 
HETATM   25  C   UNL     1      29.294  38.411  49.680  1.00  0.00     0.034 C 
ENDBRANCH  23  24
ENDBRANCH  21  23
ENDBRANCH   1  21
BRANCH   2  26
HETATM   26  C   UNL     1      25.259  42.105  48.681  1.00  0.00    -0.031 A 
HETATM   27  C   UNL     1      24.004  42.409  49.236  1.00  0.00     0.011 A 
HETATM   28  C   UNL     1      22.847  41.783  48.766  1.00  0.00     0.024 A 
HETATM   29  C   UNL     1      22.934  40.846  47.741  1.00  0.00     0.034 A 
HETATM   30 CL   UNL     1      21.509  40.076  47.161  1.00  0.00    -0.084 Cl
HETATM   31  C   UNL     1      24.169  40.527  47.181  1.00  0.00     0.024 A 
HETATM   32  C   UNL     1      25.327  41.155  47.648  1.00  0.00     0.011 A 
ENDBRANCH   2  26
TORSDOF 7
ENDMDL
MODEL 7
REMARK VINA RESULT:      -8.0      4.901      7.009
REMARK  7 active torsions:
REMARK  status: ('A' for Active; 'I' for Inactive)
REMARK    1  A    between atoms: C_2  and  O_3 
REMARK    2  A    between atoms: O_3  and  C_4 
REMARK    3  A    between atoms: C_4  and  C_5 
REMARK    4  A    between atoms: C_6  and  C_7 
REMARK    5  A    between atoms: C_18  and  C_19 
REMARK    6  A    between atoms: C_19  and  N_20 
REMARK    7  A    between atoms: N_20  and  C_21 
ROOT
HETATM    1  C   UNL     1      22.420  47.920  48.107  1.00  0.00     0.068 A 
HETATM    2  C   UNL     1      22.430  49.358  47.673  1.00  0.00     0.161 A 
HETATM    3  N   UNL     1      23.684  50.010  48.003  1.00  0.00    -0.330 N 
HETATM    4  C   UNL     1      24.676  49.470  48.747  1.00  0.00     0.321 A 
HETATM    5  O   UNL     1      25.673  50.113  49.054  1.00  0.00    -0.247 OA
HETATM    6  N   UNL     1      24.515  48.173  49.123  1.00  0.00    -0.310 N 
HETATM    7  C   UNL     1      23.435  47.373  48.806  1.00  0.00     0.046 A 
HETATM    8  H   UNL     1      23.812  50.981  47.754  1.00  0.00     0.165 HD
HETATM    9  H   UNL     1      25.290  47.790  49.654  1.00  0.00     0.170 HD
ENDROOT
BRANCH   7  10
HETATM   10  C   UNL     1      23.541  45.930  49.263  1.00  0.00     0.177 C 
BRANCH  10  11
HETATM   11  N   UNL     1      23.949  45.918  50.657  1.00  0.00    -0.384 N 
HETATM   12  H   UNL     1      23.659  46.725  51.201  1.00  0.00     0.160 HD
BRANCH  11  13
HETATM   13  C   UNL     1      25.164  45.364  51.050  1.00  0.00     0.029 A 
HETATM   14  C   UNL     1      25.316  44.957  52.382  1.00  0.00     0.053 A 
HETATM   15  C   UNL     1      26.480  44.313  52.823  1.00  0.00     0.042 A 
HETATM   16 CL   UNL     1      26.563  43.845  54.485  1.00  0.00    -0.084 Cl
HETATM   17  C   UNL     1      27.530  44.048  51.936  1.00  0.00    -0.040 A 
HETATM   18  C   UNL     1      28.783  43.336  52.361  1.00  0.00     0.050 C 
HETATM   19  C   UNL     1      27.370  44.418  50.597  1.00  0.00     0.011 A 
HETATM   20  C   UNL     1      26.201  45.057  50.163  1.00  0.00     0.030 A 
ENDBRANCH  11  13
ENDBRANCH  10  11
ENDBRANCH   7  10
BRANCH   1  21
HETATM   21  C   UNL     1      21.219  47.127  47.753  1.00  0.00     0.293 C 
HETATM   22  O   UNL     1      21.001  46.645  46.655  1.00  0.00    -0.259 OA
BRANCH  21  23
HETATM   23  O   UNL     1      20.394  47.047  48.829  1.00  0.00    -0.318 OA
BRANCH  23  24
HETATM   24  C   UNL     1      18.994  47.193  48.542  1.00  0.00     0.174 C 
HETATM   25  C   UNL     1      18.332  48.047  49.606  1.00  0.00     0.034 C 
ENDBRANCH  23  24
ENDBRANCH  21  23
ENDBRANCH   1  21
BRANCH   2  26
HETATM   26  C   UNL     1      21.273  50.175  48.235  1.00  0.00    -0.031 A 
HETATM   27  C   UNL     1      21.210  50.507  49.600  1.00  0.00     0.011 A 
HETATM   28  C   UNL     1      20.144  51.257  50.101  1.00  0.00     0.024 A 
HETATM   29  C   UNL     1      19.130  51.677  49.246  1.00  0.00     0.034 A 
HETATM   30 CL   UNL     1      17.817  52.602  49.863  1.00  0.00    -0.084 Cl
HETATM   31  C   UNL     1      19.171  51.354  47.892  1.00  0.00     0.024 A 
HETATM   32  C   UNL     1      20.239  50.607  47.388  1.00  0.00     0.011 A 
ENDBRANCH   2  26
TORSDOF 7
ENDMDL
MODEL 8
REMARK VINA RESULT:      -7.8     12.559     13.709
REMARK  7 active torsions:
REMARK  status: ('A' for Active; 'I' for Inactive)
REMARK    1  A    between atoms: C_2  and  O_3 
REMARK    2  A    between atoms: O_3  and  C_4 
REMARK    3  A    between atoms: C_4  and  C_5 
REMARK    4  A    between atoms: C_6  and  C_7 
REMARK    5  A    between atoms: C_18  and  C_19 
REMARK    6  A    between atoms: C_19  and  N_20 
REMARK    7  A    between atoms: N_20  and  C_21 
ROOT
HETATM    1  C   UNL     1      31.974  50.757  41.788  1.00  0.00     0.068 A 
HETATM    2  C   UNL     1      30.918  49.694  41.912  1.00  0.00     0.161 A 
HETATM    3  N   UNL     1      31.480  48.362  41.789  1.00  0.00    -0.330 N 
HETATM    4  C   UNL     1      32.758  48.078  41.447  1.00  0.00     0.321 A 
HETATM    5  O   UNL     1      33.138  46.925  41.283  1.00  0.00    -0.247 OA
HETATM    6  N   UNL     1      33.599  49.138  41.312  1.00  0.00    -0.310 N 
HETATM    7  C   UNL     1      33.257  50.464  41.496  1.00  0.00     0.046 A 
HETATM    8  H   UNL     1      30.866  47.562  41.863  1.00  0.00     0.165 HD
HETATM    9  H   UNL     1      34.555  48.889  41.084  1.00  0.00     0.170 HD
ENDROOT
BRANCH   7  10
HETATM   10  C   UNL     1      34.403  51.450  41.381  1.00  0.00     0.177 C 
BRANCH  10  11
HETATM   11  N   UNL     1      34.791  51.862  42.719  1.00  0.00    -0.384 N 
HETATM   12  H   UNL     1      34.300  52.673  43.082  1.00  0.00     0.160 HD
BRANCH  11  13
HETATM   13  C   UNL     1      36.104  51.736  43.163  1.00  0.00     0.029 A 
HETATM   14  C   UNL     1      36.519  52.507  44.257  1.00  0.00     0.053 A 
HETATM   15  C   UNL     1      37.800  52.365  44.809  1.00  0.00     0.042 A 
HETATM   16 CL   UNL     1      38.209  53.359  46.164  1.00  0.00    -0.084 Cl
HETATM   17  C   UNL     1      38.706  51.437  44.284  1.00  0.00    -0.040 A 
HETATM   18  C   UNL     1      40.077  51.235  44.863  1.00  0.00     0.050 C 
HETATM   19  C   UNL     1      38.286  50.639  43.215  1.00  0.00     0.011 A 
HETATM   20  C   UNL     1      37.001  50.783  42.673  1.00  0.00     0.030 A 
ENDBRANCH  11  13
ENDBRANCH  10  11
ENDBRANCH   7  10
BRANCH   1  21
HETATM   21  C   UNL     1      31.531  52.158  41.975  1.00  0.00     0.293 C 
HETATM   22  O   UNL     1      31.206  52.650  43.041  1.00  0.00    -0.259 OA
BRANCH  21  23
HETATM   23  O   UNL     1      31.520  52.795  40.776  1.00  0.00    -0.318 OA
BRANCH  23  24
HETATM   24  C   UNL     1      30.608  53.901  40.675  1.00  0.00     0.174 C 
HETATM   25  C   UNL     1      29.364  53.482  39.917  1.00  0.00     0.034 C 
ENDBRANCH  23  24
ENDBRANCH  21  23
ENDBRANCH   1  21
BRANCH   2  26
HETATM   26  C   UNL     1      29.772  49.852  40.920  1.00  0.00    -0.031 A 
HETATM   27  C   UNL     1      29.987  49.747  39.535  1.00  0.00     0.011 A 
HETATM   28  C   UNL     1      28.926  49.893  38.638  1.00  0.00     0.024 A 
HETATM   29  C   UNL     1      27.644  50.150  39.116  1.00  0.00     0.034 A 
HETATM   30 CL   UNL     1      26.338  50.329  38.011  1.00  0.00    -0.084 Cl
HETATM   31  C   UNL     1      27.412  50.264  40.484  1.00  0.00     0.024 A 
HETATM   32  C   UNL     1      28.471  50.114  41.384  1.00  0.00     0.011 A 
ENDBRANCH   2  26
TORSDOF 7
ENDMDL
MODEL 9
REMARK VINA RESULT:      -7.6      2.883      4.226
REMARK  7 active torsions:
REMARK  status: ('A' for Active; 'I' for Inactive)
REMARK    1  A    between atoms: C_2  and  O_3 
REMARK    2  A    between atoms: O_3  and  C_4 
REMARK    3  A    between atoms: C_4  and  C_5 
REMARK    4  A    between atoms: C_6  and  C_7 
REMARK    5  A    between atoms: C_18  and  C_19 
REMARK    6  A    between atoms: C_19  and  N_20 
REMARK    7  A    between atoms: N_20  and  C_21 
ROOT
HETATM    1  C   UNL     1      26.512  42.276  51.016  1.00  0.00     0.068 A 
HETATM    2  C   UNL     1      26.009  40.957  50.501  1.00  0.00     0.161 A 
HETATM    3  N   UNL     1      27.016  39.918  50.612  1.00  0.00    -0.330 N 
HETATM    4  C   UNL     1      28.304  40.111  50.977  1.00  0.00     0.321 A 
HETATM    5  O   UNL     1      29.119  39.195  50.968  1.00  0.00    -0.247 OA
HETATM    6  N   UNL     1      28.642  41.368  51.369  1.00  0.00    -0.310 N 
HETATM    7  C   UNL     1      27.784  42.449  51.426  1.00  0.00     0.046 A 
HETATM    8  H   UNL     1      26.791  38.982  50.302  1.00  0.00     0.165 HD
HETATM    9  H   UNL     1      29.607  41.471  51.665  1.00  0.00     0.170 HD
ENDROOT
BRANCH   7  10
HETATM   10  C   UNL     1      28.384  43.722  51.992  1.00  0.00     0.177 C 
BRANCH  10  11
HETATM   11  N   UNL     1      27.624  44.105  53.169  1.00  0.00    -0.384 N 
HETATM   12  H   UNL     1      26.727  44.543  52.983  1.00  0.00     0.160 HD
BRANCH  11  13
HETATM   13  C   UNL     1      28.256  44.555  54.324  1.00  0.00     0.029 A 
HETATM   14  C   UNL     1      29.370  43.848  54.797  1.00  0.00     0.053 A 
HETATM   15  C   UNL     1      30.105  44.296  55.904  1.00  0.00     0.042 A 
HETATM   16 CL   UNL     1      31.467  43.353  56.402  1.00  0.00    -0.084 Cl
HETATM   17  C   UNL     1      29.751  45.475  56.568  1.00  0.00    -0.040 A 
HETATM   18  C   UNL     1      30.528  46.005  57.739  1.00  0.00     0.050 C 
HETATM   19  C   UNL     1      28.663  46.205  56.078  1.00  0.00     0.011 A 
HETATM   20  C   UNL     1      27.937  45.754  54.968  1.00  0.00     0.030 A 
ENDBRANCH  11  13
ENDBRANCH  10  11
ENDBRANCH   7  10
BRANCH   1  21
HETATM   21  C   UNL     1      25.544  43.398  51.027  1.00  0.00     0.293 C 
HETATM   22  O   UNL     1      24.723  43.601  51.904  1.00  0.00    -0.259 OA
BRANCH  21  23
HETATM   23  O   UNL     1      25.697  44.141  49.901  1.00  0.00    -0.318 OA
BRANCH  23  24
HETATM   24  C   UNL     1      25.031  45.414  49.909  1.00  0.00     0.174 C 
HETATM   25  C   UNL     1      23.771  45.348  49.069  1.00  0.00     0.034 C 
ENDBRANCH  23  24
ENDBRANCH  21  23
ENDBRANCH   1  21
BRANCH   2  26
HETATM   26  C   UNL     1      25.499  41.014  49.067  1.00  0.00    -0.031 A 
HETATM   27  C   UNL     1      26.374  40.875  47.975  1.00  0.00     0.011 A 
HETATM   28  C   UNL     1      25.892  40.930  46.665  1.00  0.00     0.024 A 
HETATM   29  C   UNL     1      24.534  41.128  46.434  1.00  0.00     0.034 A 
HETATM   30 CL   UNL     1      23.940  41.193  44.821  1.00  0.00    -0.084 Cl
HETATM   31  C   UNL     1      23.651  41.274  47.502  1.00  0.00     0.024 A 
HETATM   32  C   UNL     1      24.131  41.216  48.813  1.00  0.00     0.011 A 
ENDBRANCH   2  26
TORSDOF 7
ENDMDL
MODEL 10
REMARK VINA RESULT:      -7.5     12.206     14.383
REMARK  7 active torsions:
REMARK  status: ('A' for Active; 'I' for Inactive)
REMARK    1  A    between atoms: C_2  and  O_3 
REMARK    2  A    between atoms: O_3  and  C_4 
REMARK    3  A    between atoms: C_4  and  C_5 
REMARK    4  A    between atoms: C_6  and  C_7 
REMARK    5  A    between atoms: C_18  and  C_19 
REMARK    6  A    between atoms: C_19  and  N_20 
REMARK    7  A    between atoms: N_20  and  C_21 
ROOT
HETATM    1  C   UNL     1      29.560  49.534  38.657  1.00  0.00     0.068 A 
HETATM    2  C   UNL     1      30.908  49.038  39.099  1.00  0.00     0.161 A 
HETATM    3  N   UNL     1      30.913  47.600  39.293  1.00  0.00    -0.330 N 
HETATM    4  C   UNL     1      29.825  46.799  39.248  1.00  0.00     0.321 A 
HETATM    5  O   UNL     1      29.896  45.603  39.505  1.00  0.00    -0.247 OA
HETATM    6  N   UNL     1      28.653  47.387  38.887  1.00  0.00    -0.310 N 
HETATM    7  C   UNL     1      28.489  48.720  38.565  1.00  0.00     0.046 A 
HETATM    8  H   UNL     1      31.769  47.148  39.585  1.00  0.00     0.165 HD
HETATM    9  H   UNL     1      27.863  46.753  38.834  1.00  0.00     0.170 HD
ENDROOT
BRANCH   7  10
HETATM   10  C   UNL     1      27.098  49.108  38.100  1.00  0.00     0.177 C 
BRANCH  10  11
HETATM   11  N   UNL     1      26.316  49.492  39.262  1.00  0.00    -0.384 N 
HETATM   12  H   UNL     1      26.850  49.858  40.044  1.00  0.00     0.160 HD
BRANCH  11  13
HETATM   13  C   UNL     1      25.169  48.791  39.625  1.00  0.00     0.029 A 
HETATM   14  C   UNL     1      25.295  47.708  40.504  1.00  0.00     0.053 A 
HETATM   15  C   UNL     1      24.172  47.014  40.978  1.00  0.00     0.042 A 
HETATM   16 CL   UNL     1      24.437  45.696  42.065  1.00  0.00    -0.084 Cl
HETATM   17  C   UNL     1      22.882  47.394  40.591  1.00  0.00    -0.040 A 
HETATM   18  C   UNL     1      21.651  46.696  41.097  1.00  0.00     0.050 C 
HETATM   19  C   UNL     1      22.747  48.498  39.743  1.00  0.00     0.011 A 
HETATM   20  C   UNL     1      23.874  49.189  39.278  1.00  0.00     0.030 A 
ENDBRANCH  11  13
ENDBRANCH  10  11
ENDBRANCH   7  10
BRANCH   1  21
HETATM   21  C   UNL     1      29.451  50.980  38.349  1.00  0.00     0.293 C 
HETATM   22  O   UNL     1      29.954  51.526  37.383  1.00  0.00    -0.259 OA
BRANCH  21  23
HETATM   23  O   UNL     1      28.733  51.598  39.321  1.00  0.00    -0.318 OA
BRANCH  23  24
HETATM   24  C   UNL     1      29.323  52.794  39.855  1.00  0.00     0.174 C 
HETATM   25  C   UNL     1      29.319  52.744  41.371  1.00  0.00     0.034 C 
ENDBRANCH  23  24
ENDBRANCH  21  23
ENDBRANCH   1  21
BRANCH   2  26
HETATM   26  C   UNL     1      31.428  49.720  40.357  1.00  0.00    -0.031 A 
HETATM   27  C   UNL     1      32.394  50.740  40.288  1.00  0.00     0.011 A 
HETATM   28  C   UNL     1      32.861  51.357  41.451  1.00  0.00     0.024 A 
HETATM   29  C   UNL     1      32.372  50.959  42.692  1.00  0.00     0.034 A 
HETATM   30 CL   UNL     1      32.947  51.720  44.123  1.00  0.00    -0.084 Cl
HETATM   31  C   UNL     1      31.420  49.947  42.782  1.00  0.00     0.024 A 
HETATM   32  C   UNL     1      30.948  49.331  41.619  1.00  0.00     0.011 A 
ENDBRANCH   2  26
TORSDOF 7
ENDMDL
