MODEL 1
REMARK VINA RESULT:      -9.8      0.000      0.000
REMARK  9 active torsions:
REMARK  status: ('A' for Active; 'I' for Inactive)
REMARK    1  A    between atoms: C_4  and  C_5 
REMARK    2  A    between atoms: C_5  and  N_6 
REMARK    3  A    between atoms: C_11  and  C_12 
REMARK       I    between atoms: C_12  and  N_13 
REMARK    4  A    between atoms: C_15  and  N_16 
REMARK       I    between atoms: N_16  and  C_17 
REMARK    5  A    between atoms: C_17  and  C_18 
REMARK    6  A    between atoms: C_18  and  C_19 
REMARK    7  A    between atoms: C_19  and  C_20 
REMARK    8  A    between atoms: C_20  and  S_21 
REMARK    9  A    between atoms: S_21  and  C_22 
ROOT
HETATM    1  N   UNL     1      28.226  42.991  54.460  1.00  0.00    -0.063 N 
HETATM    2  H   UNL     1      28.322  42.401  55.292  1.00  0.00     0.280 HD
HETATM    3  C   UNL     1      26.935  43.782  54.661  1.00  0.00     0.282 C 
HETATM    4  C   UNL     1      26.438  44.334  53.370  1.00  0.00     0.018 C 
HETATM    5  C   UNL     1      26.869  43.951  52.116  1.00  0.00    -0.023 C 
HETATM    6  C   UNL     1      26.290  44.778  51.081  1.00  0.00     0.073 C 
HETATM    7  C   UNL     1      25.247  45.533  51.601  1.00  0.00     0.093 C 
HETATM    8  S   UNL     1      25.207  45.493  53.303  1.00  0.00    -0.074 SA
HETATM    9  C   UNL     1      27.878  42.848  51.942  1.00  0.00     0.068 C 
HETATM   10  C   UNL     1      28.099  42.062  53.252  1.00  0.00     0.240 C 
ENDROOT
BRANCH   7  11
HETATM   11  N   UNL     1      24.338  46.303  50.890  1.00  0.00    -0.320 N 
HETATM   12  C   UNL     1      24.605  47.533  50.301  1.00  0.00     0.222 C 
HETATM   13  O   UNL     1      25.667  48.143  50.337  1.00  0.00    -0.273 OA
HETATM   14  H   UNL     1      23.358  46.092  51.058  1.00  0.00     0.169 HD
BRANCH  12  15
HETATM   15  C   UNL     1      23.388  48.077  49.563  1.00  0.00     0.104 C 
BRANCH  15  16
HETATM   16  C   UNL     1      22.932  47.196  48.401  1.00  0.00     0.020 C 
BRANCH  16  17
HETATM   17  C   UNL     1      21.582  47.517  47.748  1.00  0.00     0.080 C 
BRANCH  17  18
HETATM   18  S   UNL     1      20.109  47.522  48.831  1.00  0.00    -0.130 SA
BRANCH  18  19
HETATM   19  C   UNL     1      19.636  49.241  48.899  1.00  0.00     0.000 A 
HETATM   20  C   UNL     1      20.385  50.280  48.335  1.00  0.00     0.021 A 
HETATM   21  C   UNL     1      19.949  51.604  48.444  1.00  0.00     0.043 A 
HETATM   22  C   UNL     1      18.754  51.885  49.096  1.00  0.00     0.116 A 
HETATM   23  F   UNL     1      18.341  53.153  49.202  1.00  0.00    -0.206 F 
HETATM   24  C   UNL     1      17.982  50.866  49.634  1.00  0.00     0.043 A 
HETATM   25  C   UNL     1      18.422  49.545  49.534  1.00  0.00     0.021 A 
ENDBRANCH  18  19
ENDBRANCH  17  18
ENDBRANCH  16  17
ENDBRANCH  15  16
ENDBRANCH  12  15
ENDBRANCH   7  11
BRANCH   6  26
HETATM   26  C   UNL     1      26.690  44.750  49.677  1.00  0.00     0.252 C 
HETATM   27  N   UNL     1      26.092  43.793  48.905  1.00  0.00    -0.366 N 
HETATM   28  H   UNL     1      25.186  43.428  49.175  1.00  0.00     0.159 HD
HETATM   29  H   UNL     1      26.241  43.902  47.908  1.00  0.00     0.159 HD
HETATM   30  O   UNL     1      27.443  45.581  49.186  1.00  0.00    -0.268 OA
ENDBRANCH   6  26
BRANCH   1  31
HETATM   31  C   UNL     1      29.482  43.831  54.390  1.00  0.00     0.273 C 
BRANCH  31  32
HETATM   32  C   UNL     1      30.149  44.132  55.704  1.00  0.00    -0.033 A 
HETATM   33  C   UNL     1      31.124  43.287  56.254  1.00  0.00     0.009 A 
HETATM   34  C   UNL     1      31.741  43.618  57.461  1.00  0.00     0.001 A 
HETATM   35  C   UNL     1      31.410  44.800  58.120  1.00  0.00     0.000 A 
HETATM   36  C   UNL     1      30.459  45.657  57.575  1.00  0.00     0.001 A 
HETATM   37  C   UNL     1      29.831  45.326  56.375  1.00  0.00     0.009 A 
ENDBRANCH  31  32
ENDBRANCH   1  31
TORSDOF 9
ENDMDL
MODEL 2
REMARK VINA RESULT:      -9.5      3.807     11.131
REMARK  9 active torsions:
REMARK  status: ('A' for Active; 'I' for Inactive)
REMARK    1  A    between atoms: C_4  and  C_5 
REMARK    2  A    between atoms: C_5  and  N_6 
REMARK    3  A    between atoms: C_11  and  C_12 
REMARK       I    between atoms: C_12  and  N_13 
REMARK    4  A    between atoms: C_15  and  N_16 
REMARK       I    between atoms: N_16  and  C_17 
REMARK    5  A    between atoms: C_17  and  C_18 
REMARK    6  A    between atoms: C_18  and  C_19 
REMARK    7  A    between atoms: C_19  and  C_20 
REMARK    8  A    between atoms: C_20  and  S_21 
REMARK    9  A    between atoms: S_21  and  C_22 
ROOT
HETATM    1  N   UNL     1      21.578  48.663  48.013  1.00  0.00    -0.063 N 
HETATM    2  H   UNL     1      21.453  49.473  47.399  1.00  0.00     0.280 HD
HETATM    3  C   UNL     1      22.936  48.859  48.684  1.00  0.00     0.282 C 
HETATM    4  C   UNL     1      23.446  47.578  49.247  1.00  0.00     0.018 C 
HETATM    5  C   UNL     1      22.954  46.322  48.954  1.00  0.00    -0.023 C 
HETATM    6  C   UNL     1      23.575  45.305  49.772  1.00  0.00     0.073 C 
HETATM    7  C   UNL     1      24.691  45.825  50.415  1.00  0.00     0.093 C 
HETATM    8  S   UNL     1      24.769  47.522  50.300  1.00  0.00    -0.074 SA
HETATM    9  C   UNL     1      21.851  46.133  47.947  1.00  0.00     0.068 C 
HETATM   10  C   UNL     1      21.596  47.416  47.129  1.00  0.00     0.240 C 
ENDROOT
BRANCH   7  11
HETATM   11  N   UNL     1      25.644  45.120  51.136  1.00  0.00    -0.320 N 
HETATM   12  C   UNL     1      26.843  44.632  50.631  1.00  0.00     0.222 C 
HETATM   13  O   UNL     1      27.237  44.721  49.474  1.00  0.00    -0.273 OA
HETATM   14  H   UNL     1      25.315  44.691  51.996  1.00  0.00     0.169 HD
BRANCH  12  15
HETATM   15  C   UNL     1      27.667  43.944  51.712  1.00  0.00     0.104 C 
BRANCH  15  16
HETATM   16  C   UNL     1      26.823  43.308  52.815  1.00  0.00     0.020 C 
BRANCH  16  17
HETATM   17  C   UNL     1      26.730  44.041  54.158  1.00  0.00     0.080 C 
BRANCH  17  18
HETATM   18  S   UNL     1      27.776  45.525  54.375  1.00  0.00    -0.130 SA
BRANCH  18  19
HETATM   19  C   UNL     1      29.156  44.935  55.340  1.00  0.00     0.000 A 
HETATM   20  C   UNL     1      29.614  45.554  56.508  1.00  0.00     0.021 A 
HETATM   21  C   UNL     1      30.713  45.034  57.198  1.00  0.00     0.043 A 
HETATM   22  C   UNL     1      31.337  43.883  56.733  1.00  0.00     0.116 A 
HETATM   23  F   UNL     1      32.390  43.388  57.394  1.00  0.00    -0.206 F 
HETATM   24  C   UNL     1      30.878  43.236  55.595  1.00  0.00     0.043 A 
HETATM   25  C   UNL     1      29.787  43.761  54.900  1.00  0.00     0.021 A 
ENDBRANCH  18  19
ENDBRANCH  17  18
ENDBRANCH  16  17
ENDBRANCH  15  16
ENDBRANCH  12  15
ENDBRANCH   7  11
BRANCH   6  26
HETATM   26  C   UNL     1      23.140  43.913  49.837  1.00  0.00     0.252 C 
HETATM   27  N   UNL     1      23.670  43.077  48.893  1.00  0.00    -0.366 N 
HETATM   28  H   UNL     1      24.563  43.304  48.471  1.00  0.00     0.159 HD
HETATM   29  H   UNL     1      23.502  42.091  49.061  1.00  0.00     0.159 HD
HETATM   30  O   UNL     1      22.418  43.485  50.728  1.00  0.00    -0.268 OA
ENDBRANCH   6  26
BRANCH   1  31
HETATM   31  C   UNL     1      20.397  48.662  48.957  1.00  0.00     0.273 C 
BRANCH  31  32
HETATM   32  C   UNL     1      19.624  49.949  49.051  1.00  0.00    -0.033 A 
HETATM   33  C   UNL     1      18.485  50.075  49.859  1.00  0.00     0.009 A 
HETATM   34  C   UNL     1      17.813  51.296  49.941  1.00  0.00     0.001 A 
HETATM   35  C   UNL     1      18.279  52.404  49.238  1.00  0.00     0.000 A 
HETATM   36  C   UNL     1      19.420  52.298  48.448  1.00  0.00     0.001 A 
HETATM   37  C   UNL     1      20.089  51.078  48.354  1.00  0.00     0.009 A 
ENDBRANCH  31  32
ENDBRANCH   1  31
TORSDOF 9
ENDMDL
MODEL 3
REMARK VINA RESULT:      -9.4      1.636      2.159
REMARK  9 active torsions:
REMARK  status: ('A' for Active; 'I' for Inactive)
REMARK    1  A    between atoms: C_4  and  C_5 
REMARK    2  A    between atoms: C_5  and  N_6 
REMARK    3  A    between atoms: C_11  and  C_12 
REMARK       I    between atoms: C_12  and  N_13 
REMARK    4  A    between atoms: C_15  and  N_16 
REMARK       I    between atoms: N_16  and  C_17 
REMARK    5  A    between atoms: C_17  and  C_18 
REMARK    6  A    between atoms: C_18  and  C_19 
REMARK    7  A    between atoms: C_19  and  C_20 
REMARK    8  A    between atoms: C_20  and  S_21 
REMARK    9  A    between atoms: S_21  and  C_22 
ROOT
HETATM    1  N   UNL     1      27.788  44.108  54.885  1.00  0.00    -0.063 N 
HETATM    2  H   UNL     1      27.753  43.713  55.829  1.00  0.00     0.280 HD
HETATM    3  C   UNL     1      26.706  45.186  54.849  1.00  0.00     0.282 C 
HETATM    4  C   UNL     1      26.339  45.531  53.448  1.00  0.00     0.018 C 
HETATM    5  C   UNL     1      26.669  44.793  52.328  1.00  0.00    -0.023 C 
HETATM    6  C   UNL     1      26.285  45.474  51.113  1.00  0.00     0.073 C 
HETATM    7  C   UNL     1      25.437  46.534  51.407  1.00  0.00     0.093 C 
HETATM    8  S   UNL     1      25.397  46.885  53.072  1.00  0.00    -0.074 SA
HETATM    9  C   UNL     1      27.407  43.486  52.446  1.00  0.00     0.068 C 
HETATM   10  C   UNL     1      27.453  42.984  53.905  1.00  0.00     0.240 C 
ENDROOT
BRANCH   7  11
HETATM   11  N   UNL     1      24.720  47.305  50.503  1.00  0.00    -0.320 N 
HETATM   12  C   UNL     1      25.259  48.241  49.630  1.00  0.00     0.222 C 
HETATM   13  O   UNL     1      26.440  48.554  49.535  1.00  0.00    -0.273 OA
HETATM   14  H   UNL     1      23.726  47.396  50.697  1.00  0.00     0.169 HD
BRANCH  12  15
HETATM   15  C   UNL     1      24.186  48.871  48.751  1.00  0.00     0.104 C 
BRANCH  15  16
HETATM   16  C   UNL     1      24.249  50.397  48.704  1.00  0.00     0.020 C 
BRANCH  16  17
HETATM   17  C   UNL     1      22.961  51.155  48.364  1.00  0.00     0.080 C 
BRANCH  17  18
HETATM   18  S   UNL     1      21.663  50.238  47.462  1.00  0.00    -0.130 SA
BRANCH  18  19
HETATM   19  C   UNL     1      20.560  49.682  48.750  1.00  0.00     0.000 A 
HETATM   20  C   UNL     1      20.095  50.499  49.785  1.00  0.00     0.021 A 
HETATM   21  C   UNL     1      19.242  49.980  50.765  1.00  0.00     0.043 A 
HETATM   22  C   UNL     1      18.837  48.652  50.692  1.00  0.00     0.116 A 
HETATM   23  F   UNL     1      18.022  48.157  51.632  1.00  0.00    -0.206 F 
HETATM   24  C   UNL     1      19.262  47.835  49.655  1.00  0.00     0.043 A 
HETATM   25  C   UNL     1      20.121  48.350  48.684  1.00  0.00     0.021 A 
ENDBRANCH  18  19
ENDBRANCH  17  18
ENDBRANCH  16  17
ENDBRANCH  15  16
ENDBRANCH  12  15
ENDBRANCH   7  11
BRANCH   6  26
HETATM   26  C   UNL     1      26.662  45.047  49.769  1.00  0.00     0.252 C 
HETATM   27  N   UNL     1      25.796  44.190  49.149  1.00  0.00    -0.366 N 
HETATM   28  H   UNL     1      24.819  44.185  49.419  1.00  0.00     0.159 HD
HETATM   29  H   UNL     1      25.978  44.049  48.161  1.00  0.00     0.159 HD
HETATM   30  O   UNL     1      27.643  45.489  49.183  1.00  0.00    -0.268 OA
ENDBRANCH   6  26
BRANCH   1  31
HETATM   31  C   UNL     1      29.199  44.618  54.691  1.00  0.00     0.273 C 
BRANCH  31  32
HETATM   32  C   UNL     1      30.072  44.627  55.915  1.00  0.00    -0.033 A 
HETATM   33  C   UNL     1      29.936  45.596  56.920  1.00  0.00     0.009 A 
HETATM   34  C   UNL     1      30.747  45.551  58.055  1.00  0.00     0.001 A 
HETATM   35  C   UNL     1      31.684  44.533  58.210  1.00  0.00     0.000 A 
HETATM   36  C   UNL     1      31.817  43.554  57.230  1.00  0.00     0.001 A 
HETATM   37  C   UNL     1      31.017  43.600  56.089  1.00  0.00     0.009 A 
ENDBRANCH  31  32
ENDBRANCH   1  31
TORSDOF 9
ENDMDL
MODEL 4
REMARK VINA RESULT:      -9.0      1.842      2.178
REMARK  9 active torsions:
REMARK  status: ('A' for Active; 'I' for Inactive)
REMARK    1  A    between atoms: C_4  and  C_5 
REMARK    2  A    between atoms: C_5  and  N_6 
REMARK    3  A    between atoms: C_11  and  C_12 
REMARK       I    between atoms: C_12  and  N_13 
REMARK    4  A    between atoms: C_15  and  N_16 
REMARK       I    between atoms: N_16  and  C_17 
REMARK    5  A    between atoms: C_17  and  C_18 
REMARK    6  A    between atoms: C_18  and  C_19 
REMARK    7  A    between atoms: C_19  and  C_20 
REMARK    8  A    between atoms: C_20  and  S_21 
REMARK    9  A    between atoms: S_21  and  C_22 
ROOT
HETATM    1  N   UNL     1      27.217  45.367  55.066  1.00  0.00    -0.063 N 
HETATM    2  H   UNL     1      27.118  45.678  56.037  1.00  0.00     0.280 HD
HETATM    3  C   UNL     1      26.280  46.256  54.250  1.00  0.00     0.282 C 
HETATM    4  C   UNL     1      25.982  45.646  52.925  1.00  0.00     0.018 C 
HETATM    5  C   UNL     1      26.235  44.335  52.570  1.00  0.00    -0.023 C 
HETATM    6  C   UNL     1      25.958  44.102  51.171  1.00  0.00     0.073 C 
HETATM    7  C   UNL     1      25.246  45.170  50.640  1.00  0.00     0.093 C 
HETATM    8  S   UNL     1      25.223  46.513  51.686  1.00  0.00    -0.074 SA
HETATM    9  C   UNL     1      26.801  43.355  53.563  1.00  0.00     0.068 C 
HETATM   10  C   UNL     1      26.760  43.910  55.003  1.00  0.00     0.240 C 
ENDROOT
BRANCH   7  11
HETATM   11  N   UNL     1      24.646  45.235  49.391  1.00  0.00    -0.320 N 
HETATM   12  C   UNL     1      23.430  44.656  49.046  1.00  0.00     0.222 C 
HETATM   13  O   UNL     1      22.713  43.979  49.773  1.00  0.00    -0.273 OA
HETATM   14  H   UNL     1      25.263  45.469  48.619  1.00  0.00     0.169 HD
BRANCH  12  15
HETATM   15  C   UNL     1      23.054  44.965  47.602  1.00  0.00     0.104 C 
BRANCH  15  16
HETATM   16  C   UNL     1      21.588  45.357  47.422  1.00  0.00     0.020 C 
BRANCH  16  17
HETATM   17  C   UNL     1      21.109  46.656  48.079  1.00  0.00     0.080 C 
BRANCH  17  18
HETATM   18  S   UNL     1      22.329  48.006  48.250  1.00  0.00    -0.130 SA
BRANCH  18  19
HETATM   19  C   UNL     1      21.324  49.463  48.479  1.00  0.00     0.000 A 
HETATM   20  C   UNL     1      21.324  50.236  49.644  1.00  0.00     0.021 A 
HETATM   21  C   UNL     1      20.494  51.357  49.747  1.00  0.00     0.043 A 
HETATM   22  C   UNL     1      19.685  51.716  48.676  1.00  0.00     0.116 A 
HETATM   23  F   UNL     1      18.890  52.789  48.778  1.00  0.00    -0.206 F 
HETATM   24  C   UNL     1      19.695  50.981  47.500  1.00  0.00     0.043 A 
HETATM   25  C   UNL     1      20.516  49.856  47.401  1.00  0.00     0.021 A 
ENDBRANCH  18  19
ENDBRANCH  17  18
ENDBRANCH  16  17
ENDBRANCH  15  16
ENDBRANCH  12  15
ENDBRANCH   7  11
BRANCH   6  26
HETATM   26  C   UNL     1      26.301  42.879  50.451  1.00  0.00     0.252 C 
HETATM   27  N   UNL     1      25.646  41.747  50.850  1.00  0.00    -0.366 N 
HETATM   28  H   UNL     1      24.741  41.827  51.298  1.00  0.00     0.159 HD
HETATM   29  H   UNL     1      25.759  40.954  50.228  1.00  0.00     0.159 HD
HETATM   30  O   UNL     1      27.059  42.866  49.489  1.00  0.00    -0.268 OA
ENDBRANCH   6  26
BRANCH   1  31
HETATM   31  C   UNL     1      28.684  45.509  54.724  1.00  0.00     0.273 C 
BRANCH  31  32
HETATM   32  C   UNL     1      29.654  44.959  55.733  1.00  0.00    -0.033 A 
HETATM   33  C   UNL     1      30.437  43.825  55.471  1.00  0.00     0.009 A 
HETATM   34  C   UNL     1      31.348  43.364  56.423  1.00  0.00     0.001 A 
HETATM   35  C   UNL     1      31.502  44.037  57.632  1.00  0.00     0.000 A 
HETATM   36  C   UNL     1      30.746  45.175  57.897  1.00  0.00     0.001 A 
HETATM   37  C   UNL     1      29.827  45.633  56.954  1.00  0.00     0.009 A 
ENDBRANCH  31  32
ENDBRANCH   1  31
TORSDOF 9
ENDMDL
MODEL 5
REMARK VINA RESULT:      -8.9      3.910     11.497
REMARK  9 active torsions:
REMARK  status: ('A' for Active; 'I' for Inactive)
REMARK    1  A    between atoms: C_4  and  C_5 
REMARK    2  A    between atoms: C_5  and  N_6 
REMARK    3  A    between atoms: C_11  and  C_12 
REMARK       I    between atoms: C_12  and  N_13 
REMARK    4  A    between atoms: C_15  and  N_16 
REMARK       I    between atoms: N_16  and  C_17 
REMARK    5  A    between atoms: C_17  and  C_18 
REMARK    6  A    between atoms: C_18  and  C_19 
REMARK    7  A    between atoms: C_19  and  C_20 
REMARK    8  A    between atoms: C_20  and  S_21 
REMARK    9  A    between atoms: S_21  and  C_22 
ROOT
HETATM    1  N   UNL     1      21.277  50.519  48.876  1.00  0.00    -0.063 N 
HETATM    2  H   UNL     1      21.290  51.521  48.661  1.00  0.00     0.280 HD
HETATM    3  C   UNL     1      22.708  50.165  49.277  1.00  0.00     0.282 C 
HETATM    4  C   UNL     1      22.943  48.698  49.184  1.00  0.00     0.018 C 
HETATM    5  C   UNL     1      22.123  47.794  48.538  1.00  0.00    -0.023 C 
HETATM    6  C   UNL     1      22.560  46.434  48.755  1.00  0.00     0.073 C 
HETATM    7  C   UNL     1      23.835  46.423  49.304  1.00  0.00     0.093 C 
HETATM    8  S   UNL     1      24.320  47.965  49.839  1.00  0.00    -0.074 SA
HETATM    9  C   UNL     1      20.902  48.250  47.786  1.00  0.00     0.068 C 
HETATM   10  C   UNL     1      20.884  49.782  47.597  1.00  0.00     0.240 C 
ENDROOT
BRANCH   7  11
HETATM   11  N   UNL     1      24.658  45.320  49.485  1.00  0.00    -0.320 N 
HETATM   12  C   UNL     1      24.811  44.610  50.670  1.00  0.00     0.222 C 
HETATM   13  O   UNL     1      24.272  44.856  51.742  1.00  0.00    -0.273 OA
HETATM   14  H   UNL     1      25.398  45.208  48.799  1.00  0.00     0.169 HD
BRANCH  12  15
HETATM   15  C   UNL     1      25.760  43.431  50.497  1.00  0.00     0.104 C 
BRANCH  15  16
HETATM   16  C   UNL     1      27.167  43.692  51.033  1.00  0.00     0.020 C 
BRANCH  16  17
HETATM   17  C   UNL     1      27.436  43.389  52.511  1.00  0.00     0.080 C 
BRANCH  17  18
HETATM   18  S   UNL     1      27.454  44.806  53.666  1.00  0.00    -0.130 SA
BRANCH  18  19
HETATM   19  C   UNL     1      28.868  44.489  54.708  1.00  0.00     0.000 A 
HETATM   20  C   UNL     1      29.623  43.313  54.662  1.00  0.00     0.021 A 
HETATM   21  C   UNL     1      30.710  43.138  55.524  1.00  0.00     0.043 A 
HETATM   22  C   UNL     1      31.055  44.150  56.412  1.00  0.00     0.116 A 
HETATM   23  F   UNL     1      32.094  43.979  57.238  1.00  0.00    -0.206 F 
HETATM   24  C   UNL     1      30.338  45.337  56.451  1.00  0.00     0.043 A 
HETATM   25  C   UNL     1      29.246  45.507  55.597  1.00  0.00     0.021 A 
ENDBRANCH  18  19
ENDBRANCH  17  18
ENDBRANCH  16  17
ENDBRANCH  15  16
ENDBRANCH  12  15
ENDBRANCH   7  11
BRANCH   6  26
HETATM   26  C   UNL     1      21.802  45.248  48.366  1.00  0.00     0.252 C 
HETATM   27  N   UNL     1      20.695  44.972  49.121  1.00  0.00    -0.366 N 
HETATM   28  H   UNL     1      20.230  45.724  49.617  1.00  0.00     0.159 HD
HETATM   29  H   UNL     1      20.086  44.260  48.732  1.00  0.00     0.159 HD
HETATM   30  O   UNL     1      22.074  44.582  47.376  1.00  0.00    -0.268 OA
ENDBRANCH   6  26
BRANCH   1  31
HETATM   31  C   UNL     1      20.248  50.334  49.968  1.00  0.00     0.273 C 
BRANCH  31  32
HETATM   32  C   UNL     1      18.871  50.866  49.677  1.00  0.00    -0.033 A 
HETATM   33  C   UNL     1      18.550  52.222  49.834  1.00  0.00     0.009 A 
HETATM   34  C   UNL     1      17.268  52.681  49.523  1.00  0.00     0.001 A 
HETATM   35  C   UNL     1      16.305  51.801  49.037  1.00  0.00     0.000 A 
HETATM   36  C   UNL     1      16.616  50.456  48.859  1.00  0.00     0.001 A 
HETATM   37  C   UNL     1      17.891  49.991  49.177  1.00  0.00     0.009 A 
ENDBRANCH  31  32
ENDBRANCH   1  31
TORSDOF 9
ENDMDL
MODEL 6
REMARK VINA RESULT:      -8.5      4.770      6.100
REMARK  9 active torsions:
REMARK  status: ('A' for Active; 'I' for Inactive)
REMARK    1  A    between atoms: C_4  and  C_5 
REMARK    2  A    between atoms: C_5  and  N_6 
REMARK    3  A    between atoms: C_11  and  C_12 
REMARK       I    between atoms: C_12  and  N_13 
REMARK    4  A    between atoms: C_15  and  N_16 
REMARK       I    between atoms: N_16  and  C_17 
REMARK    5  A    between atoms: C_17  and  C_18 
REMARK    6  A    between atoms: C_18  and  C_19 
REMARK    7  A    between atoms: C_19  and  C_20 
REMARK    8  A    between atoms: C_20  and  S_21 
REMARK    9  A    between atoms: S_21  and  C_22 
ROOT
HETATM    1  N   UNL     1      27.867  44.098  53.881  1.00  0.00    -0.063 N 
HETATM    2  H   UNL     1      27.626  44.797  54.590  1.00  0.00     0.280 HD
HETATM    3  C   UNL     1      27.285  44.623  52.569  1.00  0.00     0.282 C 
HETATM    4  C   UNL     1      27.164  43.533  51.562  1.00  0.00     0.018 C 
HETATM    5  C   UNL     1      27.252  42.181  51.829  1.00  0.00    -0.023 C 
HETATM    6  C   UNL     1      27.232  41.399  50.615  1.00  0.00     0.073 C 
HETATM    7  C   UNL     1      26.840  42.190  49.542  1.00  0.00     0.093 C 
HETATM    8  S   UNL     1      26.837  43.848  49.932  1.00  0.00    -0.074 SA
HETATM    9  C   UNL     1      27.424  41.675  53.236  1.00  0.00     0.068 C 
HETATM   10  C   UNL     1      27.186  42.789  54.278  1.00  0.00     0.240 C 
ENDROOT
BRANCH   7  11
HETATM   11  N   UNL     1      26.529  41.764  48.259  1.00  0.00    -0.320 N 
HETATM   12  C   UNL     1      27.432  41.258  47.333  1.00  0.00     0.222 C 
HETATM   13  O   UNL     1      28.641  41.133  47.487  1.00  0.00    -0.273 OA
HETATM   14  H   UNL     1      25.651  42.110  47.883  1.00  0.00     0.169 HD
BRANCH  12  15
HETATM   15  C   UNL     1      26.738  40.848  46.040  1.00  0.00     0.104 C 
BRANCH  15  16
HETATM   16  C   UNL     1      26.185  39.423  46.066  1.00  0.00     0.020 C 
BRANCH  16  17
HETATM   17  C   UNL     1      24.814  39.200  46.714  1.00  0.00     0.080 C 
BRANCH  17  18
HETATM   18  S   UNL     1      23.410  40.168  46.055  1.00  0.00    -0.130 SA
BRANCH  18  19
HETATM   19  C   UNL     1      23.290  41.557  47.169  1.00  0.00     0.000 A 
HETATM   20  C   UNL     1      23.065  41.437  48.544  1.00  0.00     0.021 A 
HETATM   21  C   UNL     1      22.971  42.579  49.346  1.00  0.00     0.043 A 
HETATM   22  C   UNL     1      23.126  43.837  48.774  1.00  0.00     0.116 A 
HETATM   23  F   UNL     1      23.033  44.929  49.543  1.00  0.00    -0.206 F 
HETATM   24  C   UNL     1      23.381  43.975  47.418  1.00  0.00     0.043 A 
HETATM   25  C   UNL     1      23.466  42.835  46.616  1.00  0.00     0.021 A 
ENDBRANCH  18  19
ENDBRANCH  17  18
ENDBRANCH  16  17
ENDBRANCH  15  16
ENDBRANCH  12  15
ENDBRANCH   7  11
BRANCH   6  26
HETATM   26  C   UNL     1      27.497  39.965  50.548  1.00  0.00     0.252 C 
HETATM   27  N   UNL     1      26.396  39.155  50.513  1.00  0.00    -0.366 N 
HETATM   28  H   UNL     1      25.520  39.519  50.157  1.00  0.00     0.159 HD
HETATM   29  H   UNL     1      26.593  38.186  50.286  1.00  0.00     0.159 HD
HETATM   30  O   UNL     1      28.626  39.504  50.439  1.00  0.00    -0.268 OA
ENDBRANCH   6  26
BRANCH   1  31
HETATM   31  C   UNL     1      29.374  43.974  53.902  1.00  0.00     0.273 C 
BRANCH  31  32
HETATM   32  C   UNL     1      30.033  44.158  55.241  1.00  0.00    -0.033 A 
HETATM   33  C   UNL     1      29.813  45.298  56.028  1.00  0.00     0.009 A 
HETATM   34  C   UNL     1      30.421  45.416  57.280  1.00  0.00     0.001 A 
HETATM   35  C   UNL     1      31.235  44.396  57.766  1.00  0.00     0.000 A 
HETATM   36  C   UNL     1      31.446  43.251  57.003  1.00  0.00     0.001 A 
HETATM   37  C   UNL     1      30.850  43.132  55.748  1.00  0.00     0.009 A 
ENDBRANCH  31  32
ENDBRANCH   1  31
TORSDOF 9
ENDMDL
MODEL 7
REMARK VINA RESULT:      -8.5      4.097     12.334
REMARK  9 active torsions:
REMARK  status: ('A' for Active; 'I' for Inactive)
REMARK    1  A    between atoms: C_4  and  C_5 
REMARK    2  A    between atoms: C_5  and  N_6 
REMARK    3  A    between atoms: C_11  and  C_12 
REMARK       I    between atoms: C_12  and  N_13 
REMARK    4  A    between atoms: C_15  and  N_16 
REMARK       I    between atoms: N_16  and  C_17 
REMARK    5  A    between atoms: C_17  and  C_18 
REMARK    6  A    between atoms: C_18  and  C_19 
REMARK    7  A    between atoms: C_19  and  C_20 
REMARK    8  A    between atoms: C_20  and  S_21 
REMARK    9  A    between atoms: S_21  and  C_22 
ROOT
HETATM    1  N   UNL     1      17.903  51.860  48.001  1.00  0.00    -0.063 N 
HETATM    2  H   UNL     1      17.556  52.723  47.570  1.00  0.00     0.280 HD
HETATM    3  C   UNL     1      19.332  52.167  48.445  1.00  0.00     0.282 C 
HETATM    4  C   UNL     1      20.102  50.913  48.674  1.00  0.00     0.018 C 
HETATM    5  C   UNL     1      19.724  49.652  48.257  1.00  0.00    -0.023 C 
HETATM    6  C   UNL     1      20.620  48.637  48.761  1.00  0.00     0.073 C 
HETATM    7  C   UNL     1      21.768  49.225  49.277  1.00  0.00     0.093 C 
HETATM    8  S   UNL     1      21.606  50.911  49.450  1.00  0.00    -0.074 SA
HETATM    9  C   UNL     1      18.475  49.443  47.444  1.00  0.00     0.068 C 
HETATM   10  C   UNL     1      17.901  50.778  46.922  1.00  0.00     0.240 C 
ENDROOT
BRANCH   7  11
HETATM   11  N   UNL     1      22.927  48.579  49.682  1.00  0.00    -0.320 N 
HETATM   12  C   UNL     1      24.165  48.671  49.058  1.00  0.00     0.222 C 
HETATM   13  O   UNL     1      24.424  49.307  48.043  1.00  0.00    -0.273 OA
HETATM   14  H   UNL     1      22.793  47.777  50.291  1.00  0.00     0.169 HD
BRANCH  12  15
HETATM   15  C   UNL     1      25.226  47.865  49.797  1.00  0.00     0.104 C 
BRANCH  15  16
HETATM   16  C   UNL     1      24.661  46.684  50.584  1.00  0.00     0.020 C 
BRANCH  16  17
HETATM   17  C   UNL     1      25.622  45.550  50.958  1.00  0.00     0.080 C 
BRANCH  17  18
HETATM   18  S   UNL     1      25.301  44.664  52.525  1.00  0.00    -0.130 SA
BRANCH  18  19
HETATM   19  C   UNL     1      26.699  45.089  53.549  1.00  0.00     0.000 A 
HETATM   20  C   UNL     1      27.705  44.187  53.911  1.00  0.00     0.021 A 
HETATM   21  C   UNL     1      28.761  44.599  54.730  1.00  0.00     0.043 A 
HETATM   22  C   UNL     1      28.823  45.917  55.164  1.00  0.00     0.116 A 
HETATM   23  F   UNL     1      29.834  46.308  55.949  1.00  0.00    -0.206 F 
HETATM   24  C   UNL     1      27.853  46.835  54.789  1.00  0.00     0.043 A 
HETATM   25  C   UNL     1      26.793  46.422  53.980  1.00  0.00     0.021 A 
ENDBRANCH  18  19
ENDBRANCH  17  18
ENDBRANCH  16  17
ENDBRANCH  15  16
ENDBRANCH  12  15
ENDBRANCH   7  11
BRANCH   6  26
HETATM   26  C   UNL     1      20.387  47.199  48.656  1.00  0.00     0.252 C 
HETATM   27  N   UNL     1      19.389  46.697  49.445  1.00  0.00    -0.366 N 
HETATM   28  H   UNL     1      18.637  47.306  49.746  1.00  0.00     0.159 HD
HETATM   29  H   UNL     1      19.121  45.743  49.229  1.00  0.00     0.159 HD
HETATM   30  O   UNL     1      20.976  46.488  47.852  1.00  0.00    -0.268 OA
ENDBRANCH   6  26
BRANCH   1  31
HETATM   31  C   UNL     1      16.945  51.533  49.124  1.00  0.00     0.273 C 
BRANCH  31  32
HETATM   32  C   UNL     1      15.759  52.446  49.269  1.00  0.00    -0.033 A 
HETATM   33  C   UNL     1      15.189  52.733  50.518  1.00  0.00     0.009 A 
HETATM   34  C   UNL     1      14.107  53.610  50.612  1.00  0.00     0.001 A 
HETATM   35  C   UNL     1      13.597  54.223  49.470  1.00  0.00     0.000 A 
HETATM   36  C   UNL     1      14.166  53.963  48.227  1.00  0.00     0.001 A 
HETATM   37  C   UNL     1      15.240  53.079  48.126  1.00  0.00     0.009 A 
ENDBRANCH  31  32
ENDBRANCH   1  31
TORSDOF 9
ENDMDL
MODEL 8
REMARK VINA RESULT:      -8.5      3.785     11.007
REMARK  9 active torsions:
REMARK  status: ('A' for Active; 'I' for Inactive)
REMARK    1  A    between atoms: C_4  and  C_5 
REMARK    2  A    between atoms: C_5  and  N_6 
REMARK    3  A    between atoms: C_11  and  C_12 
REMARK       I    between atoms: C_12  and  N_13 
REMARK    4  A    between atoms: C_15  and  N_16 
REMARK       I    between atoms: N_16  and  C_17 
REMARK    5  A    between atoms: C_17  and  C_18 
REMARK    6  A    between atoms: C_18  and  C_19 
REMARK    7  A    between atoms: C_19  and  C_20 
REMARK    8  A    between atoms: C_20  and  S_21 
REMARK    9  A    between atoms: S_21  and  C_22 
ROOT
HETATM    1  N   UNL     1      22.159  50.270  48.531  1.00  0.00    -0.063 N 
HETATM    2  H   UNL     1      22.432  51.192  48.178  1.00  0.00     0.280 HD
HETATM    3  C   UNL     1      23.466  49.545  48.843  1.00  0.00     0.282 C 
HETATM    4  C   UNL     1      23.254  48.074  48.936  1.00  0.00     0.018 C 
HETATM    5  C   UNL     1      22.132  47.397  48.501  1.00  0.00    -0.023 C 
HETATM    6  C   UNL     1      22.182  45.999  48.865  1.00  0.00     0.073 C 
HETATM    7  C   UNL     1      23.460  45.661  49.290  1.00  0.00     0.093 C 
HETATM    8  S   UNL     1      24.434  47.032  49.556  1.00  0.00    -0.074 SA
HETATM    9  C   UNL     1      21.007  48.118  47.808  1.00  0.00     0.068 C 
HETATM   10  C   UNL     1      21.408  49.554  47.409  1.00  0.00     0.240 C 
ENDROOT
BRANCH   7  11
HETATM   11  N   UNL     1      23.946  44.387  49.546  1.00  0.00    -0.320 N 
HETATM   12  C   UNL     1      24.271  43.436  48.587  1.00  0.00     0.222 C 
HETATM   13  O   UNL     1      24.158  43.557  47.373  1.00  0.00    -0.273 OA
HETATM   14  H   UNL     1      23.779  44.035  50.485  1.00  0.00     0.169 HD
BRANCH  12  15
HETATM   15  C   UNL     1      24.816  42.163  49.223  1.00  0.00     0.104 C 
BRANCH  15  16
HETATM   16  C   UNL     1      25.296  42.353  50.660  1.00  0.00     0.020 C 
BRANCH  16  17
HETATM   17  C   UNL     1      26.771  42.709  50.880  1.00  0.00     0.080 C 
BRANCH  17  18
HETATM   18  S   UNL     1      27.768  41.558  51.892  1.00  0.00    -0.130 SA
BRANCH  18  19
HETATM   19  C   UNL     1      28.523  42.613  53.118  1.00  0.00     0.000 A 
HETATM   20  C   UNL     1      29.803  42.408  53.642  1.00  0.00     0.021 A 
HETATM   21  C   UNL     1      30.316  43.276  54.611  1.00  0.00     0.043 A 
HETATM   22  C   UNL     1      29.557  44.360  55.037  1.00  0.00     0.116 A 
HETATM   23  F   UNL     1      30.049  45.187  55.967  1.00  0.00    -0.206 F 
HETATM   24  C   UNL     1      28.298  44.598  54.506  1.00  0.00     0.043 A 
HETATM   25  C   UNL     1      27.782  43.726  53.546  1.00  0.00     0.021 A 
ENDBRANCH  18  19
ENDBRANCH  17  18
ENDBRANCH  16  17
ENDBRANCH  15  16
ENDBRANCH  12  15
ENDBRANCH   7  11
BRANCH   6  26
HETATM   26  C   UNL     1      21.070  45.064  48.717  1.00  0.00     0.252 C 
HETATM   27  N   UNL     1      19.999  45.275  49.541  1.00  0.00    -0.366 N 
HETATM   28  H   UNL     1      19.826  46.204  49.907  1.00  0.00     0.159 HD
HETATM   29  H   UNL     1      19.173  44.736  49.304  1.00  0.00     0.159 HD
HETATM   30  O   UNL     1      21.044  44.195  47.855  1.00  0.00    -0.268 OA
ENDBRANCH   6  26
BRANCH   1  31
HETATM   31  C   UNL     1      21.270  50.521  49.728  1.00  0.00     0.273 C 
BRANCH  31  32
HETATM   32  C   UNL     1      19.945  51.172  49.443  1.00  0.00    -0.033 A 
HETATM   33  C   UNL     1      19.808  52.196  48.494  1.00  0.00     0.009 A 
HETATM   34  C   UNL     1      18.553  52.753  48.238  1.00  0.00     0.001 A 
HETATM   35  C   UNL     1      17.425  52.285  48.907  1.00  0.00     0.000 A 
HETATM   36  C   UNL     1      17.545  51.256  49.837  1.00  0.00     0.001 A 
HETATM   37  C   UNL     1      18.796  50.704  50.105  1.00  0.00     0.009 A 
ENDBRANCH  31  32
ENDBRANCH   1  31
TORSDOF 9
ENDMDL
MODEL 9
REMARK VINA RESULT:      -8.3      4.156     12.304
REMARK  9 active torsions:
REMARK  status: ('A' for Active; 'I' for Inactive)
REMARK    1  A    between atoms: C_4  and  C_5 
REMARK    2  A    between atoms: C_5  and  N_6 
REMARK    3  A    between atoms: C_11  and  C_12 
REMARK       I    between atoms: C_12  and  N_13 
REMARK    4  A    between atoms: C_15  and  N_16 
REMARK       I    between atoms: N_16  and  C_17 
REMARK    5  A    between atoms: C_17  and  C_18 
REMARK    6  A    between atoms: C_18  and  C_19 
REMARK    7  A    between atoms: C_19  and  C_20 
REMARK    8  A    between atoms: C_20  and  S_21 
REMARK    9  A    between atoms: S_21  and  C_22 
ROOT
HETATM    1  N   UNL     1      18.607  51.635  47.699  1.00  0.00    -0.063 N 
HETATM    2  H   UNL     1      18.245  52.544  47.394  1.00  0.00     0.280 HD
HETATM    3  C   UNL     1      19.867  51.943  48.507  1.00  0.00     0.282 C 
HETATM    4  C   UNL     1      20.730  50.736  48.632  1.00  0.00     0.018 C 
HETATM    5  C   UNL     1      20.609  49.582  47.883  1.00  0.00    -0.023 C 
HETATM    6  C   UNL     1      21.510  48.552  48.348  1.00  0.00     0.073 C 
HETATM    7  C   UNL     1      22.445  49.093  49.222  1.00  0.00     0.093 C 
HETATM    8  S   UNL     1      22.035  50.672  49.707  1.00  0.00    -0.074 SA
HETATM    9  C   UNL     1      19.586  49.470  46.785  1.00  0.00     0.068 C 
HETATM   10  C   UNL     1      18.961  50.840  46.443  1.00  0.00     0.240 C 
ENDROOT
BRANCH   7  11
HETATM   11  N   UNL     1      23.573  48.466  49.731  1.00  0.00    -0.320 N 
HETATM   12  C   UNL     1      24.879  48.684  49.311  1.00  0.00     0.222 C 
HETATM   13  O   UNL     1      25.241  49.438  48.415  1.00  0.00    -0.273 OA
HETATM   14  H   UNL     1      23.404  47.597  50.230  1.00  0.00     0.169 HD
BRANCH  12  15
HETATM   15  C   UNL     1      25.872  47.857  50.118  1.00  0.00     0.104 C 
BRANCH  15  16
HETATM   16  C   UNL     1      25.219  46.994  51.196  1.00  0.00     0.020 C 
BRANCH  16  17
HETATM   17  C   UNL     1      26.125  46.072  52.021  1.00  0.00     0.080 C 
BRANCH  17  18
HETATM   18  S   UNL     1      25.989  46.176  53.841  1.00  0.00    -0.130 SA
BRANCH  18  19
HETATM   19  C   UNL     1      27.509  45.446  54.423  1.00  0.00     0.000 A 
HETATM   20  C   UNL     1      28.411  46.095  55.273  1.00  0.00     0.021 A 
HETATM   21  C   UNL     1      29.589  45.456  55.673  1.00  0.00     0.043 A 
HETATM   22  C   UNL     1      29.851  44.161  55.242  1.00  0.00     0.116 A 
HETATM   23  F   UNL     1      30.980  43.552  55.624  1.00  0.00    -0.206 F 
HETATM   24  C   UNL     1      28.953  43.489  54.425  1.00  0.00     0.043 A 
HETATM   25  C   UNL     1      27.782  44.130  54.018  1.00  0.00     0.021 A 
ENDBRANCH  18  19
ENDBRANCH  17  18
ENDBRANCH  16  17
ENDBRANCH  15  16
ENDBRANCH  12  15
ENDBRANCH   7  11
BRANCH   6  26
HETATM   26  C   UNL     1      21.489  47.165  47.892  1.00  0.00     0.252 C 
HETATM   27  N   UNL     1      20.941  46.260  48.757  1.00  0.00    -0.366 N 
HETATM   28  H   UNL     1      20.261  46.571  49.441  1.00  0.00     0.159 HD
HETATM   29  H   UNL     1      20.771  45.343  48.356  1.00  0.00     0.159 HD
HETATM   30  O   UNL     1      21.854  46.830  46.772  1.00  0.00    -0.268 OA
ENDBRANCH   6  26
BRANCH   1  31
HETATM   31  C   UNL     1      17.494  50.978  48.483  1.00  0.00     0.273 C 
BRANCH  31  32
HETATM   32  C   UNL     1      16.387  50.364  47.672  1.00  0.00    -0.033 A 
HETATM   33  C   UNL     1      15.670  51.098  46.715  1.00  0.00     0.009 A 
HETATM   34  C   UNL     1      14.670  50.482  45.961  1.00  0.00     0.001 A 
HETATM   35  C   UNL     1      14.387  49.130  46.138  1.00  0.00     0.000 A 
HETATM   36  C   UNL     1      15.104  48.385  47.070  1.00  0.00     0.001 A 
HETATM   37  C   UNL     1      16.097  48.998  47.833  1.00  0.00     0.009 A 
ENDBRANCH  31  32
ENDBRANCH   1  31
TORSDOF 9
ENDMDL
MODEL 10
REMARK VINA RESULT:      -8.3      4.374     12.890
REMARK  9 active torsions:
REMARK  status: ('A' for Active; 'I' for Inactive)
REMARK    1  A    between atoms: C_4  and  C_5 
REMARK    2  A    between atoms: C_5  and  N_6 
REMARK    3  A    between atoms: C_11  and  C_12 
REMARK       I    between atoms: C_12  and  N_13 
REMARK    4  A    between atoms: C_15  and  N_16 
REMARK       I    between atoms: N_16  and  C_17 
REMARK    5  A    between atoms: C_17  and  C_18 
REMARK    6  A    between atoms: C_18  and  C_19 
REMARK    7  A    between atoms: C_19  and  C_20 
REMARK    8  A    between atoms: C_20  and  S_21 
REMARK    9  A    between atoms: S_21  and  C_22 
ROOT
HETATM    1  N   UNL     1      17.545  51.433  48.094  1.00  0.00    -0.063 N 
HETATM    2  H   UNL     1      16.612  51.759  48.363  1.00  0.00     0.280 HD
HETATM    3  C   UNL     1      17.701  50.056  48.737  1.00  0.00     0.282 C 
HETATM    4  C   UNL     1      19.134  49.658  48.810  1.00  0.00     0.018 C 
HETATM    5  C   UNL     1      20.211  50.504  48.630  1.00  0.00    -0.023 C 
HETATM    6  C   UNL     1      21.460  49.777  48.627  1.00  0.00     0.073 C 
HETATM    7  C   UNL     1      21.262  48.484  49.092  1.00  0.00     0.093 C 
HETATM    8  S   UNL     1      19.611  48.080  49.193  1.00  0.00    -0.074 SA
HETATM    9  C   UNL     1      20.013  51.977  48.396  1.00  0.00     0.068 C 
HETATM   10  C   UNL     1      18.560  52.412  48.681  1.00  0.00     0.240 C 
ENDROOT
BRANCH   7  11
HETATM   11  N   UNL     1      22.240  47.549  49.404  1.00  0.00    -0.320 N 
HETATM   12  C   UNL     1      22.790  46.628  48.521  1.00  0.00     0.222 C 
HETATM   13  O   UNL     1      22.485  46.475  47.344  1.00  0.00    -0.273 OA
HETATM   14  H   UNL     1      22.345  47.339  50.392  1.00  0.00     0.169 HD
BRANCH  12  15
HETATM   15  C   UNL     1      23.868  45.786  49.191  1.00  0.00     0.104 C 
BRANCH  15  16
HETATM   16  C   UNL     1      24.535  46.476  50.380  1.00  0.00     0.020 C 
BRANCH  16  17
HETATM   17  C   UNL     1      24.987  45.599  51.553  1.00  0.00     0.080 C 
BRANCH  17  18
HETATM   18  S   UNL     1      25.440  43.868  51.179  1.00  0.00    -0.130 SA
BRANCH  18  19
HETATM   19  C   UNL     1      26.748  43.509  52.338  1.00  0.00     0.000 A 
HETATM   20  C   UNL     1      27.422  42.285  52.400  1.00  0.00     0.021 A 
HETATM   21  C   UNL     1      28.428  42.081  53.349  1.00  0.00     0.043 A 
HETATM   22  C   UNL     1      28.775  43.109  54.218  1.00  0.00     0.116 A 
HETATM   23  F   UNL     1      29.737  42.910  55.127  1.00  0.00    -0.206 F 
HETATM   24  C   UNL     1      28.140  44.340  54.151  1.00  0.00     0.043 A 
HETATM   25  C   UNL     1      27.129  44.541  53.210  1.00  0.00     0.021 A 
ENDBRANCH  18  19
ENDBRANCH  17  18
ENDBRANCH  16  17
ENDBRANCH  15  16
ENDBRANCH  12  15
ENDBRANCH   7  11
BRANCH   6  26
HETATM   26  C   UNL     1      22.754  50.354  48.272  1.00  0.00     0.252 C 
HETATM   27  N   UNL     1      23.293  51.218  49.185  1.00  0.00    -0.366 N 
HETATM   28  H   UNL     1      23.030  51.141  50.161  1.00  0.00     0.159 HD
HETATM   29  H   UNL     1      24.261  51.465  49.010  1.00  0.00     0.159 HD
HETATM   30  O   UNL     1      23.372  50.028  47.267  1.00  0.00    -0.268 OA
ENDBRANCH   6  26
BRANCH   1  31
HETATM   31  C   UNL     1      17.574  51.434  46.582  1.00  0.00     0.273 C 
BRANCH  31  32
HETATM   32  C   UNL     1      16.593  52.350  45.903  1.00  0.00    -0.033 A 
HETATM   33  C   UNL     1      15.367  52.695  46.491  1.00  0.00     0.009 A 
HETATM   34  C   UNL     1      14.498  53.572  45.841  1.00  0.00     0.001 A 
HETATM   35  C   UNL     1      14.848  54.128  44.613  1.00  0.00     0.000 A 
HETATM   36  C   UNL     1      16.070  53.810  44.027  1.00  0.00     0.001 A 
HETATM   37  C   UNL     1      16.937  52.926  44.667  1.00  0.00     0.009 A 
ENDBRANCH  31  32
ENDBRANCH   1  31
TORSDOF 9
ENDMDL
