MODEL 1
REMARK VINA RESULT:      -7.1      0.000      0.000
REMARK  2 active torsions:
REMARK  status: ('A' for Active; 'I' for Inactive)
REMARK    1  A    between atoms: C_2  and  C_3 
REMARK    2  A    between atoms: C_4  and  N_5 
ROOT
HETATM    1  N   UNL     1      31.606  51.980  40.026  1.00  0.00    -0.321 N 
HETATM    2  C   UNL     1      30.786  53.073  40.463  1.00  0.00     0.141 C 
HETATM    3  N   UNL     1      31.293  54.209  40.853  1.00  0.00    -0.380 N 
HETATM    4  H   UNL     1      32.296  54.334  40.821  1.00  0.00     0.158 HD
HETATM    5  H   UNL     1      30.682  54.948  41.172  1.00  0.00     0.158 HD
HETATM    6  S   UNL     1      29.100  52.705  40.487  1.00  0.00    -0.086 SA
HETATM    7  C   UNL     1      29.496  50.926  40.492  1.00  0.00     0.093 C 
HETATM    8  C   UNL     1      30.764  50.838  39.617  1.00  0.00     0.121 C 
HETATM    9  C   UNL     1      28.547  49.904  39.914  1.00  0.00     0.158 C 
HETATM   10  S   UNL     1      29.659  48.516  39.600  1.00  0.00     0.147 S 
HETATM   11  O   UNL     1      29.545  47.579  40.697  1.00  0.00    -0.228 OA
HETATM   12  O   UNL     1      29.508  48.121  38.215  1.00  0.00    -0.228 OA
HETATM   13  C   UNL     1      31.218  49.406  39.772  1.00  0.00     0.167 C 
ENDROOT
BRANCH   1  14
HETATM   14  C   UNL     1      32.911  51.733  40.472  1.00  0.00     0.043 A 
HETATM   15  C   UNL     1      33.239  51.423  41.808  1.00  0.00    -0.028 A 
HETATM   16  C   UNL     1      34.603  51.184  42.112  1.00  0.00     0.010 A 
HETATM   17  C   UNL     1      35.604  51.238  41.145  1.00  0.00     0.001 A 
HETATM   18  C   UNL     1      35.272  51.527  39.833  1.00  0.00     0.002 A 
HETATM   19  C   UNL     1      33.941  51.768  39.503  1.00  0.00     0.030 A 
BRANCH  15  20
HETATM   20  C   UNL     1      32.279  51.256  42.987  1.00  0.00     0.013 C 
HETATM   21  C   UNL     1      32.699  51.806  44.350  1.00  0.00     0.015 C 
HETATM   22  C   UNL     1      31.833  49.794  43.132  1.00  0.00     0.015 C 
ENDBRANCH  15  20
ENDBRANCH   1  14
TORSDOF 2
ENDMDL
MODEL 2
REMARK VINA RESULT:      -6.9     12.610     14.510
REMARK  2 active torsions:
REMARK  status: ('A' for Active; 'I' for Inactive)
REMARK    1  A    between atoms: C_2  and  C_3 
REMARK    2  A    between atoms: C_4  and  N_5 
ROOT
HETATM    1  N   UNL     1      26.688  43.191  52.073  1.00  0.00    -0.321 N 
HETATM    2  C   UNL     1      26.249  42.012  51.383  1.00  0.00     0.141 C 
HETATM    3  N   UNL     1      26.532  40.813  51.807  1.00  0.00    -0.380 N 
HETATM    4  H   UNL     1      27.056  40.709  52.665  1.00  0.00     0.158 HD
HETATM    5  H   UNL     1      26.221  40.009  51.281  1.00  0.00     0.158 HD
HETATM    6  S   UNL     1      25.388  42.347  49.925  1.00  0.00    -0.086 SA
HETATM    7  C   UNL     1      26.107  44.022  49.893  1.00  0.00     0.093 C 
HETATM    8  C   UNL     1      26.197  44.402  51.386  1.00  0.00     0.121 C 
HETATM    9  C   UNL     1      25.391  45.176  49.235  1.00  0.00     0.158 C 
HETATM   10  S   UNL     1      26.175  46.592  50.037  1.00  0.00     0.147 S 
HETATM   11  O   UNL     1      27.206  47.104  49.161  1.00  0.00    -0.228 OA
HETATM   12  O   UNL     1      25.134  47.430  50.594  1.00  0.00    -0.228 OA
HETATM   13  C   UNL     1      26.970  45.699  51.388  1.00  0.00     0.167 C 
ENDROOT
BRANCH   1  14
HETATM   14  C   UNL     1      27.856  43.276  52.843  1.00  0.00     0.043 A 
HETATM   15  C   UNL     1      27.909  43.859  54.126  1.00  0.00    -0.028 A 
HETATM   16  C   UNL     1      29.159  43.864  54.795  1.00  0.00     0.010 A 
HETATM   17  C   UNL     1      30.309  43.312  54.233  1.00  0.00     0.001 A 
HETATM   18  C   UNL     1      30.244  42.727  52.981  1.00  0.00     0.002 A 
HETATM   19  C   UNL     1      29.031  42.708  52.298  1.00  0.00     0.030 A 
BRANCH  15  20
HETATM   20  C   UNL     1      26.749  44.453  54.927  1.00  0.00     0.013 C 
HETATM   21  C   UNL     1      25.364  43.826  54.775  1.00  0.00     0.015 C 
HETATM   22  C   UNL     1      26.658  45.972  54.723  1.00  0.00     0.015 C 
ENDBRANCH  15  20
ENDBRANCH   1  14
TORSDOF 2
ENDMDL
MODEL 3
REMARK VINA RESULT:      -6.9      2.382      4.038
REMARK  2 active torsions:
REMARK  status: ('A' for Active; 'I' for Inactive)
REMARK    1  A    between atoms: C_2  and  C_3 
REMARK    2  A    between atoms: C_4  and  N_5 
ROOT
HETATM    1  N   UNL     1      31.550  50.027  42.365  1.00  0.00    -0.321 N 
HETATM    2  C   UNL     1      31.677  48.750  41.725  1.00  0.00     0.141 C 
HETATM    3  N   UNL     1      32.615  47.903  42.044  1.00  0.00    -0.380 N 
HETATM    4  H   UNL     1      33.258  48.142  42.786  1.00  0.00     0.158 HD
HETATM    5  H   UNL     1      32.682  47.021  41.555  1.00  0.00     0.158 HD
HETATM    6  S   UNL     1      30.527  48.492  40.465  1.00  0.00    -0.086 SA
HETATM    7  C   UNL     1      30.246  50.290  40.363  1.00  0.00     0.093 C 
HETATM    8  C   UNL     1      30.387  50.759  41.826  1.00  0.00     0.121 C 
HETATM    9  C   UNL     1      28.930  50.859  39.892  1.00  0.00     0.158 C 
HETATM   10  S   UNL     1      28.986  52.525  40.587  1.00  0.00     0.147 S 
HETATM   11  O   UNL     1      29.423  53.439  39.555  1.00  0.00    -0.228 OA
HETATM   12  O   UNL     1      27.778  52.734  41.357  1.00  0.00    -0.228 OA
HETATM   13  C   UNL     1      30.355  52.266  41.733  1.00  0.00     0.167 C 
ENDROOT
BRANCH   1  14
HETATM   14  C   UNL     1      32.616  50.757  42.908  1.00  0.00     0.043 A 
HETATM   15  C   UNL     1      33.824  51.007  42.227  1.00  0.00    -0.028 A 
HETATM   16  C   UNL     1      34.812  51.773  42.897  1.00  0.00     0.010 A 
HETATM   17  C   UNL     1      34.619  52.281  44.180  1.00  0.00     0.001 A 
HETATM   18  C   UNL     1      33.423  52.045  44.836  1.00  0.00     0.002 A 
HETATM   19  C   UNL     1      32.435  51.295  44.204  1.00  0.00     0.030 A 
BRANCH  15  20
HETATM   20  C   UNL     1      34.192  50.591  40.801  1.00  0.00     0.013 C 
HETATM   21  C   UNL     1      35.655  50.276  40.491  1.00  0.00     0.015 C 
HETATM   22  C   UNL     1      33.649  51.596  39.776  1.00  0.00     0.015 C 
ENDBRANCH  15  20
ENDBRANCH   1  14
TORSDOF 2
ENDMDL
MODEL 4
REMARK VINA RESULT:      -6.6     13.040     14.738
REMARK  2 active torsions:
REMARK  status: ('A' for Active; 'I' for Inactive)
REMARK    1  A    between atoms: C_2  and  C_3 
REMARK    2  A    between atoms: C_4  and  N_5 
ROOT
HETATM    1  N   UNL     1      18.746  49.000  48.330  1.00  0.00    -0.321 N 
HETATM    2  C   UNL     1      18.271  48.049  49.292  1.00  0.00     0.141 C 
HETATM    3  N   UNL     1      18.789  47.947  50.484  1.00  0.00    -0.380 N 
HETATM    4  H   UNL     1      19.533  48.579  50.749  1.00  0.00     0.158 HD
HETATM    5  H   UNL     1      18.439  47.251  51.126  1.00  0.00     0.158 HD
HETATM    6  S   UNL     1      17.017  47.026  48.691  1.00  0.00    -0.086 SA
HETATM    7  C   UNL     1      17.510  47.437  46.985  1.00  0.00     0.093 C 
HETATM    8  C   UNL     1      17.956  48.910  47.086  1.00  0.00     0.121 C 
HETATM    9  C   UNL     1      16.520  47.402  45.846  1.00  0.00     0.158 C 
HETATM   10  S   UNL     1      17.328  48.466  44.631  1.00  0.00     0.147 S 
HETATM   11  O   UNL     1      18.021  47.628  43.676  1.00  0.00    -0.228 OA
HETATM   12  O   UNL     1      16.389  49.493  44.234  1.00  0.00    -0.228 OA
HETATM   13  C   UNL     1      18.553  49.206  45.730  1.00  0.00     0.167 C 
ENDROOT
BRANCH   1  14
HETATM   14  C   UNL     1      20.061  49.480  48.264  1.00  0.00     0.043 A 
HETATM   15  C   UNL     1      20.415  50.829  48.468  1.00  0.00    -0.028 A 
HETATM   16  C   UNL     1      21.789  51.169  48.383  1.00  0.00     0.010 A 
HETATM   17  C   UNL     1      22.777  50.222  48.117  1.00  0.00     0.001 A 
HETATM   18  C   UNL     1      22.422  48.897  47.934  1.00  0.00     0.002 A 
HETATM   19  C   UNL     1      21.081  48.533  48.010  1.00  0.00     0.030 A 
BRANCH  15  20
HETATM   20  C   UNL     1      19.488  51.990  48.831  1.00  0.00     0.013 C 
HETATM   21  C   UNL     1      18.575  51.838  50.048  1.00  0.00     0.015 C 
HETATM   22  C   UNL     1      18.665  52.440  47.617  1.00  0.00     0.015 C 
ENDBRANCH  15  20
ENDBRANCH   1  14
TORSDOF 2
ENDMDL
MODEL 5
REMARK VINA RESULT:      -6.6      2.988      4.422
REMARK  2 active torsions:
REMARK  status: ('A' for Active; 'I' for Inactive)
REMARK    1  A    between atoms: C_2  and  C_3 
REMARK    2  A    between atoms: C_4  and  N_5 
ROOT
HETATM    1  N   UNL     1      28.764  48.931  40.227  1.00  0.00    -0.321 N 
HETATM    2  C   UNL     1      27.482  49.286  40.764  1.00  0.00     0.141 C 
HETATM    3  N   UNL     1      27.307  50.346  41.501  1.00  0.00    -0.380 N 
HETATM    4  H   UNL     1      28.095  50.955  41.678  1.00  0.00     0.158 HD
HETATM    5  H   UNL     1      26.392  50.551  41.877  1.00  0.00     0.158 HD
HETATM    6  S   UNL     1      26.241  48.144  40.400  1.00  0.00    -0.086 SA
HETATM    7  C   UNL     1      27.512  46.887  40.041  1.00  0.00     0.093 C 
HETATM    8  C   UNL     1      28.657  47.706  39.410  1.00  0.00     0.121 C 
HETATM    9  C   UNL     1      27.255  45.757  39.074  1.00  0.00     0.158 C 
HETATM   10  S   UNL     1      28.937  45.269  38.634  1.00  0.00     0.147 S 
HETATM   11  O   UNL     1      29.307  44.121  39.432  1.00  0.00    -0.228 OA
HETATM   12  O   UNL     1      29.050  45.288  37.191  1.00  0.00    -0.228 OA
HETATM   13  C   UNL     1      29.792  46.716  39.290  1.00  0.00     0.167 C 
ENDROOT
BRANCH   1  14
HETATM   14  C   UNL     1      29.993  49.243  40.822  1.00  0.00     0.043 A 
HETATM   15  C   UNL     1      30.959  50.085  40.235  1.00  0.00    -0.028 A 
HETATM   16  C   UNL     1      32.154  50.322  40.961  1.00  0.00     0.010 A 
HETATM   17  C   UNL     1      32.389  49.762  42.215  1.00  0.00     0.001 A 
HETATM   18  C   UNL     1      31.429  48.949  42.792  1.00  0.00     0.002 A 
HETATM   19  C   UNL     1      30.246  48.697  42.103  1.00  0.00     0.030 A 
BRANCH  15  20
HETATM   20  C   UNL     1      30.855  50.837  38.907  1.00  0.00     0.013 C 
HETATM   21  C   UNL     1      32.142  51.139  38.140  1.00  0.00     0.015 C 
HETATM   22  C   UNL     1      30.029  52.121  39.063  1.00  0.00     0.015 C 
ENDBRANCH  15  20
ENDBRANCH   1  14
TORSDOF 2
ENDMDL
MODEL 6
REMARK VINA RESULT:      -6.5      1.630      2.027
REMARK  2 active torsions:
REMARK  status: ('A' for Active; 'I' for Inactive)
REMARK    1  A    between atoms: C_2  and  C_3 
REMARK    2  A    between atoms: C_4  and  N_5 
ROOT
HETATM    1  N   UNL     1      29.861  50.804  39.976  1.00  0.00    -0.321 N 
HETATM    2  C   UNL     1      28.887  51.313  40.898  1.00  0.00     0.141 C 
HETATM    3  N   UNL     1      29.015  52.475  41.473  1.00  0.00    -0.380 N 
HETATM    4  H   UNL     1      29.813  53.050  41.241  1.00  0.00     0.158 HD
HETATM    5  H   UNL     1      28.316  52.789  42.131  1.00  0.00     0.158 HD
HETATM    6  S   UNL     1      27.594  50.213  41.213  1.00  0.00    -0.086 SA
HETATM    7  C   UNL     1      28.623  48.839  40.599  1.00  0.00     0.093 C 
HETATM    8  C   UNL     1      29.442  49.485  39.462  1.00  0.00     0.121 C 
HETATM    9  C   UNL     1      28.008  47.603  39.989  1.00  0.00     0.158 C 
HETATM   10  S   UNL     1      29.388  46.950  39.024  1.00  0.00     0.147 S 
HETATM   11  O   UNL     1      30.030  45.904  39.790  1.00  0.00    -0.228 OA
HETATM   12  O   UNL     1      28.937  46.758  37.662  1.00  0.00    -0.228 OA
HETATM   13  C   UNL     1      30.438  48.417  39.075  1.00  0.00     0.167 C 
ENDROOT
BRANCH   1  14
HETATM   14  C   UNL     1      31.227  51.116  40.005  1.00  0.00     0.043 A 
HETATM   15  C   UNL     1      32.046  50.948  41.140  1.00  0.00    -0.028 A 
HETATM   16  C   UNL     1      33.416  51.294  41.020  1.00  0.00     0.010 A 
HETATM   17  C   UNL     1      33.962  51.777  39.832  1.00  0.00     0.001 A 
HETATM   18  C   UNL     1      33.155  51.923  38.718  1.00  0.00     0.002 A 
HETATM   19  C   UNL     1      31.805  51.593  38.806  1.00  0.00     0.030 A 
BRANCH  15  20
HETATM   20  C   UNL     1      31.646  50.375  42.501  1.00  0.00     0.013 C 
HETATM   21  C   UNL     1      32.265  50.987  43.758  1.00  0.00     0.015 C 
HETATM   22  C   UNL     1      31.813  48.850  42.529  1.00  0.00     0.015 C 
ENDBRANCH  15  20
ENDBRANCH   1  14
TORSDOF 2
ENDMDL
MODEL 7
REMARK VINA RESULT:      -6.5      3.055      5.484
REMARK  2 active torsions:
REMARK  status: ('A' for Active; 'I' for Inactive)
REMARK    1  A    between atoms: C_2  and  C_3 
REMARK    2  A    between atoms: C_4  and  N_5 
ROOT
HETATM    1  N   UNL     1      30.537  49.539  40.605  1.00  0.00    -0.321 N 
HETATM    2  C   UNL     1      30.467  49.252  42.008  1.00  0.00     0.141 C 
HETATM    3  N   UNL     1      29.455  48.627  42.541  1.00  0.00    -0.380 N 
HETATM    4  H   UNL     1      28.706  48.309  41.940  1.00  0.00     0.158 HD
HETATM    5  H   UNL     1      29.435  48.461  43.537  1.00  0.00     0.158 HD
HETATM    6  S   UNL     1      31.803  49.875  42.907  1.00  0.00    -0.086 SA
HETATM    7  C   UNL     1      32.170  51.030  41.546  1.00  0.00     0.093 C 
HETATM    8  C   UNL     1      31.804  50.225  40.282  1.00  0.00     0.121 C 
HETATM    9  C   UNL     1      33.570  51.538  41.298  1.00  0.00     0.158 C 
HETATM   10  S   UNL     1      33.466  52.054  39.570  1.00  0.00     0.147 S 
HETATM   11  O   UNL     1      33.247  53.484  39.530  1.00  0.00    -0.228 OA
HETATM   12  O   UNL     1      34.533  51.405  38.839  1.00  0.00    -0.228 OA
HETATM   13  C   UNL     1      31.913  51.231  39.161  1.00  0.00     0.167 C 
ENDROOT
BRANCH   1  14
HETATM   14  C   UNL     1      29.426  49.746  39.776  1.00  0.00     0.043 A 
HETATM   15  C   UNL     1      28.638  50.915  39.798  1.00  0.00    -0.028 A 
HETATM   16  C   UNL     1      27.550  50.992  38.892  1.00  0.00     0.010 A 
HETATM   17  C   UNL     1      27.251  49.968  37.996  1.00  0.00     0.001 A 
HETATM   18  C   UNL     1      28.039  48.831  37.969  1.00  0.00     0.002 A 
HETATM   19  C   UNL     1      29.114  48.726  38.848  1.00  0.00     0.030 A 
BRANCH  15  20
HETATM   20  C   UNL     1      28.846  52.163  40.659  1.00  0.00     0.013 C 
HETATM   21  C   UNL     1      27.699  52.627  41.556  1.00  0.00     0.015 C 
HETATM   22  C   UNL     1      29.352  53.339  39.813  1.00  0.00     0.015 C 
ENDBRANCH  15  20
ENDBRANCH   1  14
TORSDOF 2
ENDMDL
MODEL 8
REMARK VINA RESULT:      -6.2     13.050     15.422
REMARK  2 active torsions:
REMARK  status: ('A' for Active; 'I' for Inactive)
REMARK    1  A    between atoms: C_2  and  C_3 
REMARK    2  A    between atoms: C_4  and  N_5 
ROOT
HETATM    1  N   UNL     1      18.973  49.096  47.927  1.00  0.00    -0.321 N 
HETATM    2  C   UNL     1      18.658  47.754  48.325  1.00  0.00     0.141 C 
HETATM    3  N   UNL     1      17.430  47.330  48.431  1.00  0.00    -0.380 N 
HETATM    4  H   UNL     1      16.674  47.960  48.198  1.00  0.00     0.158 HD
HETATM    5  H   UNL     1      17.250  46.384  48.733  1.00  0.00     0.158 HD
HETATM    6  S   UNL     1      20.047  46.805  48.712  1.00  0.00    -0.086 SA
HETATM    7  C   UNL     1      21.020  48.330  48.928  1.00  0.00     0.093 C 
HETATM    8  C   UNL     1      20.436  49.283  47.864  1.00  0.00     0.121 C 
HETATM    9  C   UNL     1      22.512  48.355  48.701  1.00  0.00     0.158 C 
HETATM   10  S   UNL     1      22.807  50.114  48.417  1.00  0.00     0.147 S 
HETATM   11  O   UNL     1      23.274  50.707  49.651  1.00  0.00    -0.228 OA
HETATM   12  O   UNL     1      23.516  50.257  47.163  1.00  0.00    -0.228 OA
HETATM   13  C   UNL     1      21.092  50.611  48.161  1.00  0.00     0.167 C 
ENDROOT
BRANCH   1  14
HETATM   14  C   UNL     1      18.157  50.210  48.163  1.00  0.00     0.043 A 
HETATM   15  C   UNL     1      17.515  50.943  47.145  1.00  0.00    -0.028 A 
HETATM   16  C   UNL     1      16.708  52.043  47.533  1.00  0.00     0.010 A 
HETATM   17  C   UNL     1      16.532  52.404  48.868  1.00  0.00     0.001 A 
HETATM   18  C   UNL     1      17.152  51.669  49.863  1.00  0.00     0.002 A 
HETATM   19  C   UNL     1      17.952  50.585  49.512  1.00  0.00     0.030 A 
BRANCH  15  20
HETATM   20  C   UNL     1      17.537  50.663  45.641  1.00  0.00     0.013 C 
HETATM   21  C   UNL     1      17.444  51.847  44.679  1.00  0.00     0.015 C 
HETATM   22  C   UNL     1      16.493  49.603  45.262  1.00  0.00     0.015 C 
ENDBRANCH  15  20
ENDBRANCH   1  14
TORSDOF 2
ENDMDL
MODEL 9
REMARK VINA RESULT:      -6.1     12.669     14.589
REMARK  2 active torsions:
REMARK  status: ('A' for Active; 'I' for Inactive)
REMARK    1  A    between atoms: C_2  and  C_3 
REMARK    2  A    between atoms: C_4  and  N_5 
ROOT
HETATM    1  N   UNL     1      19.168  49.277  46.482  1.00  0.00    -0.321 N 
HETATM    2  C   UNL     1      18.584  49.655  45.227  1.00  0.00     0.141 C 
HETATM    3  N   UNL     1      18.543  50.894  44.824  1.00  0.00    -0.380 N 
HETATM    4  H   UNL     1      18.962  51.610  45.403  1.00  0.00     0.158 HD
HETATM    5  H   UNL     1      18.106  51.121  43.943  1.00  0.00     0.158 HD
HETATM    6  S   UNL     1      17.890  48.332  44.363  1.00  0.00    -0.086 SA
HETATM    7  C   UNL     1      17.831  47.364  45.905  1.00  0.00     0.093 C 
HETATM    8  C   UNL     1      19.100  47.813  46.660  1.00  0.00     0.121 C 
HETATM    9  C   UNL     1      17.892  45.856  45.895  1.00  0.00     0.158 C 
HETATM   10  S   UNL     1      18.438  45.503  47.580  1.00  0.00     0.147 S 
HETATM   11  O   UNL     1      17.279  45.165  48.377  1.00  0.00    -0.228 OA
HETATM   12  O   UNL     1      19.612  44.659  47.507  1.00  0.00    -0.228 OA
HETATM   13  C   UNL     1      18.963  47.172  48.021  1.00  0.00     0.167 C 
ENDROOT
BRANCH   1  14
HETATM   14  C   UNL     1      19.216  50.095  47.618  1.00  0.00     0.043 A 
HETATM   15  C   UNL     1      20.413  50.488  48.251  1.00  0.00    -0.028 A 
HETATM   16  C   UNL     1      20.311  51.331  49.387  1.00  0.00     0.010 A 
HETATM   17  C   UNL     1      19.085  51.777  49.877  1.00  0.00     0.001 A 
HETATM   18  C   UNL     1      17.916  51.400  49.240  1.00  0.00     0.002 A 
HETATM   19  C   UNL     1      17.984  50.572  48.123  1.00  0.00     0.030 A 
BRANCH  15  20
HETATM   20  C   UNL     1      21.845  50.156  47.825  1.00  0.00     0.013 C 
HETATM   21  C   UNL     1      22.368  48.743  48.077  1.00  0.00     0.015 C 
HETATM   22  C   UNL     1      22.838  51.185  48.380  1.00  0.00     0.015 C 
ENDBRANCH  15  20
ENDBRANCH   1  14
TORSDOF 2
ENDMDL
MODEL 10
REMARK VINA RESULT:      -6.1      3.196      4.141
REMARK  2 active torsions:
REMARK  status: ('A' for Active; 'I' for Inactive)
REMARK    1  A    between atoms: C_2  and  C_3 
REMARK    2  A    between atoms: C_4  and  N_5 
ROOT
HETATM    1  N   UNL     1      28.387  49.192  39.405  1.00  0.00    -0.321 N 
HETATM    2  C   UNL     1      27.477  49.401  40.493  1.00  0.00     0.141 C 
HETATM    3  N   UNL     1      27.377  50.548  41.104  1.00  0.00    -0.380 N 
HETATM    4  H   UNL     1      27.939  51.324  40.783  1.00  0.00     0.158 HD
HETATM    5  H   UNL     1      26.737  50.649  41.880  1.00  0.00     0.158 HD
HETATM    6  S   UNL     1      26.604  47.982  40.945  1.00  0.00    -0.086 SA
HETATM    7  C   UNL     1      27.851  46.955  40.103  1.00  0.00     0.093 C 
HETATM    8  C   UNL     1      28.265  47.813  38.890  1.00  0.00     0.121 C 
HETATM    9  C   UNL     1      27.505  45.603  39.530  1.00  0.00     0.158 C 
HETATM   10  S   UNL     1      28.832  45.368  38.327  1.00  0.00     0.147 S 
HETATM   11  O   UNL     1      29.852  44.534  38.925  1.00  0.00    -0.228 OA
HETATM   12  O   UNL     1      28.232  45.071  37.044  1.00  0.00    -0.228 OA
HETATM   13  C   UNL     1      29.436  47.068  38.294  1.00  0.00     0.167 C 
ENDROOT
BRANCH   1  14
HETATM   14  C   UNL     1      29.602  49.871  39.238  1.00  0.00     0.043 A 
HETATM   15  C   UNL     1      30.743  49.644  40.033  1.00  0.00    -0.028 A 
HETATM   16  C   UNL     1      31.909  50.397  39.741  1.00  0.00     0.010 A 
HETATM   17  C   UNL     1      31.956  51.328  38.705  1.00  0.00     0.001 A 
HETATM   18  C   UNL     1      30.836  51.532  37.918  1.00  0.00     0.002 A 
HETATM   19  C   UNL     1      29.676  50.809  38.181  1.00  0.00     0.030 A 
BRANCH  15  20
HETATM   20  C   UNL     1      30.903  48.627  41.165  1.00  0.00     0.013 C 
HETATM   21  C   UNL     1      30.961  49.142  42.603  1.00  0.00     0.015 C 
HETATM   22  C   UNL     1      32.089  47.689  40.901  1.00  0.00     0.015 C 
ENDBRANCH  15  20
ENDBRANCH   1  14
TORSDOF 2
ENDMDL
