MODEL 1
REMARK VINA RESULT:     -11.7      0.000      0.000
REMARK  7 active torsions:
REMARK  status: ('A' for Active; 'I' for Inactive)
REMARK    1  A    between atoms: C_2  and  C_3 
REMARK    2  A    between atoms: C_4  and  N_5 
REMARK    3  A    between atoms: N_5  and  C_6 
REMARK    4  A    between atoms: C_8  and  N_9 
REMARK    5  A    between atoms: C_11  and  C_12 
REMARK    6  A    between atoms: C_12  and  N_13 
REMARK    7  A    between atoms: C_17  and  C_18 
ROOT
HETATM    1  C   UNL     1      25.819  47.893  49.714  1.00  0.00     0.218 C 
ENDROOT
BRANCH   1   2
HETATM    2  C   UNL     1      24.327  47.929  49.429  1.00  0.00     0.166 A 
HETATM    3  N   UNL     1      23.765  46.868  48.843  1.00  0.00    -0.200 NA
HETATM    4  C   UNL     1      22.460  46.955  48.660  1.00  0.00     0.219 A 
HETATM    5  N   UNL     1      21.705  47.963  49.055  1.00  0.00    -0.031 NA
HETATM    6  C   UNL     1      22.337  48.977  49.636  1.00  0.00     0.731 A 
HETATM    7  N   UNL     1      23.654  49.009  49.833  1.00  0.00    -0.045 NA
BRANCH   4   8
HETATM    8  N   UNL     1      21.832  45.888  48.051  1.00  0.00    -0.270 NA
HETATM    9  H   UNL     1      22.463  45.440  47.401  1.00  0.00     0.127 HD
HETATM   10  H   UNL     1      20.925  46.163  47.701  1.00  0.00     0.127 HD
ENDBRANCH   4   8
BRANCH   6  11
HETATM   11  N   UNL     1      21.639  50.111  50.050  1.00  0.00    -0.188 N 
HETATM   12  H   UNL     1      21.912  50.362  50.988  1.00  0.00     0.184 HD
BRANCH  11  13
HETATM   13  C   UNL     1      20.480  50.733  49.559  1.00  0.00     0.055 A 
HETATM   14  C   UNL     1      19.210  50.387  50.077  1.00  0.00    -0.031 A 
HETATM   15  C   UNL     1      18.055  51.027  49.583  1.00  0.00     0.009 A 
HETATM   16  C   UNL     1      18.145  52.017  48.609  1.00  0.00     0.001 A 
HETATM   17  C   UNL     1      19.390  52.387  48.120  1.00  0.00     0.002 A 
HETATM   18  C   UNL     1      20.542  51.757  48.599  1.00  0.00     0.030 A 
BRANCH  14  19
HETATM   19  C   UNL     1      19.028  49.346  51.160  1.00  0.00     0.036 C 
HETATM   20  C   UNL     1      18.408  48.066  50.621  1.00  0.00     0.010 C 
ENDBRANCH  14  19
ENDBRANCH  11  13
ENDBRANCH   6  11
ENDBRANCH   1   2
BRANCH   1  21
HETATM   21  N   UNL     1      26.200  46.842  50.631  1.00  0.00    -0.260 N 
HETATM   22  C   UNL     1      26.731  45.656  50.246  1.00  0.00     0.326 A 
HETATM   23  O   UNL     1      27.078  45.331  49.123  1.00  0.00    -0.247 OA
HETATM   24  N   UNL     1      26.824  44.840  51.344  1.00  0.00    -0.321 N 
HETATM   25  C   UNL     1      26.245  45.428  52.535  1.00  0.00     0.140 A 
HETATM   26  H   UNL     1      27.192  43.903  51.263  1.00  0.00     0.165 HD
HETATM   27  C   UNL     1      24.948  44.705  52.919  1.00  0.00     0.054 C 
HETATM   28  C   UNL     1      25.858  46.810  51.953  1.00  0.00     0.261 A 
HETATM   29  O   UNL     1      25.296  47.714  52.562  1.00  0.00    -0.270 OA
BRANCH  25  30
HETATM   30  C   UNL     1      27.260  45.434  53.671  1.00  0.00    -0.020 A 
HETATM   31  C   UNL     1      28.206  44.390  53.763  1.00  0.00     0.022 A 
HETATM   32  C   UNL     1      29.163  44.338  54.795  1.00  0.00    -0.025 A 
HETATM   33  C   UNL     1      29.182  45.358  55.767  1.00  0.00    -0.026 A 
HETATM   34  C   UNL     1      30.097  43.293  54.878  1.00  0.00     0.012 A 
HETATM   35  C   UNL     1      28.246  46.398  55.683  1.00  0.00     0.013 A 
HETATM   36  C   UNL     1      30.134  45.309  56.800  1.00  0.00     0.012 A 
HETATM   37  C   UNL     1      27.300  46.435  54.652  1.00  0.00     0.011 A 
HETATM   38  C   UNL     1      31.055  44.264  56.869  1.00  0.00     0.001 A 
HETATM   39  C   UNL     1      31.038  43.256  55.910  1.00  0.00     0.001 A 
ENDBRANCH  25  30
ENDBRANCH   1  21
TORSDOF 7
ENDMDL
MODEL 2
REMARK VINA RESULT:     -11.1      1.626      2.765
REMARK  7 active torsions:
REMARK  status: ('A' for Active; 'I' for Inactive)
REMARK    1  A    between atoms: C_2  and  C_3 
REMARK    2  A    between atoms: C_4  and  N_5 
REMARK    3  A    between atoms: N_5  and  C_6 
REMARK    4  A    between atoms: C_8  and  N_9 
REMARK    5  A    between atoms: C_11  and  C_12 
REMARK    6  A    between atoms: C_12  and  N_13 
REMARK    7  A    between atoms: C_17  and  C_18 
ROOT
HETATM    1  C   UNL     1      24.878  46.674  50.869  1.00  0.00     0.218 C 
ENDROOT
BRANCH   1   2
HETATM    2  C   UNL     1      23.826  46.262  49.855  1.00  0.00     0.166 A 
HETATM    3  N   UNL     1      23.537  44.964  49.728  1.00  0.00    -0.200 NA
HETATM    4  C   UNL     1      22.588  44.684  48.853  1.00  0.00     0.219 A 
HETATM    5  N   UNL     1      21.901  45.579  48.168  1.00  0.00    -0.031 NA
HETATM    6  C   UNL     1      22.244  46.849  48.353  1.00  0.00     0.731 A 
HETATM    7  N   UNL     1      23.212  47.238  49.181  1.00  0.00    -0.045 NA
BRANCH   4   8
HETATM    8  N   UNL     1      22.256  43.356  48.679  1.00  0.00    -0.270 NA
HETATM    9  H   UNL     1      22.687  43.000  47.837  1.00  0.00     0.127 HD
HETATM   10  H   UNL     1      21.260  43.222  48.782  1.00  0.00     0.127 HD
ENDBRANCH   4   8
BRANCH   6  11
HETATM   11  N   UNL     1      21.612  47.870  47.645  1.00  0.00    -0.188 N 
HETATM   12  H   UNL     1      21.933  47.878  46.689  1.00  0.00     0.184 HD
BRANCH  11  13
HETATM   13  C   UNL     1      20.902  49.007  48.065  1.00  0.00     0.055 A 
HETATM   14  C   UNL     1      21.521  50.280  48.052  1.00  0.00    -0.031 A 
HETATM   15  C   UNL     1      20.794  51.414  48.466  1.00  0.00     0.009 A 
HETATM   16  C   UNL     1      19.464  51.309  48.863  1.00  0.00     0.001 A 
HETATM   17  C   UNL     1      18.840  50.069  48.845  1.00  0.00     0.002 A 
HETATM   18  C   UNL     1      19.551  48.936  48.441  1.00  0.00     0.030 A 
BRANCH  14  19
HETATM   19  C   UNL     1      22.952  50.485  47.604  1.00  0.00     0.036 C 
HETATM   20  C   UNL     1      23.871  50.815  48.770  1.00  0.00     0.010 C 
ENDBRANCH  14  19
ENDBRANCH  11  13
ENDBRANCH   6  11
ENDBRANCH   1   2
BRANCH   1  21
HETATM   21  N   UNL     1      25.926  45.690  51.037  1.00  0.00    -0.260 N 
HETATM   22  C   UNL     1      26.926  45.488  50.146  1.00  0.00     0.326 A 
HETATM   23  O   UNL     1      27.176  46.150  49.153  1.00  0.00    -0.247 OA
HETATM   24  N   UNL     1      27.643  44.386  50.534  1.00  0.00    -0.321 N 
HETATM   25  C   UNL     1      27.073  43.717  51.686  1.00  0.00     0.140 A 
HETATM   26  H   UNL     1      28.432  44.064  49.992  1.00  0.00     0.165 HD
HETATM   27  C   UNL     1      26.462  42.370  51.283  1.00  0.00     0.054 C 
HETATM   28  C   UNL     1      25.907  44.695  51.974  1.00  0.00     0.261 A 
HETATM   29  O   UNL     1      25.074  44.578  52.865  1.00  0.00    -0.270 OA
BRANCH  25  30
HETATM   30  C   UNL     1      28.118  43.572  52.785  1.00  0.00    -0.020 A 
HETATM   31  C   UNL     1      28.200  44.548  53.801  1.00  0.00     0.022 A 
HETATM   32  C   UNL     1      29.150  44.471  54.836  1.00  0.00    -0.025 A 
HETATM   33  C   UNL     1      30.050  43.386  54.865  1.00  0.00    -0.026 A 
HETATM   34  C   UNL     1      29.224  45.450  55.840  1.00  0.00     0.012 A 
HETATM   35  C   UNL     1      29.976  42.413  53.859  1.00  0.00     0.013 A 
HETATM   36  C   UNL     1      31.002  43.307  55.896  1.00  0.00     0.012 A 
HETATM   37  C   UNL     1      29.026  42.504  52.836  1.00  0.00     0.011 A 
HETATM   38  C   UNL     1      31.062  44.287  56.886  1.00  0.00     0.001 A 
HETATM   39  C   UNL     1      30.175  45.359  56.859  1.00  0.00     0.001 A 
ENDBRANCH  25  30
ENDBRANCH   1  21
TORSDOF 7
ENDMDL
MODEL 3
REMARK VINA RESULT:     -11.1      2.127      3.683
REMARK  7 active torsions:
REMARK  status: ('A' for Active; 'I' for Inactive)
REMARK    1  A    between atoms: C_2  and  C_3 
REMARK    2  A    between atoms: C_4  and  N_5 
REMARK    3  A    between atoms: N_5  and  C_6 
REMARK    4  A    between atoms: C_8  and  N_9 
REMARK    5  A    between atoms: C_11  and  C_12 
REMARK    6  A    between atoms: C_12  and  N_13 
REMARK    7  A    between atoms: C_17  and  C_18 
ROOT
HETATM    1  C   UNL     1      25.367  43.288  49.033  1.00  0.00     0.218 C 
ENDROOT
BRANCH   1   2
HETATM    2  C   UNL     1      24.253  44.134  48.442  1.00  0.00     0.166 A 
HETATM    3  N   UNL     1      23.606  43.675  47.367  1.00  0.00    -0.200 NA
HETATM    4  C   UNL     1      22.627  44.446  46.930  1.00  0.00     0.219 A 
HETATM    5  N   UNL     1      22.232  45.567  47.504  1.00  0.00    -0.031 NA
HETATM    6  C   UNL     1      22.920  45.953  48.573  1.00  0.00     0.731 A 
HETATM    7  N   UNL     1      23.950  45.271  49.072  1.00  0.00    -0.045 NA
BRANCH   4   8
HETATM    8  N   UNL     1      21.932  44.021  45.816  1.00  0.00    -0.270 NA
HETATM    9  H   UNL     1      21.136  44.622  45.655  1.00  0.00     0.127 HD
HETATM   10  H   UNL     1      21.760  43.027  45.863  1.00  0.00     0.127 HD
ENDBRANCH   4   8
BRANCH   6  11
HETATM   11  N   UNL     1      22.614  47.145  49.227  1.00  0.00    -0.188 N 
HETATM   12  H   UNL     1      22.045  46.959  50.038  1.00  0.00     0.184 HD
BRANCH  11  13
HETATM   13  C   UNL     1      22.680  48.487  48.818  1.00  0.00     0.055 A 
HETATM   14  C   UNL     1      23.920  49.168  48.801  1.00  0.00    -0.031 A 
HETATM   15  C   UNL     1      23.975  50.511  48.378  1.00  0.00     0.009 A 
HETATM   16  C   UNL     1      22.830  51.175  47.949  1.00  0.00     0.001 A 
HETATM   17  C   UNL     1      21.615  50.504  47.929  1.00  0.00     0.002 A 
HETATM   18  C   UNL     1      21.547  49.173  48.350  1.00  0.00     0.030 A 
BRANCH  14  19
HETATM   19  C   UNL     1      25.217  48.508  49.221  1.00  0.00     0.036 C 
HETATM   20  C   UNL     1      26.430  49.328  48.812  1.00  0.00     0.010 C 
ENDBRANCH  14  19
ENDBRANCH  11  13
ENDBRANCH   6  11
ENDBRANCH   1   2
BRANCH   1  21
HETATM   21  N   UNL     1      25.678  43.628  50.404  1.00  0.00    -0.260 N 
HETATM   22  C   UNL     1      24.861  43.368  51.453  1.00  0.00     0.326 A 
HETATM   23  O   UNL     1      23.827  42.723  51.442  1.00  0.00    -0.247 OA
HETATM   24  N   UNL     1      25.384  43.961  52.573  1.00  0.00    -0.321 N 
HETATM   25  C   UNL     1      26.562  44.758  52.294  1.00  0.00     0.140 A 
HETATM   26  H   UNL     1      24.915  43.888  53.465  1.00  0.00     0.165 HD
HETATM   27  C   UNL     1      26.252  46.252  52.443  1.00  0.00     0.054 C 
HETATM   28  C   UNL     1      26.698  44.455  50.781  1.00  0.00     0.261 A 
HETATM   29  O   UNL     1      27.553  44.913  50.031  1.00  0.00    -0.270 OA
BRANCH  25  30
HETATM   30  C   UNL     1      27.721  44.318  53.178  1.00  0.00    -0.020 A 
HETATM   31  C   UNL     1      28.077  45.099  54.298  1.00  0.00     0.022 A 
HETATM   32  C   UNL     1      29.145  44.747  55.146  1.00  0.00    -0.025 A 
HETATM   33  C   UNL     1      29.883  43.577  54.873  1.00  0.00    -0.026 A 
HETATM   34  C   UNL     1      29.491  45.534  56.256  1.00  0.00     0.012 A 
HETATM   35  C   UNL     1      29.536  42.797  53.762  1.00  0.00     0.013 A 
HETATM   36  C   UNL     1      30.950  43.224  55.716  1.00  0.00     0.012 A 
HETATM   37  C   UNL     1      28.473  43.161  52.928  1.00  0.00     0.011 A 
HETATM   38  C   UNL     1      31.283  44.016  56.815  1.00  0.00     0.001 A 
HETATM   39  C   UNL     1      30.555  45.171  57.085  1.00  0.00     0.001 A 
ENDBRANCH  25  30
ENDBRANCH   1  21
TORSDOF 7
ENDMDL
MODEL 4
REMARK VINA RESULT:     -10.9      2.744      9.805
REMARK  7 active torsions:
REMARK  status: ('A' for Active; 'I' for Inactive)
REMARK    1  A    between atoms: C_2  and  C_3 
REMARK    2  A    between atoms: C_4  and  N_5 
REMARK    3  A    between atoms: N_5  and  C_6 
REMARK    4  A    between atoms: C_8  and  N_9 
REMARK    5  A    between atoms: C_11  and  C_12 
REMARK    6  A    between atoms: C_12  and  N_13 
REMARK    7  A    between atoms: C_17  and  C_18 
ROOT
HETATM    1  C   UNL     1      25.407  42.044  50.908  1.00  0.00     0.218 C 
ENDROOT
BRANCH   1   2
HETATM    2  C   UNL     1      26.702  41.569  51.543  1.00  0.00     0.166 A 
HETATM    3  N   UNL     1      27.409  40.624  50.918  1.00  0.00    -0.200 NA
HETATM    4  C   UNL     1      28.541  40.286  51.509  1.00  0.00     0.219 A 
HETATM    5  N   UNL     1      29.019  40.845  52.605  1.00  0.00    -0.031 NA
HETATM    6  C   UNL     1      28.261  41.782  53.165  1.00  0.00     0.731 A 
HETATM    7  N   UNL     1      27.085  42.169  52.673  1.00  0.00    -0.045 NA
BRANCH   4   8
HETATM    8  N   UNL     1      29.305  39.308  50.907  1.00  0.00    -0.270 NA
HETATM    9  H   UNL     1      29.642  39.634  50.013  1.00  0.00     0.127 HD
HETATM   10  H   UNL     1      28.823  38.420  50.925  1.00  0.00     0.127 HD
ENDBRANCH   4   8
BRANCH   6  11
HETATM   11  N   UNL     1      28.651  42.404  54.350  1.00  0.00    -0.188 N 
HETATM   12  H   UNL     1      28.642  41.739  55.108  1.00  0.00     0.184 HD
BRANCH  11  13
HETATM   13  C   UNL     1      28.741  43.757  54.717  1.00  0.00     0.055 A 
HETATM   14  C   UNL     1      29.899  44.243  55.369  1.00  0.00    -0.031 A 
HETATM   15  C   UNL     1      29.982  45.605  55.723  1.00  0.00     0.009 A 
HETATM   16  C   UNL     1      28.951  46.489  55.418  1.00  0.00     0.001 A 
HETATM   17  C   UNL     1      27.826  46.026  54.748  1.00  0.00     0.002 A 
HETATM   18  C   UNL     1      27.731  44.678  54.395  1.00  0.00     0.030 A 
BRANCH  14  19
HETATM   19  C   UNL     1      31.077  43.355  55.707  1.00  0.00     0.036 C 
HETATM   20  C   UNL     1      31.417  43.400  57.189  1.00  0.00     0.010 C 
ENDBRANCH  14  19
ENDBRANCH  11  13
ENDBRANCH   6  11
ENDBRANCH   1   2
BRANCH   1  21
HETATM   21  N   UNL     1      25.465  43.416  50.451  1.00  0.00    -0.260 N 
HETATM   22  C   UNL     1      26.362  43.876  49.547  1.00  0.00     0.326 A 
HETATM   23  O   UNL     1      27.161  43.222  48.899  1.00  0.00    -0.247 OA
HETATM   24  N   UNL     1      26.240  45.239  49.463  1.00  0.00    -0.321 N 
HETATM   25  C   UNL     1      25.292  45.781  50.415  1.00  0.00     0.140 A 
HETATM   26  H   UNL     1      26.831  45.775  48.843  1.00  0.00     0.165 HD
HETATM   27  C   UNL     1      26.018  46.567  51.513  1.00  0.00     0.054 C 
HETATM   28  C   UNL     1      24.796  44.453  51.037  1.00  0.00     0.261 A 
HETATM   29  O   UNL     1      23.973  44.345  51.939  1.00  0.00    -0.270 OA
BRANCH  25  30
HETATM   30  C   UNL     1      24.244  46.624  49.699  1.00  0.00    -0.020 A 
HETATM   31  C   UNL     1      24.371  48.029  49.687  1.00  0.00     0.022 A 
HETATM   32  C   UNL     1      23.430  48.859  49.049  1.00  0.00    -0.025 A 
HETATM   33  C   UNL     1      22.325  48.273  48.398  1.00  0.00    -0.026 A 
HETATM   34  C   UNL     1      23.565  50.257  49.047  1.00  0.00     0.012 A 
HETATM   35  C   UNL     1      22.192  46.878  48.406  1.00  0.00     0.013 A 
HETATM   36  C   UNL     1      21.382  49.098  47.762  1.00  0.00     0.012 A 
HETATM   37  C   UNL     1      23.135  46.067  49.046  1.00  0.00     0.011 A 
HETATM   38  C   UNL     1      21.530  50.485  47.768  1.00  0.00     0.001 A 
HETATM   39  C   UNL     1      22.620  51.065  48.410  1.00  0.00     0.001 A 
ENDBRANCH  25  30
ENDBRANCH   1  21
TORSDOF 7
ENDMDL
MODEL 5
REMARK VINA RESULT:     -10.9      1.675      2.864
REMARK  7 active torsions:
REMARK  status: ('A' for Active; 'I' for Inactive)
REMARK    1  A    between atoms: C_2  and  C_3 
REMARK    2  A    between atoms: C_4  and  N_5 
REMARK    3  A    between atoms: N_5  and  C_6 
REMARK    4  A    between atoms: C_8  and  N_9 
REMARK    5  A    between atoms: C_11  and  C_12 
REMARK    6  A    between atoms: C_12  and  N_13 
REMARK    7  A    between atoms: C_17  and  C_18 
ROOT
HETATM    1  C   UNL     1      24.845  44.981  50.515  1.00  0.00     0.218 C 
ENDROOT
BRANCH   1   2
HETATM    2  C   UNL     1      24.871  46.449  50.125  1.00  0.00     0.166 A 
HETATM    3  N   UNL     1      26.054  47.029  49.906  1.00  0.00    -0.200 NA
HETATM    4  C   UNL     1      25.999  48.295  49.536  1.00  0.00     0.219 A 
HETATM    5  N   UNL     1      24.887  48.974  49.325  1.00  0.00    -0.031 NA
HETATM    6  C   UNL     1      23.750  48.326  49.557  1.00  0.00     0.731 A 
HETATM    7  N   UNL     1      23.695  47.062  49.971  1.00  0.00    -0.045 NA
BRANCH   4   8
HETATM    8  N   UNL     1      27.195  48.943  49.305  1.00  0.00    -0.270 NA
HETATM    9  H   UNL     1      27.408  48.935  48.317  1.00  0.00     0.127 HD
HETATM   10  H   UNL     1      27.909  48.605  49.935  1.00  0.00     0.127 HD
ENDBRANCH   4   8
BRANCH   6  11
HETATM   11  N   UNL     1      22.521  48.965  49.408  1.00  0.00    -0.188 N 
HETATM   12  H   UNL     1      22.301  49.491  50.241  1.00  0.00     0.184 HD
BRANCH  11  13
HETATM   13  C   UNL     1      21.462  48.771  48.506  1.00  0.00     0.055 A 
HETATM   14  C   UNL     1      20.693  49.871  48.060  1.00  0.00    -0.031 A 
HETATM   15  C   UNL     1      19.640  49.664  47.147  1.00  0.00     0.009 A 
HETATM   16  C   UNL     1      19.359  48.394  46.652  1.00  0.00     0.001 A 
HETATM   17  C   UNL     1      20.131  47.314  47.058  1.00  0.00     0.002 A 
HETATM   18  C   UNL     1      21.175  47.506  47.967  1.00  0.00     0.030 A 
BRANCH  14  19
HETATM   19  C   UNL     1      20.954  51.288  48.523  1.00  0.00     0.036 C 
HETATM   20  C   UNL     1      19.671  52.097  48.632  1.00  0.00     0.010 C 
ENDBRANCH  14  19
ENDBRANCH  11  13
ENDBRANCH   6  11
ENDBRANCH   1   2
BRANCH   1  21
HETATM   21  N   UNL     1      26.040  44.552  51.207  1.00  0.00    -0.260 N 
HETATM   22  C   UNL     1      27.248  44.403  50.612  1.00  0.00     0.326 A 
HETATM   23  O   UNL     1      27.553  44.706  49.471  1.00  0.00    -0.247 OA
HETATM   24  N   UNL     1      28.113  43.835  51.512  1.00  0.00    -0.321 N 
HETATM   25  C   UNL     1      27.473  43.474  52.761  1.00  0.00     0.140 A 
HETATM   26  H   UNL     1      29.069  43.635  51.256  1.00  0.00     0.165 HD
HETATM   27  C   UNL     1      27.366  41.950  52.892  1.00  0.00     0.054 C 
HETATM   28  C   UNL     1      26.054  44.021  52.466  1.00  0.00     0.261 A 
HETATM   29  O   UNL     1      25.087  43.951  53.216  1.00  0.00    -0.270 OA
BRANCH  25  30
HETATM   30  C   UNL     1      28.209  44.105  53.936  1.00  0.00    -0.020 A 
HETATM   31  C   UNL     1      29.273  43.407  54.546  1.00  0.00     0.022 A 
HETATM   32  C   UNL     1      29.983  43.935  55.640  1.00  0.00    -0.025 A 
HETATM   33  C   UNL     1      29.627  45.202  56.144  1.00  0.00    -0.026 A 
HETATM   34  C   UNL     1      31.038  43.229  56.241  1.00  0.00     0.012 A 
HETATM   35  C   UNL     1      28.571  45.902  55.544  1.00  0.00     0.013 A 
HETATM   36  C   UNL     1      30.333  45.733  57.237  1.00  0.00     0.012 A 
HETATM   37  C   UNL     1      27.873  45.362  54.458  1.00  0.00     0.011 A 
HETATM   38  C   UNL     1      31.378  45.019  57.824  1.00  0.00     0.001 A 
HETATM   39  C   UNL     1      31.731  43.769  57.327  1.00  0.00     0.001 A 
ENDBRANCH  25  30
ENDBRANCH   1  21
TORSDOF 7
ENDMDL
MODEL 6
REMARK VINA RESULT:     -10.5      2.450     10.276
REMARK  7 active torsions:
REMARK  status: ('A' for Active; 'I' for Inactive)
REMARK    1  A    between atoms: C_2  and  C_3 
REMARK    2  A    between atoms: C_4  and  N_5 
REMARK    3  A    between atoms: N_5  and  C_6 
REMARK    4  A    between atoms: C_8  and  N_9 
REMARK    5  A    between atoms: C_11  and  C_12 
REMARK    6  A    between atoms: C_12  and  N_13 
REMARK    7  A    between atoms: C_17  and  C_18 
ROOT
HETATM    1  C   UNL     1      25.164  44.974  53.557  1.00  0.00     0.218 C 
ENDROOT
BRANCH   1   2
HETATM    2  C   UNL     1      26.096  45.943  54.264  1.00  0.00     0.166 A 
HETATM    3  N   UNL     1      25.576  47.053  54.796  1.00  0.00    -0.200 NA
HETATM    4  C   UNL     1      26.439  47.830  55.425  1.00  0.00     0.219 A 
HETATM    5  N   UNL     1      27.718  47.557  55.597  1.00  0.00    -0.031 NA
HETATM    6  C   UNL     1      28.159  46.432  55.044  1.00  0.00     0.731 A 
HETATM    7  N   UNL     1      27.382  45.598  54.355  1.00  0.00    -0.045 NA
BRANCH   4   8
HETATM    8  N   UNL     1      25.954  48.993  55.986  1.00  0.00    -0.270 NA
HETATM    9  H   UNL     1      26.679  49.447  56.524  1.00  0.00     0.127 HD
HETATM   10  H   UNL     1      25.072  48.824  56.448  1.00  0.00     0.127 HD
ENDBRANCH   4   8
BRANCH   6  11
HETATM   11  N   UNL     1      29.503  46.073  55.128  1.00  0.00    -0.188 N 
HETATM   12  H   UNL     1      29.987  46.342  54.285  1.00  0.00     0.184 HD
BRANCH  11  13
HETATM   13  C   UNL     1      30.189  45.186  55.975  1.00  0.00     0.055 A 
HETATM   14  C   UNL     1      30.561  43.902  55.511  1.00  0.00    -0.031 A 
HETATM   15  C   UNL     1      31.257  43.025  56.366  1.00  0.00     0.009 A 
HETATM   16  C   UNL     1      31.611  43.411  57.656  1.00  0.00     0.001 A 
HETATM   17  C   UNL     1      31.280  44.682  58.107  1.00  0.00     0.002 A 
HETATM   18  C   UNL     1      30.586  45.559  57.269  1.00  0.00     0.030 A 
BRANCH  14  19
HETATM   19  C   UNL     1      30.244  43.417  54.113  1.00  0.00     0.036 C 
HETATM   20  C   UNL     1      29.081  42.437  54.100  1.00  0.00     0.010 C 
ENDBRANCH  14  19
ENDBRANCH  11  13
ENDBRANCH   6  11
ENDBRANCH   1   2
BRANCH   1  21
HETATM   21  N   UNL     1      24.976  45.280  52.156  1.00  0.00    -0.260 N 
HETATM   22  C   UNL     1      24.971  44.350  51.171  1.00  0.00     0.326 A 
HETATM   23  O   UNL     1      25.000  43.138  51.298  1.00  0.00    -0.247 OA
HETATM   24  N   UNL     1      24.930  44.994  49.961  1.00  0.00    -0.321 N 
HETATM   25  C   UNL     1      25.012  46.436  50.084  1.00  0.00     0.140 A 
HETATM   26  H   UNL     1      24.926  44.472  49.096  1.00  0.00     0.165 HD
HETATM   27  C   UNL     1      26.364  46.946  49.574  1.00  0.00     0.054 C 
HETATM   28  C   UNL     1      25.022  46.540  51.629  1.00  0.00     0.261 A 
HETATM   29  O   UNL     1      25.104  47.577  52.279  1.00  0.00    -0.270 OA
BRANCH  25  30
HETATM   30  C   UNL     1      23.839  47.096  49.371  1.00  0.00    -0.020 A 
HETATM   31  C   UNL     1      23.664  48.493  49.467  1.00  0.00     0.022 A 
HETATM   32  C   UNL     1      22.594  49.157  48.837  1.00  0.00    -0.025 A 
HETATM   33  C   UNL     1      21.667  48.408  48.084  1.00  0.00    -0.026 A 
HETATM   34  C   UNL     1      22.428  50.548  48.943  1.00  0.00     0.012 A 
HETATM   35  C   UNL     1      21.834  47.021  47.984  1.00  0.00     0.013 A 
HETATM   36  C   UNL     1      20.597  49.067  47.455  1.00  0.00     0.012 A 
HETATM   37  C   UNL     1      22.902  46.375  48.617  1.00  0.00     0.011 A 
HETATM   38  C   UNL     1      20.446  50.450  47.570  1.00  0.00     0.001 A 
HETATM   39  C   UNL     1      21.360  51.190  48.313  1.00  0.00     0.001 A 
ENDBRANCH  25  30
ENDBRANCH   1  21
TORSDOF 7
ENDMDL
MODEL 7
REMARK VINA RESULT:     -10.4      2.004      3.094
REMARK  7 active torsions:
REMARK  status: ('A' for Active; 'I' for Inactive)
REMARK    1  A    between atoms: C_2  and  C_3 
REMARK    2  A    between atoms: C_4  and  N_5 
REMARK    3  A    between atoms: N_5  and  C_6 
REMARK    4  A    between atoms: C_8  and  N_9 
REMARK    5  A    between atoms: C_11  and  C_12 
REMARK    6  A    between atoms: C_12  and  N_13 
REMARK    7  A    between atoms: C_17  and  C_18 
ROOT
HETATM    1  C   UNL     1      23.873  44.456  48.311  1.00  0.00     0.218 C 
ENDROOT
BRANCH   1   2
HETATM    2  C   UNL     1      22.550  45.180  48.130  1.00  0.00     0.166 A 
HETATM    3  N   UNL     1      21.419  44.478  48.244  1.00  0.00    -0.200 NA
HETATM    4  C   UNL     1      20.308  45.179  48.111  1.00  0.00     0.219 A 
HETATM    5  N   UNL     1      20.253  46.486  47.934  1.00  0.00    -0.031 NA
HETATM    6  C   UNL     1      21.420  47.114  47.836  1.00  0.00     0.731 A 
HETATM    7  N   UNL     1      22.598  46.497  47.917  1.00  0.00    -0.045 NA
BRANCH   4   8
HETATM    8  N   UNL     1      19.111  44.499  48.213  1.00  0.00    -0.270 NA
HETATM    9  H   UNL     1      19.031  43.827  47.463  1.00  0.00     0.127 HD
HETATM   10  H   UNL     1      18.346  45.145  48.341  1.00  0.00     0.127 HD
ENDBRANCH   4   8
BRANCH   6  11
HETATM   11  N   UNL     1      21.475  48.487  47.603  1.00  0.00    -0.188 N 
HETATM   12  H   UNL     1      22.297  48.714  47.065  1.00  0.00     0.184 HD
BRANCH  11  13
HETATM   13  C   UNL     1      20.815  49.571  48.206  1.00  0.00     0.055 A 
HETATM   14  C   UNL     1      19.638  50.101  47.626  1.00  0.00    -0.031 A 
HETATM   15  C   UNL     1      18.980  51.182  48.245  1.00  0.00     0.009 A 
HETATM   16  C   UNL     1      19.452  51.722  49.438  1.00  0.00     0.001 A 
HETATM   17  C   UNL     1      20.586  51.185  50.032  1.00  0.00     0.002 A 
HETATM   18  C   UNL     1      21.251  50.115  49.425  1.00  0.00     0.030 A 
BRANCH  14  19
HETATM   19  C   UNL     1      19.040  49.551  46.349  1.00  0.00     0.036 C 
HETATM   20  C   UNL     1      18.617  50.657  45.396  1.00  0.00     0.010 C 
ENDBRANCH  14  19
ENDBRANCH  11  13
ENDBRANCH   6  11
ENDBRANCH   1   2
BRANCH   1  21
HETATM   21  N   UNL     1      24.386  44.533  49.661  1.00  0.00    -0.260 N 
HETATM   22  C   UNL     1      23.709  44.109  50.755  1.00  0.00     0.326 A 
HETATM   23  O   UNL     1      22.650  43.506  50.781  1.00  0.00    -0.247 OA
HETATM   24  N   UNL     1      24.412  44.475  51.874  1.00  0.00    -0.321 N 
HETATM   25  C   UNL     1      25.580  45.276  51.572  1.00  0.00     0.140 A 
HETATM   26  H   UNL     1      24.067  44.254  52.797  1.00  0.00     0.165 HD
HETATM   27  C   UNL     1      25.374  46.726  52.024  1.00  0.00     0.054 C 
HETATM   28  C   UNL     1      25.492  45.249  50.026  1.00  0.00     0.261 A 
HETATM   29  O   UNL     1      26.258  45.812  49.252  1.00  0.00    -0.270 OA
BRANCH  25  30
HETATM   30  C   UNL     1      26.826  44.651  52.187  1.00  0.00    -0.020 A 
HETATM   31  C   UNL     1      27.307  45.132  53.423  1.00  0.00     0.022 A 
HETATM   32  C   UNL     1      28.457  44.600  54.036  1.00  0.00    -0.025 A 
HETATM   33  C   UNL     1      29.152  43.551  53.400  1.00  0.00    -0.026 A 
HETATM   34  C   UNL     1      28.929  45.090  55.265  1.00  0.00     0.012 A 
HETATM   35  C   UNL     1      28.681  43.068  52.173  1.00  0.00     0.013 A 
HETATM   36  C   UNL     1      30.302  43.018  54.008  1.00  0.00     0.012 A 
HETATM   37  C   UNL     1      27.537  43.609  51.575  1.00  0.00     0.011 A 
HETATM   38  C   UNL     1      30.758  43.516  55.229  1.00  0.00     0.001 A 
HETATM   39  C   UNL     1      30.073  44.551  55.857  1.00  0.00     0.001 A 
ENDBRANCH  25  30
ENDBRANCH   1  21
TORSDOF 7
ENDMDL
MODEL 8
REMARK VINA RESULT:     -10.3      4.626      9.478
REMARK  7 active torsions:
REMARK  status: ('A' for Active; 'I' for Inactive)
REMARK    1  A    between atoms: C_2  and  C_3 
REMARK    2  A    between atoms: C_4  and  N_5 
REMARK    3  A    between atoms: N_5  and  C_6 
REMARK    4  A    between atoms: C_8  and  N_9 
REMARK    5  A    between atoms: C_11  and  C_12 
REMARK    6  A    between atoms: C_12  and  N_13 
REMARK    7  A    between atoms: C_17  and  C_18 
ROOT
HETATM    1  C   UNL     1      21.618  44.158  47.122  1.00  0.00     0.218 C 
ENDROOT
BRANCH   1   2
HETATM    2  C   UNL     1      22.391  44.474  48.390  1.00  0.00     0.166 A 
HETATM    3  N   UNL     1      22.757  43.462  49.182  1.00  0.00    -0.200 NA
HETATM    4  C   UNL     1      23.457  43.808  50.248  1.00  0.00     0.219 A 
HETATM    5  N   UNL     1      23.845  45.036  50.532  1.00  0.00    -0.031 NA
HETATM    6  C   UNL     1      23.447  45.987  49.693  1.00  0.00     0.731 A 
HETATM    7  N   UNL     1      22.706  45.752  48.612  1.00  0.00    -0.045 NA
BRANCH   4   8
HETATM    8  N   UNL     1      23.852  42.800  51.102  1.00  0.00    -0.270 NA
HETATM    9  H   UNL     1      24.304  43.194  51.916  1.00  0.00     0.127 HD
HETATM   10  H   UNL     1      24.351  42.081  50.597  1.00  0.00     0.127 HD
ENDBRANCH   4   8
BRANCH   6  11
HETATM   11  N   UNL     1      23.765  47.324  49.926  1.00  0.00    -0.188 N 
HETATM   12  H   UNL     1      22.995  47.788  50.384  1.00  0.00     0.184 HD
BRANCH  11  13
HETATM   13  C   UNL     1      24.761  48.161  49.395  1.00  0.00     0.055 A 
HETATM   14  C   UNL     1      24.410  49.234  48.542  1.00  0.00    -0.031 A 
HETATM   15  C   UNL     1      25.417  50.072  48.024  1.00  0.00     0.009 A 
HETATM   16  C   UNL     1      26.754  49.880  48.360  1.00  0.00     0.001 A 
HETATM   17  C   UNL     1      27.103  48.851  49.225  1.00  0.00     0.002 A 
HETATM   18  C   UNL     1      26.113  48.011  49.742  1.00  0.00     0.030 A 
BRANCH  14  19
HETATM   19  C   UNL     1      22.978  49.531  48.153  1.00  0.00     0.036 C 
HETATM   20  C   UNL     1      22.618  50.990  48.382  1.00  0.00     0.010 C 
ENDBRANCH  14  19
ENDBRANCH  11  13
ENDBRANCH   6  11
ENDBRANCH   1   2
BRANCH   1  21
HETATM   21  N   UNL     1      20.558  45.104  46.849  1.00  0.00    -0.260 N 
HETATM   22  C   UNL     1      19.259  44.901  47.175  1.00  0.00     0.326 A 
HETATM   23  O   UNL     1      18.797  43.985  47.834  1.00  0.00    -0.247 OA
HETATM   24  N   UNL     1      18.508  45.912  46.634  1.00  0.00    -0.321 N 
HETATM   25  C   UNL     1      19.285  46.813  45.806  1.00  0.00     0.140 A 
HETATM   26  H   UNL     1      17.506  45.938  46.760  1.00  0.00     0.165 HD
HETATM   27  C   UNL     1      18.924  46.634  44.327  1.00  0.00     0.054 C 
HETATM   28  C   UNL     1      20.684  46.189  46.028  1.00  0.00     0.261 A 
HETATM   29  O   UNL     1      21.731  46.573  45.519  1.00  0.00    -0.270 OA
BRANCH  25  30
HETATM   30  C   UNL     1      19.105  48.251  46.275  1.00  0.00    -0.020 A 
HETATM   31  C   UNL     1      19.263  48.562  47.642  1.00  0.00     0.022 A 
HETATM   32  C   UNL     1      19.101  49.871  48.135  1.00  0.00    -0.025 A 
HETATM   33  C   UNL     1      18.772  50.907  47.238  1.00  0.00    -0.026 A 
HETATM   34  C   UNL     1      19.258  50.167  49.498  1.00  0.00     0.012 A 
HETATM   35  C   UNL     1      18.612  50.606  45.879  1.00  0.00     0.013 A 
HETATM   36  C   UNL     1      18.607  52.215  47.726  1.00  0.00     0.012 A 
HETATM   37  C   UNL     1      18.775  49.300  45.405  1.00  0.00     0.011 A 
HETATM   38  C   UNL     1      18.766  52.493  49.083  1.00  0.00     0.001 A 
HETATM   39  C   UNL     1      19.091  51.471  49.970  1.00  0.00     0.001 A 
ENDBRANCH  25  30
ENDBRANCH   1  21
TORSDOF 7
ENDMDL
MODEL 9
REMARK VINA RESULT:     -10.1      4.536      7.445
REMARK  7 active torsions:
REMARK  status: ('A' for Active; 'I' for Inactive)
REMARK    1  A    between atoms: C_2  and  C_3 
REMARK    2  A    between atoms: C_4  and  N_5 
REMARK    3  A    between atoms: N_5  and  C_6 
REMARK    4  A    between atoms: C_8  and  N_9 
REMARK    5  A    between atoms: C_11  and  C_12 
REMARK    6  A    between atoms: C_12  and  N_13 
REMARK    7  A    between atoms: C_17  and  C_18 
ROOT
HETATM    1  C   UNL     1      24.694  45.030  50.647  1.00  0.00     0.218 C 
ENDROOT
BRANCH   1   2
HETATM    2  C   UNL     1      24.302  44.116  49.499  1.00  0.00     0.166 A 
HETATM    3  N   UNL     1      23.626  44.638  48.472  1.00  0.00    -0.200 NA
HETATM    4  C   UNL     1      23.351  43.793  47.494  1.00  0.00     0.219 A 
HETATM    5  N   UNL     1      23.738  42.532  47.452  1.00  0.00    -0.031 NA
HETATM    6  C   UNL     1      24.412  42.089  48.508  1.00  0.00     0.731 A 
HETATM    7  N   UNL     1      24.707  42.846  49.564  1.00  0.00    -0.045 NA
BRANCH   4   8
HETATM    8  N   UNL     1      22.647  44.281  46.413  1.00  0.00    -0.270 NA
HETATM    9  H   UNL     1      21.654  44.226  46.594  1.00  0.00     0.127 HD
HETATM   10  H   UNL     1      22.984  43.869  45.555  1.00  0.00     0.127 HD
ENDBRANCH   4   8
BRANCH   6  11
HETATM   11  N   UNL     1      24.828  40.761  48.584  1.00  0.00    -0.188 N 
HETATM   12  H   UNL     1      24.047  40.167  48.818  1.00  0.00     0.184 HD
BRANCH  11  13
HETATM   13  C   UNL     1      26.101  40.179  48.701  1.00  0.00     0.055 A 
HETATM   14  C   UNL     1      26.961  40.114  47.579  1.00  0.00    -0.031 A 
HETATM   15  C   UNL     1      28.239  39.536  47.711  1.00  0.00     0.009 A 
HETATM   16  C   UNL     1      28.685  39.052  48.938  1.00  0.00     0.001 A 
HETATM   17  C   UNL     1      27.860  39.143  50.051  1.00  0.00     0.002 A 
HETATM   18  C   UNL     1      26.588  39.710  49.932  1.00  0.00     0.030 A 
BRANCH  14  19
HETATM   19  C   UNL     1      26.567  40.647  46.219  1.00  0.00     0.036 C 
HETATM   20  C   UNL     1      27.754  40.724  45.271  1.00  0.00     0.010 C 
ENDBRANCH  14  19
ENDBRANCH  11  13
ENDBRANCH   6  11
ENDBRANCH   1   2
BRANCH   1  21
HETATM   21  N   UNL     1      25.958  44.675  51.254  1.00  0.00    -0.260 N 
HETATM   22  C   UNL     1      27.152  44.755  50.620  1.00  0.00     0.326 A 
HETATM   23  O   UNL     1      27.375  45.232  49.520  1.00  0.00    -0.247 OA
HETATM   24  N   UNL     1      28.113  44.196  51.422  1.00  0.00    -0.321 N 
HETATM   25  C   UNL     1      27.569  43.605  52.628  1.00  0.00     0.140 A 
HETATM   26  H   UNL     1      29.077  44.152  51.123  1.00  0.00     0.165 HD
HETATM   27  C   UNL     1      27.657  42.076  52.568  1.00  0.00     0.054 C 
HETATM   28  C   UNL     1      26.084  43.999  52.435  1.00  0.00     0.261 A 
HETATM   29  O   UNL     1      25.161  43.715  53.190  1.00  0.00    -0.270 OA
BRANCH  25  30
HETATM   30  C   UNL     1      28.264  44.175  53.858  1.00  0.00    -0.020 A 
HETATM   31  C   UNL     1      29.323  43.458  54.454  1.00  0.00     0.022 A 
HETATM   32  C   UNL     1      29.996  43.930  55.596  1.00  0.00    -0.025 A 
HETATM   33  C   UNL     1      29.606  45.160  56.165  1.00  0.00    -0.026 A 
HETATM   34  C   UNL     1      31.047  43.205  56.182  1.00  0.00     0.012 A 
HETATM   35  C   UNL     1      28.555  45.878  55.580  1.00  0.00     0.013 A 
HETATM   36  C   UNL     1      30.275  45.634  57.307  1.00  0.00     0.012 A 
HETATM   37  C   UNL     1      27.895  45.394  54.445  1.00  0.00     0.011 A 
HETATM   38  C   UNL     1      31.316  44.902  57.878  1.00  0.00     0.001 A 
HETATM   39  C   UNL     1      31.703  43.689  57.317  1.00  0.00     0.001 A 
ENDBRANCH  25  30
ENDBRANCH   1  21
TORSDOF 7
ENDMDL
MODEL 10
REMARK VINA RESULT:     -10.1     18.527     20.907
REMARK  7 active torsions:
REMARK  status: ('A' for Active; 'I' for Inactive)
REMARK    1  A    between atoms: C_2  and  C_3 
REMARK    2  A    between atoms: C_4  and  N_5 
REMARK    3  A    between atoms: N_5  and  C_6 
REMARK    4  A    between atoms: C_8  and  N_9 
REMARK    5  A    between atoms: C_11  and  C_12 
REMARK    6  A    between atoms: C_12  and  N_13 
REMARK    7  A    between atoms: C_17  and  C_18 
ROOT
HETATM    1  C   UNL     1      41.266  43.545  65.281  1.00  0.00     0.218 C 
ENDROOT
BRANCH   1   2
HETATM    2  C   UNL     1      40.091  43.150  64.403  1.00  0.00     0.166 A 
HETATM    3  N   UNL     1      40.191  42.040  63.667  1.00  0.00    -0.200 NA
HETATM    4  C   UNL     1      39.118  41.739  62.957  1.00  0.00     0.219 A 
HETATM    5  N   UNL     1      37.984  42.413  62.977  1.00  0.00    -0.031 NA
HETATM    6  C   UNL     1      37.961  43.502  63.738  1.00  0.00     0.731 A 
HETATM    7  N   UNL     1      38.999  43.916  64.462  1.00  0.00    -0.045 NA
BRANCH   4   8
HETATM    8  N   UNL     1      39.173  40.605  62.173  1.00  0.00    -0.270 NA
HETATM    9  H   UNL     1      39.859  40.724  61.441  1.00  0.00     0.127 HD
HETATM   10  H   UNL     1      38.245  40.320  61.896  1.00  0.00     0.127 HD
ENDBRANCH   4   8
BRANCH   6  11
HETATM   11  N   UNL     1      36.827  44.310  63.795  1.00  0.00    -0.188 N 
HETATM   12  H   UNL     1      36.262  44.172  62.971  1.00  0.00     0.184 HD
BRANCH  11  13
HETATM   13  C   UNL     1      36.509  45.433  64.577  1.00  0.00     0.055 A 
HETATM   14  C   UNL     1      35.980  45.269  65.878  1.00  0.00    -0.031 A 
HETATM   15  C   UNL     1      35.675  46.403  66.657  1.00  0.00     0.009 A 
HETATM   16  C   UNL     1      35.913  47.688  66.177  1.00  0.00     0.001 A 
HETATM   17  C   UNL     1      36.465  47.857  64.914  1.00  0.00     0.002 A 
HETATM   18  C   UNL     1      36.767  46.740  64.131  1.00  0.00     0.030 A 
BRANCH  14  19
HETATM   19  C   UNL     1      35.722  43.907  66.487  1.00  0.00     0.036 C 
HETATM   20  C   UNL     1      34.353  43.365  66.109  1.00  0.00     0.010 C 
ENDBRANCH  14  19
ENDBRANCH  11  13
ENDBRANCH   6  11
ENDBRANCH   1   2
BRANCH   1  21
HETATM   21  N   UNL     1      41.466  44.976  65.357  1.00  0.00    -0.260 N 
HETATM   22  C   UNL     1      42.218  45.684  64.481  1.00  0.00     0.326 A 
HETATM   23  O   UNL     1      42.734  45.279  63.454  1.00  0.00    -0.247 OA
HETATM   24  N   UNL     1      42.323  46.974  64.936  1.00  0.00    -0.321 N 
HETATM   25  C   UNL     1      41.709  47.167  66.234  1.00  0.00     0.140 A 
HETATM   26  H   UNL     1      42.854  47.662  64.422  1.00  0.00     0.165 HD
HETATM   27  C   UNL     1      42.778  47.392  67.309  1.00  0.00     0.054 C 
HETATM   28  C   UNL     1      41.130  45.745  66.436  1.00  0.00     0.261 A 
HETATM   29  O   UNL     1      40.511  45.354  67.419  1.00  0.00    -0.270 OA
BRANCH  25  30
HETATM   30  C   UNL     1      40.699  48.306  66.177  1.00  0.00    -0.020 A 
HETATM   31  C   UNL     1      40.260  48.906  67.377  1.00  0.00     0.022 A 
HETATM   32  C   UNL     1      39.322  49.955  67.387  1.00  0.00    -0.025 A 
HETATM   33  C   UNL     1      38.803  50.426  66.165  1.00  0.00    -0.026 A 
HETATM   34  C   UNL     1      38.890  50.543  68.588  1.00  0.00     0.012 A 
HETATM   35  C   UNL     1      39.233  49.835  64.969  1.00  0.00     0.013 A 
HETATM   36  C   UNL     1      37.864  51.473  66.171  1.00  0.00     0.012 A 
HETATM   37  C   UNL     1      40.165  48.792  64.975  1.00  0.00     0.011 A 
HETATM   38  C   UNL     1      37.445  52.046  67.372  1.00  0.00     0.001 A 
HETATM   39  C   UNL     1      37.957  51.582  68.580  1.00  0.00     0.001 A 
ENDBRANCH  25  30
ENDBRANCH   1  21
TORSDOF 7
ENDMDL
