MODEL 1
REMARK VINA RESULT:     -10.1      0.000      0.000
REMARK  8 active torsions:
REMARK  status: ('A' for Active; 'I' for Inactive)
REMARK    1  A    between atoms: O_2  and  C_3 
REMARK    2  A    between atoms: C_4  and  N_5 
REMARK       I    between atoms: N_5  and  C_6 
REMARK       I    between atoms: C_6  and  N_7 
REMARK    3  A    between atoms: N_7  and  C_8 
REMARK    4  A    between atoms: C_11  and  C_12 
REMARK    5  A    between atoms: C_12  and  C_13 
REMARK       I    between atoms: C_13  and  N_14 
REMARK    6  A    between atoms: N_14  and  C_15 
REMARK    7  A    between atoms: C_18  and  O_19 
REMARK    8  A    between atoms: O_19  and  C_20 
ROOT
HETATM    1  C   UNL     1      19.129  47.585  49.204  1.00  0.00     0.174 A 
HETATM    2  S   UNL     1      18.264  47.973  47.784  1.00  0.00    -0.062 SA
HETATM    3  C   UNL     1      19.642  47.554  46.854  1.00  0.00     0.081 A 
HETATM    4  C   UNL     1      20.676  47.153  47.683  1.00  0.00     0.052 A 
HETATM    5  N   UNL     1      20.347  47.141  49.032  1.00  0.00    -0.228 NA
ENDROOT
BRANCH   4   6
HETATM    6  C   UNL     1      22.052  46.707  47.308  1.00  0.00     0.163 C 
BRANCH   6   7
HETATM    7  C   UNL     1      22.753  45.942  48.419  1.00  0.00     0.227 C 
HETATM    8  N   UNL     1      23.594  46.729  49.192  1.00  0.00    -0.327 N 
HETATM    9  H   UNL     1      23.658  47.710  48.949  1.00  0.00     0.169 HD
HETATM   10  O   UNL     1      22.553  44.738  48.566  1.00  0.00    -0.273 OA
BRANCH   8  11
HETATM   11  C   UNL     1      24.364  46.317  50.304  1.00  0.00     0.034 A 
HETATM   12  C   UNL     1      24.254  45.062  50.905  1.00  0.00     0.032 A 
HETATM   13  C   UNL     1      25.040  44.732  52.015  1.00  0.00     0.039 A 
HETATM   14  C   UNL     1      25.951  45.652  52.523  1.00  0.00     0.076 A 
HETATM   15  C   UNL     1      26.060  46.917  51.949  1.00  0.00     0.039 A 
HETATM   16  C   UNL     1      25.278  47.241  50.833  1.00  0.00     0.032 A 
BRANCH  14  17
HETATM   17  O   UNL     1      26.639  45.300  53.657  1.00  0.00    -0.311 OA
BRANCH  17  18
HETATM   18  C   UNL     1      27.774  44.527  53.535  1.00  0.00     0.076 A 
HETATM   19  C   UNL     1      28.537  44.401  54.699  1.00  0.00     0.037 A 
HETATM   20  C   UNL     1      29.688  43.611  54.705  1.00  0.00     0.003 A 
HETATM   21  C   UNL     1      30.075  42.940  53.547  1.00  0.00     0.000 A 
HETATM   22  C   UNL     1      29.308  43.051  52.387  1.00  0.00     0.003 A 
HETATM   23  C   UNL     1      28.152  43.836  52.382  1.00  0.00     0.037 A 
ENDBRANCH  17  18
ENDBRANCH  14  17
ENDBRANCH   8  11
ENDBRANCH   6   7
ENDBRANCH   4   6
BRANCH   1  24
HETATM   24  N   UNL     1      18.404  47.749  50.350  1.00  0.00    -0.287 N 
HETATM   25  C   UNL     1      18.677  48.599  51.362  1.00  0.00     0.326 C 
HETATM   26  N   UNL     1      19.386  49.740  51.192  1.00  0.00    -0.306 N 
HETATM   27  O   UNL     1      18.324  48.288  52.504  1.00  0.00    -0.247 OA
HETATM   28  H   UNL     1      19.857  50.031  52.037  1.00  0.00     0.171 HD
HETATM   29  H   UNL     1      17.760  47.008  50.574  1.00  0.00     0.172 HD
BRANCH  26  30
HETATM   30  C   UNL     1      19.368  50.683  50.141  1.00  0.00     0.069 A 
HETATM   31  C   UNL     1      20.442  50.950  49.274  1.00  0.00     0.095 A 
HETATM   32  C   UNL     1      20.320  51.937  48.289  1.00  0.00     0.039 A 
HETATM   33  C   UNL     1      19.113  52.616  48.116  1.00  0.00     0.003 A 
HETATM   34  C   UNL     1      18.024  52.308  48.926  1.00  0.00     0.002 A 
HETATM   35  C   UNL     1      18.150  51.342  49.926  1.00  0.00     0.032 A 
BRANCH  31  36
HETATM   36  O   UNL     1      21.610  50.240  49.384  1.00  0.00    -0.354 OA
HETATM   37  C   UNL     1      22.685  50.845  48.668  1.00  0.00     0.210 C 
ENDBRANCH  31  36
ENDBRANCH  26  30
ENDBRANCH   1  24
TORSDOF 8
ENDMDL
MODEL 2
REMARK VINA RESULT:      -9.8      1.809      2.514
REMARK  8 active torsions:
REMARK  status: ('A' for Active; 'I' for Inactive)
REMARK    1  A    between atoms: O_2  and  C_3 
REMARK    2  A    between atoms: C_4  and  N_5 
REMARK       I    between atoms: N_5  and  C_6 
REMARK       I    between atoms: C_6  and  N_7 
REMARK    3  A    between atoms: N_7  and  C_8 
REMARK    4  A    between atoms: C_11  and  C_12 
REMARK    5  A    between atoms: C_12  and  C_13 
REMARK       I    between atoms: C_13  and  N_14 
REMARK    6  A    between atoms: N_14  and  C_15 
REMARK    7  A    between atoms: C_18  and  O_19 
REMARK    8  A    between atoms: O_19  and  C_20 
ROOT
HETATM    1  C   UNL     1      20.229  47.881  49.321  1.00  0.00     0.174 A 
HETATM    2  S   UNL     1      19.912  47.242  47.770  1.00  0.00    -0.062 SA
HETATM    3  C   UNL     1      21.469  47.750  47.264  1.00  0.00     0.081 A 
HETATM    4  C   UNL     1      22.130  48.380  48.304  1.00  0.00     0.052 A 
HETATM    5  N   UNL     1      21.412  48.411  49.493  1.00  0.00    -0.228 NA
ENDROOT
BRANCH   4   6
HETATM    6  C   UNL     1      23.497  48.981  48.312  1.00  0.00     0.163 C 
BRANCH   6   7
HETATM    7  C   UNL     1      24.492  48.184  49.140  1.00  0.00     0.227 C 
HETATM    8  N   UNL     1      24.182  46.835  49.236  1.00  0.00    -0.327 N 
HETATM    9  H   UNL     1      23.346  46.520  48.759  1.00  0.00     0.169 HD
HETATM   10  O   UNL     1      25.461  48.740  49.653  1.00  0.00    -0.273 OA
BRANCH   8  11
HETATM   11  C   UNL     1      24.918  45.837  49.914  1.00  0.00     0.034 A 
HETATM   12  C   UNL     1      26.206  45.437  49.551  1.00  0.00     0.032 A 
HETATM   13  C   UNL     1      26.866  44.429  50.262  1.00  0.00     0.039 A 
HETATM   14  C   UNL     1      26.248  43.823  51.351  1.00  0.00     0.076 A 
HETATM   15  C   UNL     1      24.955  44.195  51.716  1.00  0.00     0.039 A 
HETATM   16  C   UNL     1      24.300  45.209  51.007  1.00  0.00     0.032 A 
BRANCH  14  17
HETATM   17  O   UNL     1      26.913  42.790  51.962  1.00  0.00    -0.311 OA
BRANCH  17  18
HETATM   18  C   UNL     1      27.996  43.078  52.764  1.00  0.00     0.076 A 
HETATM   19  C   UNL     1      27.733  43.936  53.835  1.00  0.00     0.037 A 
HETATM   20  C   UNL     1      28.745  44.269  54.738  1.00  0.00     0.003 A 
HETATM   21  C   UNL     1      30.023  43.737  54.574  1.00  0.00     0.000 A 
HETATM   22  C   UNL     1      30.286  42.868  53.516  1.00  0.00     0.003 A 
HETATM   23  C   UNL     1      29.272  42.529  52.616  1.00  0.00     0.037 A 
ENDBRANCH  17  18
ENDBRANCH  14  17
ENDBRANCH   8  11
ENDBRANCH   6   7
ENDBRANCH   4   6
BRANCH   1  24
HETATM   24  N   UNL     1      19.204  47.708  50.207  1.00  0.00    -0.287 N 
HETATM   25  C   UNL     1      18.668  48.649  51.013  1.00  0.00     0.326 C 
HETATM   26  N   UNL     1      18.705  49.971  50.724  1.00  0.00    -0.306 N 
HETATM   27  O   UNL     1      18.183  48.293  52.092  1.00  0.00    -0.247 OA
HETATM   28  H   UNL     1      18.666  50.548  51.552  1.00  0.00     0.171 HD
HETATM   29  H   UNL     1      18.997  46.756  50.462  1.00  0.00     0.172 HD
BRANCH  26  30
HETATM   30  C   UNL     1      18.541  50.647  49.496  1.00  0.00     0.069 A 
HETATM   31  C   UNL     1      17.680  50.246  48.459  1.00  0.00     0.095 A 
HETATM   32  C   UNL     1      17.629  50.978  47.266  1.00  0.00     0.039 A 
HETATM   33  C   UNL     1      18.379  52.146  47.122  1.00  0.00     0.003 A 
HETATM   34  C   UNL     1      19.181  52.587  48.171  1.00  0.00     0.002 A 
HETATM   35  C   UNL     1      19.254  51.845  49.352  1.00  0.00     0.032 A 
BRANCH  31  36
HETATM   36  O   UNL     1      16.882  49.141  48.613  1.00  0.00    -0.354 OA
HETATM   37  C   UNL     1      15.588  49.319  48.040  1.00  0.00     0.210 C 
ENDBRANCH  31  36
ENDBRANCH  26  30
ENDBRANCH   1  24
TORSDOF 8
ENDMDL
MODEL 3
REMARK VINA RESULT:      -8.8      3.481      9.470
REMARK  8 active torsions:
REMARK  status: ('A' for Active; 'I' for Inactive)
REMARK    1  A    between atoms: O_2  and  C_3 
REMARK    2  A    between atoms: C_4  and  N_5 
REMARK       I    between atoms: N_5  and  C_6 
REMARK       I    between atoms: C_6  and  N_7 
REMARK    3  A    between atoms: N_7  and  C_8 
REMARK    4  A    between atoms: C_11  and  C_12 
REMARK    5  A    between atoms: C_12  and  C_13 
REMARK       I    between atoms: C_13  and  N_14 
REMARK    6  A    between atoms: N_14  and  C_15 
REMARK    7  A    between atoms: C_18  and  O_19 
REMARK    8  A    between atoms: O_19  and  C_20 
ROOT
HETATM    1  C   UNL     1      26.373  41.136  50.649  1.00  0.00     0.174 A 
HETATM    2  S   UNL     1      27.190  41.363  49.168  1.00  0.00    -0.062 SA
HETATM    3  C   UNL     1      25.760  42.037  48.504  1.00  0.00     0.081 A 
HETATM    4  C   UNL     1      24.748  42.040  49.448  1.00  0.00     0.052 A 
HETATM    5  N   UNL     1      25.133  41.552  50.691  1.00  0.00    -0.228 NA
ENDROOT
BRANCH   4   6
HETATM    6  C   UNL     1      23.343  42.526  49.307  1.00  0.00     0.163 C 
BRANCH   6   7
HETATM    7  C   UNL     1      23.178  43.988  49.690  1.00  0.00     0.227 C 
HETATM    8  N   UNL     1      23.085  44.842  48.601  1.00  0.00    -0.327 N 
HETATM    9  H   UNL     1      23.133  44.421  47.681  1.00  0.00     0.169 HD
HETATM   10  O   UNL     1      23.141  44.320  50.873  1.00  0.00    -0.273 OA
BRANCH   8  11
HETATM   11  C   UNL     1      22.906  46.244  48.629  1.00  0.00     0.034 A 
HETATM   12  C   UNL     1      23.634  47.106  49.452  1.00  0.00     0.032 A 
HETATM   13  C   UNL     1      23.390  48.482  49.436  1.00  0.00     0.039 A 
HETATM   14  C   UNL     1      22.424  49.010  48.585  1.00  0.00     0.076 A 
HETATM   15  C   UNL     1      21.673  48.164  47.771  1.00  0.00     0.039 A 
HETATM   16  C   UNL     1      21.926  46.786  47.784  1.00  0.00     0.032 A 
BRANCH  14  17
HETATM   17  O   UNL     1      22.176  50.357  48.667  1.00  0.00    -0.311 OA
BRANCH  17  18
HETATM   18  C   UNL     1      20.898  50.783  48.957  1.00  0.00     0.076 A 
HETATM   19  C   UNL     1      20.257  50.085  49.985  1.00  0.00     0.037 A 
HETATM   20  C   UNL     1      18.973  50.453  50.392  1.00  0.00     0.003 A 
HETATM   21  C   UNL     1      18.329  51.524  49.775  1.00  0.00     0.000 A 
HETATM   22  C   UNL     1      18.972  52.233  48.761  1.00  0.00     0.003 A 
HETATM   23  C   UNL     1      20.260  51.870  48.357  1.00  0.00     0.037 A 
ENDBRANCH  17  18
ENDBRANCH  14  17
ENDBRANCH   8  11
ENDBRANCH   6   7
ENDBRANCH   4   6
BRANCH   1  24
HETATM   24  N   UNL     1      27.150  40.584  51.626  1.00  0.00    -0.287 N 
HETATM   25  C   UNL     1      28.203  41.162  52.242  1.00  0.00     0.326 C 
HETATM   26  N   UNL     1      28.340  42.504  52.357  1.00  0.00    -0.306 N 
HETATM   27  O   UNL     1      29.113  40.437  52.658  1.00  0.00    -0.247 OA
HETATM   28  H   UNL     1      29.307  42.786  52.439  1.00  0.00     0.171 HD
HETATM   29  H   UNL     1      27.094  39.583  51.721  1.00  0.00     0.172 HD
BRANCH  26  30
HETATM   30  C   UNL     1      27.381  43.505  52.625  1.00  0.00     0.069 A 
HETATM   31  C   UNL     1      26.996  44.517  51.729  1.00  0.00     0.095 A 
HETATM   32  C   UNL     1      26.058  45.481  52.120  1.00  0.00     0.039 A 
HETATM   33  C   UNL     1      25.450  45.406  53.374  1.00  0.00     0.003 A 
HETATM   34  C   UNL     1      25.776  44.366  54.240  1.00  0.00     0.002 A 
HETATM   35  C   UNL     1      26.730  43.418  53.863  1.00  0.00     0.032 A 
BRANCH  31  36
HETATM   36  O   UNL     1      27.530  44.561  50.467  1.00  0.00    -0.354 OA
HETATM   37  C   UNL     1      26.861  45.498  49.624  1.00  0.00     0.210 C 
ENDBRANCH  31  36
ENDBRANCH  26  30
ENDBRANCH   1  24
TORSDOF 8
ENDMDL
MODEL 4
REMARK VINA RESULT:      -8.8      2.423      3.693
REMARK  8 active torsions:
REMARK  status: ('A' for Active; 'I' for Inactive)
REMARK    1  A    between atoms: O_2  and  C_3 
REMARK    2  A    between atoms: C_4  and  N_5 
REMARK       I    between atoms: N_5  and  C_6 
REMARK       I    between atoms: C_6  and  N_7 
REMARK    3  A    between atoms: N_7  and  C_8 
REMARK    4  A    between atoms: C_11  and  C_12 
REMARK    5  A    between atoms: C_12  and  C_13 
REMARK       I    between atoms: C_13  and  N_14 
REMARK    6  A    between atoms: N_14  and  C_15 
REMARK    7  A    between atoms: C_18  and  O_19 
REMARK    8  A    between atoms: O_19  and  C_20 
ROOT
HETATM    1  C   UNL     1      19.493  48.551  49.175  1.00  0.00     0.174 A 
HETATM    2  S   UNL     1      18.993  49.429  50.550  1.00  0.00    -0.062 SA
HETATM    3  C   UNL     1      20.259  50.550  50.272  1.00  0.00     0.081 A 
HETATM    4  C   UNL     1      20.988  50.182  49.153  1.00  0.00     0.052 A 
HETATM    5  N   UNL     1      20.506  49.048  48.513  1.00  0.00    -0.228 NA
ENDROOT
BRANCH   4   6
HETATM    6  C   UNL     1      22.173  50.860  48.549  1.00  0.00     0.163 C 
BRANCH   6   7
HETATM    7  C   UNL     1      23.359  49.928  48.357  1.00  0.00     0.227 C 
HETATM    8  N   UNL     1      23.514  49.006  49.383  1.00  0.00    -0.327 N 
HETATM    9  H   UNL     1      22.840  49.041  50.138  1.00  0.00     0.169 HD
HETATM   10  O   UNL     1      24.079  50.033  47.367  1.00  0.00    -0.273 OA
BRANCH   8  11
HETATM   11  C   UNL     1      24.501  48.000  49.483  1.00  0.00     0.034 A 
HETATM   12  C   UNL     1      25.872  48.258  49.550  1.00  0.00     0.032 A 
HETATM   13  C   UNL     1      26.791  47.207  49.633  1.00  0.00     0.039 A 
HETATM   14  C   UNL     1      26.345  45.889  49.662  1.00  0.00     0.076 A 
HETATM   15  C   UNL     1      24.982  45.612  49.575  1.00  0.00     0.039 A 
HETATM   16  C   UNL     1      24.064  46.666  49.502  1.00  0.00     0.032 A 
BRANCH  14  17
HETATM   17  O   UNL     1      27.296  44.900  49.667  1.00  0.00    -0.311 OA
BRANCH  17  18
HETATM   18  C   UNL     1      27.354  44.038  50.741  1.00  0.00     0.076 A 
HETATM   19  C   UNL     1      27.238  42.682  50.423  1.00  0.00     0.037 A 
HETATM   20  C   UNL     1      27.321  41.713  51.425  1.00  0.00     0.003 A 
HETATM   21  C   UNL     1      27.526  42.100  52.749  1.00  0.00     0.000 A 
HETATM   22  C   UNL     1      27.657  43.451  53.068  1.00  0.00     0.003 A 
HETATM   23  C   UNL     1      27.582  44.421  52.065  1.00  0.00     0.037 A 
ENDBRANCH  17  18
ENDBRANCH  14  17
ENDBRANCH   8  11
ENDBRANCH   6   7
ENDBRANCH   4   6
BRANCH   1  24
HETATM   24  N   UNL     1      18.725  47.452  48.915  1.00  0.00    -0.287 N 
HETATM   25  C   UNL     1      17.434  47.445  48.519  1.00  0.00     0.326 C 
HETATM   26  N   UNL     1      16.867  48.475  47.848  1.00  0.00    -0.306 N 
HETATM   27  O   UNL     1      16.724  46.487  48.843  1.00  0.00    -0.247 OA
HETATM   28  H   UNL     1      15.868  48.524  47.992  1.00  0.00     0.171 HD
HETATM   29  H   UNL     1      19.065  46.579  49.286  1.00  0.00     0.172 HD
BRANCH  26  30
HETATM   30  C   UNL     1      17.383  49.299  46.825  1.00  0.00     0.069 A 
HETATM   31  C   UNL     1      17.505  50.697  46.895  1.00  0.00     0.095 A 
HETATM   32  C   UNL     1      17.998  51.415  45.799  1.00  0.00     0.039 A 
HETATM   33  C   UNL     1      18.436  50.745  44.656  1.00  0.00     0.003 A 
HETATM   34  C   UNL     1      18.382  49.356  44.606  1.00  0.00     0.002 A 
HETATM   35  C   UNL     1      17.866  48.638  45.687  1.00  0.00     0.032 A 
BRANCH  31  36
HETATM   36  O   UNL     1      17.148  51.364  48.040  1.00  0.00    -0.354 OA
HETATM   37  C   UNL     1      18.026  52.449  48.335  1.00  0.00     0.210 C 
ENDBRANCH  31  36
ENDBRANCH  26  30
ENDBRANCH   1  24
TORSDOF 8
ENDMDL
MODEL 5
REMARK VINA RESULT:      -8.7      1.991      2.708
REMARK  8 active torsions:
REMARK  status: ('A' for Active; 'I' for Inactive)
REMARK    1  A    between atoms: O_2  and  C_3 
REMARK    2  A    between atoms: C_4  and  N_5 
REMARK       I    between atoms: N_5  and  C_6 
REMARK       I    between atoms: C_6  and  N_7 
REMARK    3  A    between atoms: N_7  and  C_8 
REMARK    4  A    between atoms: C_11  and  C_12 
REMARK    5  A    between atoms: C_12  and  C_13 
REMARK       I    between atoms: C_13  and  N_14 
REMARK    6  A    between atoms: N_14  and  C_15 
REMARK    7  A    between atoms: C_18  and  O_19 
REMARK    8  A    between atoms: O_19  and  C_20 
ROOT
HETATM    1  C   UNL     1      18.244  47.312  47.462  1.00  0.00     0.174 A 
HETATM    2  S   UNL     1      18.176  45.745  48.135  1.00  0.00    -0.062 SA
HETATM    3  C   UNL     1      19.832  45.876  48.558  1.00  0.00     0.081 A 
HETATM    4  C   UNL     1      20.335  47.101  48.154  1.00  0.00     0.052 A 
HETATM    5  N   UNL     1      19.393  47.930  47.558  1.00  0.00    -0.228 NA
ENDROOT
BRANCH   4   6
HETATM    6  C   UNL     1      21.719  47.639  48.312  1.00  0.00     0.163 C 
BRANCH   6   7
HETATM    7  C   UNL     1      22.767  46.548  48.469  1.00  0.00     0.227 C 
HETATM    8  N   UNL     1      23.514  46.657  49.634  1.00  0.00    -0.327 N 
HETATM    9  H   UNL     1      23.295  47.431  50.249  1.00  0.00     0.169 HD
HETATM   10  O   UNL     1      22.894  45.679  47.609  1.00  0.00    -0.273 OA
BRANCH   8  11
HETATM   11  C   UNL     1      24.541  45.791  50.072  1.00  0.00     0.034 A 
HETATM   12  C   UNL     1      25.867  45.875  49.642  1.00  0.00     0.032 A 
HETATM   13  C   UNL     1      26.826  44.970  50.109  1.00  0.00     0.039 A 
HETATM   14  C   UNL     1      26.469  43.982  51.021  1.00  0.00     0.076 A 
HETATM   15  C   UNL     1      25.146  43.871  51.446  1.00  0.00     0.039 A 
HETATM   16  C   UNL     1      24.190  44.783  50.983  1.00  0.00     0.032 A 
BRANCH  14  17
HETATM   17  O   UNL     1      27.434  43.078  51.386  1.00  0.00    -0.311 OA
BRANCH  17  18
HETATM   18  C   UNL     1      28.171  43.314  52.526  1.00  0.00     0.076 A 
HETATM   19  C   UNL     1      29.408  42.666  52.582  1.00  0.00     0.037 A 
HETATM   20  C   UNL     1      30.257  42.860  53.672  1.00  0.00     0.003 A 
HETATM   21  C   UNL     1      29.874  43.708  54.708  1.00  0.00     0.000 A 
HETATM   22  C   UNL     1      28.647  44.370  54.650  1.00  0.00     0.003 A 
HETATM   23  C   UNL     1      27.799  44.182  53.555  1.00  0.00     0.037 A 
ENDBRANCH  17  18
ENDBRANCH  14  17
ENDBRANCH   8  11
ENDBRANCH   6   7
ENDBRANCH   4   6
BRANCH   1  24
HETATM   24  N   UNL     1      17.055  47.739  46.943  1.00  0.00    -0.287 N 
HETATM   25  C   UNL     1      16.152  48.538  47.550  1.00  0.00     0.326 C 
HETATM   26  N   UNL     1      16.488  49.424  48.517  1.00  0.00    -0.306 N 
HETATM   27  O   UNL     1      14.959  48.407  47.257  1.00  0.00    -0.247 OA
HETATM   28  H   UNL     1      15.719  49.622  49.142  1.00  0.00     0.171 HD
HETATM   29  H   UNL     1      16.708  47.222  46.152  1.00  0.00     0.172 HD
BRANCH  26  30
HETATM   30  C   UNL     1      17.611  50.270  48.636  1.00  0.00     0.069 A 
HETATM   31  C   UNL     1      18.353  50.470  49.814  1.00  0.00     0.095 A 
HETATM   32  C   UNL     1      19.430  51.365  49.822  1.00  0.00     0.039 A 
HETATM   33  C   UNL     1      19.817  52.013  48.648  1.00  0.00     0.003 A 
HETATM   34  C   UNL     1      19.130  51.767  47.463  1.00  0.00     0.002 A 
HETATM   35  C   UNL     1      18.040  50.895  47.457  1.00  0.00     0.032 A 
BRANCH  31  36
HETATM   36  O   UNL     1      18.030  49.785  50.957  1.00  0.00    -0.354 OA
HETATM   37  C   UNL     1      18.662  48.508  51.025  1.00  0.00     0.210 C 
ENDBRANCH  31  36
ENDBRANCH  26  30
ENDBRANCH   1  24
TORSDOF 8
ENDMDL
MODEL 6
REMARK VINA RESULT:      -8.5      3.714     10.444
REMARK  8 active torsions:
REMARK  status: ('A' for Active; 'I' for Inactive)
REMARK    1  A    between atoms: O_2  and  C_3 
REMARK    2  A    between atoms: C_4  and  N_5 
REMARK       I    between atoms: N_5  and  C_6 
REMARK       I    between atoms: C_6  and  N_7 
REMARK    3  A    between atoms: N_7  and  C_8 
REMARK    4  A    between atoms: C_11  and  C_12 
REMARK    5  A    between atoms: C_12  and  C_13 
REMARK       I    between atoms: C_13  and  N_14 
REMARK    6  A    between atoms: N_14  and  C_15 
REMARK    7  A    between atoms: C_18  and  O_19 
REMARK    8  A    between atoms: O_19  and  C_20 
ROOT
HETATM    1  C   UNL     1      27.414  43.709  52.224  1.00  0.00     0.174 A 
HETATM    2  S   UNL     1      26.043  44.139  53.145  1.00  0.00    -0.062 SA
HETATM    3  C   UNL     1      25.584  45.238  51.913  1.00  0.00     0.081 A 
HETATM    4  C   UNL     1      26.507  45.215  50.881  1.00  0.00     0.052 A 
HETATM    5  N   UNL     1      27.534  44.298  51.063  1.00  0.00    -0.228 NA
ENDROOT
BRANCH   4   6
HETATM    6  C   UNL     1      26.510  46.007  49.615  1.00  0.00     0.163 C 
BRANCH   6   7
HETATM    7  C   UNL     1      25.797  47.343  49.747  1.00  0.00     0.227 C 
HETATM    8  N   UNL     1      24.687  47.466  48.924  1.00  0.00    -0.327 N 
HETATM    9  H   UNL     1      24.465  46.675  48.331  1.00  0.00     0.169 HD
HETATM   10  O   UNL     1      26.214  48.196  50.527  1.00  0.00    -0.273 OA
BRANCH   8  11
HETATM   11  C   UNL     1      23.811  48.571  48.832  1.00  0.00     0.034 A 
HETATM   12  C   UNL     1      24.201  49.841  48.403  1.00  0.00     0.032 A 
HETATM   13  C   UNL     1      23.279  50.891  48.354  1.00  0.00     0.039 A 
HETATM   14  C   UNL     1      21.954  50.675  48.721  1.00  0.00     0.076 A 
HETATM   15  C   UNL     1      21.551  49.420  49.171  1.00  0.00     0.039 A 
HETATM   16  C   UNL     1      22.475  48.368  49.211  1.00  0.00     0.032 A 
BRANCH  14  17
HETATM   17  O   UNL     1      21.114  51.760  48.725  1.00  0.00    -0.311 OA
BRANCH  17  18
HETATM   18  C   UNL     1      19.753  51.548  48.756  1.00  0.00     0.076 A 
HETATM   19  C   UNL     1      19.188  51.125  47.549  1.00  0.00     0.037 A 
HETATM   20  C   UNL     1      17.824  50.842  47.470  1.00  0.00     0.003 A 
HETATM   21  C   UNL     1      17.020  50.975  48.602  1.00  0.00     0.000 A 
HETATM   22  C   UNL     1      17.583  51.381  49.812  1.00  0.00     0.003 A 
HETATM   23  C   UNL     1      18.950  51.658  49.893  1.00  0.00     0.037 A 
ENDBRANCH  17  18
ENDBRANCH  14  17
ENDBRANCH   8  11
ENDBRANCH   6   7
ENDBRANCH   4   6
BRANCH   1  24
HETATM   24  N   UNL     1      28.194  42.754  52.813  1.00  0.00    -0.287 N 
HETATM   25  C   UNL     1      27.929  41.433  52.892  1.00  0.00     0.326 C 
HETATM   26  N   UNL     1      27.142  40.787  51.999  1.00  0.00    -0.306 N 
HETATM   27  O   UNL     1      28.368  40.801  53.859  1.00  0.00    -0.247 OA
HETATM   28  H   UNL     1      26.705  39.967  52.394  1.00  0.00     0.171 HD
HETATM   29  H   UNL     1      28.895  43.091  53.453  1.00  0.00     0.172 HD
BRANCH  26  30
HETATM   30  C   UNL     1      27.039  40.926  50.598  1.00  0.00     0.069 A 
HETATM   31  C   UNL     1      25.922  41.437  49.915  1.00  0.00     0.095 A 
HETATM   32  C   UNL     1      25.920  41.492  48.516  1.00  0.00     0.039 A 
HETATM   33  C   UNL     1      27.048  41.104  47.793  1.00  0.00     0.003 A 
HETATM   34  C   UNL     1      28.183  40.662  48.466  1.00  0.00     0.002 A 
HETATM   35  C   UNL     1      28.180  40.581  49.860  1.00  0.00     0.032 A 
BRANCH  31  36
HETATM   36  O   UNL     1      24.833  41.891  50.615  1.00  0.00    -0.354 OA
HETATM   37  C   UNL     1      23.959  42.681  49.811  1.00  0.00     0.210 C 
ENDBRANCH  31  36
ENDBRANCH  26  30
ENDBRANCH   1  24
TORSDOF 8
ENDMDL
MODEL 7
REMARK VINA RESULT:      -8.4      2.305      3.312
REMARK  8 active torsions:
REMARK  status: ('A' for Active; 'I' for Inactive)
REMARK    1  A    between atoms: O_2  and  C_3 
REMARK    2  A    between atoms: C_4  and  N_5 
REMARK       I    between atoms: N_5  and  C_6 
REMARK       I    between atoms: C_6  and  N_7 
REMARK    3  A    between atoms: N_7  and  C_8 
REMARK    4  A    between atoms: C_11  and  C_12 
REMARK    5  A    between atoms: C_12  and  C_13 
REMARK       I    between atoms: C_13  and  N_14 
REMARK    6  A    between atoms: N_14  and  C_15 
REMARK    7  A    between atoms: C_18  and  O_19 
REMARK    8  A    between atoms: O_19  and  C_20 
ROOT
HETATM    1  C   UNL     1      19.351  48.643  49.355  1.00  0.00     0.174 A 
HETATM    2  S   UNL     1      18.932  49.754  50.581  1.00  0.00    -0.062 SA
HETATM    3  C   UNL     1      20.338  50.663  50.210  1.00  0.00     0.081 A 
HETATM    4  C   UNL     1      21.042  50.059  49.182  1.00  0.00     0.052 A 
HETATM    5  N   UNL     1      20.435  48.916  48.677  1.00  0.00    -0.228 NA
ENDROOT
BRANCH   4   6
HETATM    6  C   UNL     1      22.319  50.498  48.544  1.00  0.00     0.163 C 
BRANCH   6   7
HETATM    7  C   UNL     1      23.394  49.423  48.563  1.00  0.00     0.227 C 
HETATM    8  N   UNL     1      23.179  48.438  49.516  1.00  0.00    -0.327 N 
HETATM    9  H   UNL     1      22.349  48.527  50.090  1.00  0.00     0.169 HD
HETATM   10  O   UNL     1      24.342  49.479  47.784  1.00  0.00    -0.273 OA
BRANCH   8  11
HETATM   11  C   UNL     1      23.982  47.302  49.764  1.00  0.00     0.034 A 
HETATM   12  C   UNL     1      23.716  46.032  49.249  1.00  0.00     0.032 A 
HETATM   13  C   UNL     1      24.550  44.951  49.552  1.00  0.00     0.039 A 
HETATM   14  C   UNL     1      25.665  45.135  50.364  1.00  0.00     0.076 A 
HETATM   15  C   UNL     1      25.935  46.391  50.904  1.00  0.00     0.039 A 
HETATM   16  C   UNL     1      25.103  47.473  50.591  1.00  0.00     0.032 A 
BRANCH  14  17
HETATM   17  O   UNL     1      26.402  44.024  50.688  1.00  0.00    -0.311 OA
BRANCH  17  18
HETATM   18  C   UNL     1      26.913  43.912  51.962  1.00  0.00     0.076 A 
HETATM   19  C   UNL     1      28.303  43.788  52.039  1.00  0.00     0.037 A 
HETATM   20  C   UNL     1      28.936  43.706  53.280  1.00  0.00     0.003 A 
HETATM   21  C   UNL     1      28.180  43.753  54.450  1.00  0.00     0.000 A 
HETATM   22  C   UNL     1      26.794  43.893  54.379  1.00  0.00     0.003 A 
HETATM   23  C   UNL     1      26.160  43.982  53.137  1.00  0.00     0.037 A 
ENDBRANCH  17  18
ENDBRANCH  14  17
ENDBRANCH   8  11
ENDBRANCH   6   7
ENDBRANCH   4   6
BRANCH   1  24
HETATM   24  N   UNL     1      18.456  47.622  49.210  1.00  0.00    -0.287 N 
HETATM   25  C   UNL     1      17.156  47.731  48.860  1.00  0.00     0.326 C 
HETATM   26  N   UNL     1      16.679  48.765  48.127  1.00  0.00    -0.306 N 
HETATM   27  O   UNL     1      16.359  46.887  49.283  1.00  0.00    -0.247 OA
HETATM   28  H   UNL     1      15.699  48.938  48.300  1.00  0.00     0.171 HD
HETATM   29  H   UNL     1      18.712  46.747  49.638  1.00  0.00     0.172 HD
BRANCH  26  30
HETATM   30  C   UNL     1      17.239  49.444  47.024  1.00  0.00     0.069 A 
HETATM   31  C   UNL     1      17.885  48.830  45.937  1.00  0.00     0.095 A 
HETATM   32  C   UNL     1      18.437  49.613  44.916  1.00  0.00     0.039 A 
HETATM   33  C   UNL     1      18.291  51.000  44.932  1.00  0.00     0.003 A 
HETATM   34  C   UNL     1      17.593  51.610  45.970  1.00  0.00     0.002 A 
HETATM   35  C   UNL     1      17.063  50.835  47.005  1.00  0.00     0.032 A 
BRANCH  31  36
HETATM   36  O   UNL     1      17.972  47.463  45.870  1.00  0.00    -0.354 OA
HETATM   37  C   UNL     1      19.315  47.010  45.704  1.00  0.00     0.210 C 
ENDBRANCH  31  36
ENDBRANCH  26  30
ENDBRANCH   1  24
TORSDOF 8
ENDMDL
MODEL 8
REMARK VINA RESULT:      -8.4      3.413      9.476
REMARK  8 active torsions:
REMARK  status: ('A' for Active; 'I' for Inactive)
REMARK    1  A    between atoms: O_2  and  C_3 
REMARK    2  A    between atoms: C_4  and  N_5 
REMARK       I    between atoms: N_5  and  C_6 
REMARK       I    between atoms: C_6  and  N_7 
REMARK    3  A    between atoms: N_7  and  C_8 
REMARK    4  A    between atoms: C_11  and  C_12 
REMARK    5  A    between atoms: C_12  and  C_13 
REMARK       I    between atoms: C_13  and  N_14 
REMARK    6  A    between atoms: N_14  and  C_15 
REMARK    7  A    between atoms: C_18  and  O_19 
REMARK    8  A    between atoms: O_19  and  C_20 
ROOT
HETATM    1  C   UNL     1      26.294  41.180  50.687  1.00  0.00     0.174 A 
HETATM    2  S   UNL     1      27.088  41.111  49.178  1.00  0.00    -0.062 SA
HETATM    3  C   UNL     1      25.640  41.618  48.414  1.00  0.00     0.081 A 
HETATM    4  C   UNL     1      24.640  41.800  49.354  1.00  0.00     0.052 A 
HETATM    5  N   UNL     1      25.048  41.579  50.663  1.00  0.00    -0.228 NA
ENDROOT
BRANCH   4   6
HETATM    6  C   UNL     1      23.226  42.231  49.139  1.00  0.00     0.163 C 
BRANCH   6   7
HETATM    7  C   UNL     1      23.006  43.710  49.412  1.00  0.00     0.227 C 
HETATM    8  N   UNL     1      22.873  44.474  48.262  1.00  0.00    -0.327 N 
HETATM    9  H   UNL     1      22.934  43.987  47.376  1.00  0.00     0.169 HD
HETATM   10  O   UNL     1      22.962  44.129  50.567  1.00  0.00    -0.273 OA
BRANCH   8  11
HETATM   11  C   UNL     1      22.640  45.866  48.186  1.00  0.00     0.034 A 
HETATM   12  C   UNL     1      21.626  46.446  47.420  1.00  0.00     0.032 A 
HETATM   13  C   UNL     1      21.467  47.834  47.382  1.00  0.00     0.039 A 
HETATM   14  C   UNL     1      22.314  48.655  48.120  1.00  0.00     0.076 A 
HETATM   15  C   UNL     1      23.344  48.096  48.874  1.00  0.00     0.039 A 
HETATM   16  C   UNL     1      23.496  46.705  48.917  1.00  0.00     0.032 A 
BRANCH  14  17
HETATM   17  O   UNL     1      22.157  50.011  47.984  1.00  0.00    -0.311 OA
BRANCH  17  18
HETATM   18  C   UNL     1      21.024  50.605  48.495  1.00  0.00     0.076 A 
HETATM   19  C   UNL     1      20.920  50.591  49.889  1.00  0.00     0.037 A 
HETATM   20  C   UNL     1      19.834  51.197  50.522  1.00  0.00     0.003 A 
HETATM   21  C   UNL     1      18.849  51.825  49.761  1.00  0.00     0.000 A 
HETATM   22  C   UNL     1      18.957  51.856  48.371  1.00  0.00     0.003 A 
HETATM   23  C   UNL     1      20.048  51.256  47.737  1.00  0.00     0.037 A 
ENDBRANCH  17  18
ENDBRANCH  14  17
ENDBRANCH   8  11
ENDBRANCH   6   7
ENDBRANCH   4   6
BRANCH   1  24
HETATM   24  N   UNL     1      27.092  40.847  51.744  1.00  0.00    -0.287 N 
HETATM   25  C   UNL     1      28.212  41.486  52.141  1.00  0.00     0.326 C 
HETATM   26  N   UNL     1      28.437  42.797  51.890  1.00  0.00    -0.306 N 
HETATM   27  O   UNL     1      29.099  40.830  52.698  1.00  0.00    -0.247 OA
HETATM   28  H   UNL     1      29.422  43.019  51.855  1.00  0.00     0.171 HD
HETATM   29  H   UNL     1      26.980  39.913  52.103  1.00  0.00     0.172 HD
BRANCH  26  30
HETATM   30  C   UNL     1      27.558  43.901  51.921  1.00  0.00     0.069 A 
HETATM   31  C   UNL     1      27.012  44.470  53.085  1.00  0.00     0.095 A 
HETATM   32  C   UNL     1      26.119  45.544  52.989  1.00  0.00     0.039 A 
HETATM   33  C   UNL     1      25.817  46.102  51.746  1.00  0.00     0.003 A 
HETATM   34  C   UNL     1      26.408  45.589  50.596  1.00  0.00     0.002 A 
HETATM   35  C   UNL     1      27.279  44.501  50.685  1.00  0.00     0.032 A 
BRANCH  31  36
HETATM   36  O   UNL     1      27.356  43.979  54.319  1.00  0.00    -0.354 OA
HETATM   37  C   UNL     1      28.379  44.750  54.946  1.00  0.00     0.210 C 
ENDBRANCH  31  36
ENDBRANCH  26  30
ENDBRANCH   1  24
TORSDOF 8
ENDMDL
MODEL 9
REMARK VINA RESULT:      -8.4     13.125     14.615
REMARK  8 active torsions:
REMARK  status: ('A' for Active; 'I' for Inactive)
REMARK    1  A    between atoms: O_2  and  C_3 
REMARK    2  A    between atoms: C_4  and  N_5 
REMARK       I    between atoms: N_5  and  C_6 
REMARK       I    between atoms: C_6  and  N_7 
REMARK    3  A    between atoms: N_7  and  C_8 
REMARK    4  A    between atoms: C_11  and  C_12 
REMARK    5  A    between atoms: C_12  and  C_13 
REMARK       I    between atoms: C_13  and  N_14 
REMARK    6  A    between atoms: N_14  and  C_15 
REMARK    7  A    between atoms: C_18  and  O_19 
REMARK    8  A    between atoms: O_19  and  C_20 
ROOT
HETATM    1  C   UNL     1      28.848  49.300  39.910  1.00  0.00     0.174 A 
HETATM    2  S   UNL     1      27.788  49.122  41.235  1.00  0.00    -0.062 SA
HETATM    3  C   UNL     1      29.114  48.633  42.206  1.00  0.00     0.081 A 
HETATM    4  C   UNL     1      30.279  48.630  41.458  1.00  0.00     0.052 A 
HETATM    5  N   UNL     1      30.111  49.054  40.146  1.00  0.00    -0.228 NA
ENDROOT
BRANCH   4   6
HETATM    6  C   UNL     1      31.663  48.270  41.890  1.00  0.00     0.163 C 
BRANCH   6   7
HETATM    7  C   UNL     1      32.382  49.411  42.592  1.00  0.00     0.227 C 
HETATM    8  N   UNL     1      33.622  49.707  42.044  1.00  0.00    -0.327 N 
HETATM    9  H   UNL     1      33.919  49.151  41.251  1.00  0.00     0.169 HD
HETATM   10  O   UNL     1      31.863  49.976  43.552  1.00  0.00    -0.273 OA
BRANCH   8  11
HETATM   11  C   UNL     1      34.516  50.721  42.457  1.00  0.00     0.034 A 
HETATM   12  C   UNL     1      34.317  51.526  43.581  1.00  0.00     0.032 A 
HETATM   13  C   UNL     1      35.240  52.520  43.918  1.00  0.00     0.039 A 
HETATM   14  C   UNL     1      36.378  52.709  43.141  1.00  0.00     0.076 A 
HETATM   15  C   UNL     1      36.584  51.929  42.004  1.00  0.00     0.039 A 
HETATM   16  C   UNL     1      35.662  50.928  41.674  1.00  0.00     0.032 A 
BRANCH  14  17
HETATM   17  O   UNL     1      37.209  53.748  43.477  1.00  0.00    -0.311 OA
BRANCH  17  18
HETATM   18  C   UNL     1      37.906  53.686  44.663  1.00  0.00     0.076 A 
HETATM   19  C   UNL     1      37.773  54.803  45.493  1.00  0.00     0.037 A 
HETATM   20  C   UNL     1      38.403  54.837  46.738  1.00  0.00     0.003 A 
HETATM   21  C   UNL     1      39.166  53.749  47.159  1.00  0.00     0.000 A 
HETATM   22  C   UNL     1      39.289  52.626  46.342  1.00  0.00     0.003 A 
HETATM   23  C   UNL     1      38.652  52.588  45.099  1.00  0.00     0.037 A 
ENDBRANCH  17  18
ENDBRANCH  14  17
ENDBRANCH   8  11
ENDBRANCH   6   7
ENDBRANCH   4   6
BRANCH   1  24
HETATM   24  N   UNL     1      28.233  49.730  38.769  1.00  0.00    -0.287 N 
HETATM   25  C   UNL     1      28.038  51.011  38.391  1.00  0.00     0.326 C 
HETATM   26  N   UNL     1      28.833  52.027  38.802  1.00  0.00    -0.306 N 
HETATM   27  O   UNL     1      27.052  51.276  37.695  1.00  0.00    -0.247 OA
HETATM   28  H   UNL     1      28.352  52.915  38.804  1.00  0.00     0.171 HD
HETATM   29  H   UNL     1      27.661  49.051  38.294  1.00  0.00     0.172 HD
BRANCH  26  30
HETATM   30  C   UNL     1      30.232  52.084  38.978  1.00  0.00     0.069 A 
HETATM   31  C   UNL     1      30.889  52.690  40.063  1.00  0.00     0.095 A 
HETATM   32  C   UNL     1      32.288  52.717  40.112  1.00  0.00     0.039 A 
HETATM   33  C   UNL     1      33.040  52.085  39.121  1.00  0.00     0.003 A 
HETATM   34  C   UNL     1      32.396  51.424  38.080  1.00  0.00     0.002 A 
HETATM   35  C   UNL     1      31.001  51.417  38.014  1.00  0.00     0.032 A 
BRANCH  31  36
HETATM   36  O   UNL     1      30.162  53.251  41.083  1.00  0.00    -0.354 OA
HETATM   37  C   UNL     1      29.871  52.319  42.122  1.00  0.00     0.210 C 
ENDBRANCH  31  36
ENDBRANCH  26  30
ENDBRANCH   1  24
TORSDOF 8
ENDMDL
MODEL 10
REMARK VINA RESULT:      -8.4      2.277      2.830
REMARK  8 active torsions:
REMARK  status: ('A' for Active; 'I' for Inactive)
REMARK    1  A    between atoms: O_2  and  C_3 
REMARK    2  A    between atoms: C_4  and  N_5 
REMARK       I    between atoms: N_5  and  C_6 
REMARK       I    between atoms: C_6  and  N_7 
REMARK    3  A    between atoms: N_7  and  C_8 
REMARK    4  A    between atoms: C_11  and  C_12 
REMARK    5  A    between atoms: C_12  and  C_13 
REMARK       I    between atoms: C_13  and  N_14 
REMARK    6  A    between atoms: N_14  and  C_15 
REMARK    7  A    between atoms: C_18  and  O_19 
REMARK    8  A    between atoms: O_19  and  C_20 
ROOT
HETATM    1  C   UNL     1      18.287  47.178  47.333  1.00  0.00     0.174 A 
HETATM    2  S   UNL     1      18.142  45.666  48.112  1.00  0.00    -0.062 SA
HETATM    3  C   UNL     1      19.794  45.763  48.563  1.00  0.00     0.081 A 
HETATM    4  C   UNL     1      20.354  46.935  48.086  1.00  0.00     0.052 A 
HETATM    5  N   UNL     1      19.458  47.756  47.412  1.00  0.00    -0.228 NA
ENDROOT
BRANCH   4   6
HETATM    6  C   UNL     1      21.755  47.428  48.237  1.00  0.00     0.163 C 
BRANCH   6   7
HETATM    7  C   UNL     1      22.763  46.306  48.427  1.00  0.00     0.227 C 
HETATM    8  N   UNL     1      23.537  46.440  49.571  1.00  0.00    -0.327 N 
HETATM    9  H   UNL     1      23.360  47.250  50.153  1.00  0.00     0.169 HD
HETATM   10  O   UNL     1      22.839  45.393  47.608  1.00  0.00    -0.273 OA
BRANCH   8  11
HETATM   11  C   UNL     1      24.539  45.556  50.032  1.00  0.00     0.034 A 
HETATM   12  C   UNL     1      25.894  45.685  49.721  1.00  0.00     0.032 A 
HETATM   13  C   UNL     1      26.826  44.760  50.202  1.00  0.00     0.039 A 
HETATM   14  C   UNL     1      26.412  43.706  51.010  1.00  0.00     0.076 A 
HETATM   15  C   UNL     1      25.060  43.550  51.315  1.00  0.00     0.039 A 
HETATM   16  C   UNL     1      24.131  44.483  50.838  1.00  0.00     0.032 A 
BRANCH  14  17
HETATM   17  O   UNL     1      27.359  42.789  51.390  1.00  0.00    -0.311 OA
BRANCH  17  18
HETATM   18  C   UNL     1      28.191  43.090  52.445  1.00  0.00     0.076 A 
HETATM   19  C   UNL     1      27.609  43.844  53.467  1.00  0.00     0.037 A 
HETATM   20  C   UNL     1      28.345  44.177  54.606  1.00  0.00     0.003 A 
HETATM   21  C   UNL     1      29.667  43.750  54.727  1.00  0.00     0.000 A 
HETATM   22  C   UNL     1      30.247  42.984  53.717  1.00  0.00     0.003 A 
HETATM   23  C   UNL     1      29.508  42.644  52.580  1.00  0.00     0.037 A 
ENDBRANCH  17  18
ENDBRANCH  14  17
ENDBRANCH   8  11
ENDBRANCH   6   7
ENDBRANCH   4   6
BRANCH   1  24
HETATM   24  N   UNL     1      17.127  47.614  46.759  1.00  0.00    -0.287 N 
HETATM   25  C   UNL     1      16.170  48.365  47.345  1.00  0.00     0.326 C 
HETATM   26  N   UNL     1      16.425  49.203  48.377  1.00  0.00    -0.306 N 
HETATM   27  O   UNL     1      15.002  48.231  46.966  1.00  0.00    -0.247 OA
HETATM   28  H   UNL     1      15.613  49.355  48.959  1.00  0.00     0.171 HD
HETATM   29  H   UNL     1      16.842  47.134  45.921  1.00  0.00     0.172 HD
BRANCH  26  30
HETATM   30  C   UNL     1      17.522  50.059  48.616  1.00  0.00     0.069 A 
HETATM   31  C   UNL     1      17.982  51.051  47.733  1.00  0.00     0.095 A 
HETATM   32  C   UNL     1      19.107  51.817  48.062  1.00  0.00     0.039 A 
HETATM   33  C   UNL     1      19.739  51.649  49.295  1.00  0.00     0.003 A 
HETATM   34  C   UNL     1      19.247  50.717  50.203  1.00  0.00     0.002 A 
HETATM   35  C   UNL     1      18.141  49.933  49.867  1.00  0.00     0.032 A 
BRANCH  31  36
HETATM   36  O   UNL     1      17.328  51.279  46.549  1.00  0.00    -0.354 OA
HETATM   37  C   UNL     1      18.131  50.965  45.413  1.00  0.00     0.210 C 
ENDBRANCH  31  36
ENDBRANCH  26  30
ENDBRANCH   1  24
TORSDOF 8
ENDMDL
