MODEL 1
REMARK VINA RESULT:      -9.3      0.000      0.000
REMARK  5 active torsions:
REMARK  status: ('A' for Active; 'I' for Inactive)
REMARK    1  A    between atoms: C_7  and  S_8 
REMARK    2  A    between atoms: S_8  and  C_9 
REMARK    3  A    between atoms: C_9  and  C_10 
REMARK       I    between atoms: C_10  and  N_11 
REMARK    4  A    between atoms: N_11  and  N_12 
REMARK       I    between atoms: N_12  and  C_13 
REMARK       I    between atoms: C_13  and  N_14 
REMARK    5  A    between atoms: N_14  and  C_15 
ROOT
HETATM    1  C   UNL     1      25.698  46.914  51.393  1.00  0.00     0.245 C 
HETATM    2  N   UNL     1      25.675  47.226  50.052  1.00  0.00    -0.265 N 
HETATM    3  O   UNL     1      25.042  47.563  52.214  1.00  0.00    -0.271 OA
HETATM    4  H   UNL     1      26.135  46.669  49.331  1.00  0.00     0.190 HD
ENDROOT
BRANCH   1   5
HETATM    5  C   UNL     1      26.456  45.669  51.800  1.00  0.00     0.184 C 
BRANCH   5   6
HETATM    6  S   UNL     1      25.914  44.971  53.386  1.00  0.00    -0.118 SA
BRANCH   6   7
HETATM    7  C   UNL     1      27.284  45.439  54.375  1.00  0.00     0.035 A 
HETATM    8  C   UNL     1      27.416  46.640  55.040  1.00  0.00     0.023 A 
HETATM    9  C   UNL     1      26.534  47.834  55.101  1.00  0.00     0.069 C 
HETATM   10  N   UNL     1      28.603  46.586  55.729  1.00  0.00    -0.358 N 
HETATM   11  H   UNL     1      28.969  47.323  56.316  1.00  0.00     0.166 HD
HETATM   12  C   UNL     1      29.234  45.380  55.520  1.00  0.00     0.044 A 
HETATM   13  C   UNL     1      28.432  44.640  54.649  1.00  0.00     0.009 A 
HETATM   14  C   UNL     1      30.444  44.898  56.033  1.00  0.00     0.030 A 
HETATM   15  C   UNL     1      28.876  43.358  54.258  1.00  0.00     0.015 A 
HETATM   16  C   UNL     1      30.085  42.861  54.761  1.00  0.00     0.001 A 
HETATM   17  C   UNL     1      30.853  43.621  55.639  1.00  0.00     0.002 A 
ENDBRANCH   6   7
ENDBRANCH   5   6
ENDBRANCH   1   5
BRANCH   2  18
HETATM   18  N   UNL     1      24.832  48.269  49.636  1.00  0.00    -0.249 N 
HETATM   19  C   UNL     1      25.354  49.221  48.804  1.00  0.00     0.339 C 
HETATM   20  N   UNL     1      24.488  50.109  48.234  1.00  0.00    -0.308 N 
HETATM   21  O   UNL     1      26.553  49.264  48.524  1.00  0.00    -0.245 OA
HETATM   22  H   UNL     1      24.937  50.633  47.493  1.00  0.00     0.170 HD
HETATM   23  H   UNL     1      23.880  47.962  49.442  1.00  0.00     0.192 HD
BRANCH  20  24
HETATM   24  C   UNL     1      23.126  50.384  48.465  1.00  0.00     0.036 A 
HETATM   25  C   UNL     1      22.603  50.833  49.681  1.00  0.00     0.029 A 
HETATM   26  C   UNL     1      21.228  51.045  49.828  1.00  0.00     0.002 A 
HETATM   27  C   UNL     1      20.367  50.832  48.756  1.00  0.00     0.000 A 
HETATM   28  C   UNL     1      20.881  50.428  47.528  1.00  0.00     0.002 A 
HETATM   29  C   UNL     1      22.254  50.216  47.381  1.00  0.00     0.029 A 
ENDBRANCH  20  24
ENDBRANCH   2  18
TORSDOF 5
ENDMDL
MODEL 2
REMARK VINA RESULT:      -9.0      6.360      9.094
REMARK  5 active torsions:
REMARK  status: ('A' for Active; 'I' for Inactive)
REMARK    1  A    between atoms: C_7  and  S_8 
REMARK    2  A    between atoms: S_8  and  C_9 
REMARK    3  A    between atoms: C_9  and  C_10 
REMARK       I    between atoms: C_10  and  N_11 
REMARK    4  A    between atoms: N_11  and  N_12 
REMARK       I    between atoms: N_12  and  C_13 
REMARK       I    between atoms: C_13  and  N_14 
REMARK    5  A    between atoms: N_14  and  C_15 
ROOT
HETATM    1  C   UNL     1      28.314  40.953  52.177  1.00  0.00     0.245 C 
HETATM    2  N   UNL     1      29.209  40.030  51.685  1.00  0.00    -0.265 N 
HETATM    3  O   UNL     1      27.225  41.146  51.628  1.00  0.00    -0.271 OA
HETATM    4  H   UNL     1      30.082  39.780  52.150  1.00  0.00     0.190 HD
ENDROOT
BRANCH   1   5
HETATM    5  C   UNL     1      28.666  41.627  53.486  1.00  0.00     0.184 C 
BRANCH   5   6
HETATM    6  S   UNL     1      30.060  42.783  53.360  1.00  0.00    -0.118 SA
BRANCH   6   7
HETATM    7  C   UNL     1      29.503  44.009  54.481  1.00  0.00     0.035 A 
HETATM    8  C   UNL     1      28.406  44.824  54.294  1.00  0.00     0.023 A 
HETATM    9  C   UNL     1      27.447  44.940  53.165  1.00  0.00     0.069 C 
HETATM   10  N   UNL     1      28.291  45.604  55.419  1.00  0.00    -0.358 N 
HETATM   11  H   UNL     1      27.574  46.298  55.575  1.00  0.00     0.166 HD
HETATM   12  C   UNL     1      29.288  45.308  56.321  1.00  0.00     0.044 A 
HETATM   13  C   UNL     1      30.085  44.316  55.746  1.00  0.00     0.009 A 
HETATM   14  C   UNL     1      29.541  45.843  57.590  1.00  0.00     0.030 A 
HETATM   15  C   UNL     1      31.202  43.850  56.473  1.00  0.00     0.015 A 
HETATM   16  C   UNL     1      31.469  44.375  57.743  1.00  0.00     0.001 A 
HETATM   17  C   UNL     1      30.646  45.355  58.292  1.00  0.00     0.002 A 
ENDBRANCH   6   7
ENDBRANCH   5   6
ENDBRANCH   1   5
BRANCH   2  18
HETATM   18  N   UNL     1      28.819  39.267  50.573  1.00  0.00    -0.249 N 
HETATM   19  C   UNL     1      29.548  38.148  50.277  1.00  0.00     0.339 C 
HETATM   20  N   UNL     1      29.049  37.297  49.334  1.00  0.00    -0.308 N 
HETATM   21  O   UNL     1      30.596  37.870  50.864  1.00  0.00    -0.245 OA
HETATM   22  H   UNL     1      29.550  36.416  49.334  1.00  0.00     0.170 HD
HETATM   23  H   UNL     1      27.808  39.197  50.469  1.00  0.00     0.192 HD
BRANCH  20  24
HETATM   24  C   UNL     1      27.979  37.413  48.425  1.00  0.00     0.036 A 
HETATM   25  C   UNL     1      28.000  38.208  47.275  1.00  0.00     0.029 A 
HETATM   26  C   UNL     1      26.875  38.291  46.448  1.00  0.00     0.002 A 
HETATM   27  C   UNL     1      25.728  37.562  46.749  1.00  0.00     0.000 A 
HETATM   28  C   UNL     1      25.712  36.732  47.867  1.00  0.00     0.002 A 
HETATM   29  C   UNL     1      26.836  36.650  48.692  1.00  0.00     0.029 A 
ENDBRANCH  20  24
ENDBRANCH   2  18
TORSDOF 5
ENDMDL
MODEL 3
REMARK VINA RESULT:      -9.0      1.887      2.082
REMARK  5 active torsions:
REMARK  status: ('A' for Active; 'I' for Inactive)
REMARK    1  A    between atoms: C_7  and  S_8 
REMARK    2  A    between atoms: S_8  and  C_9 
REMARK    3  A    between atoms: C_9  and  C_10 
REMARK       I    between atoms: C_10  and  N_11 
REMARK    4  A    between atoms: N_11  and  N_12 
REMARK       I    between atoms: N_12  and  C_13 
REMARK       I    between atoms: C_13  and  N_14 
REMARK    5  A    between atoms: N_14  and  C_15 
ROOT
HETATM    1  C   UNL     1      24.972  46.722  50.727  1.00  0.00     0.245 C 
HETATM    2  N   UNL     1      23.918  46.269  49.967  1.00  0.00    -0.265 N 
HETATM    3  O   UNL     1      25.087  47.918  51.016  1.00  0.00    -0.271 OA
HETATM    4  H   UNL     1      23.738  45.283  49.774  1.00  0.00     0.190 HD
ENDROOT
BRANCH   1   5
HETATM    5  C   UNL     1      25.910  45.681  51.300  1.00  0.00     0.184 C 
BRANCH   5   6
HETATM    6  S   UNL     1      25.363  45.006  52.894  1.00  0.00    -0.118 SA
BRANCH   6   7
HETATM    7  C   UNL     1      26.762  45.424  53.864  1.00  0.00     0.035 A 
HETATM    8  C   UNL     1      26.954  46.627  54.511  1.00  0.00     0.023 A 
HETATM    9  C   UNL     1      26.128  47.861  54.563  1.00  0.00     0.069 C 
HETATM   10  N   UNL     1      28.144  46.528  55.191  1.00  0.00    -0.358 N 
HETATM   11  H   UNL     1      28.548  47.256  55.764  1.00  0.00     0.166 HD
HETATM   12  C   UNL     1      28.717  45.292  54.994  1.00  0.00     0.044 A 
HETATM   13  C   UNL     1      27.875  44.578  54.140  1.00  0.00     0.009 A 
HETATM   14  C   UNL     1      29.909  44.762  55.502  1.00  0.00     0.030 A 
HETATM   15  C   UNL     1      28.257  43.272  53.763  1.00  0.00     0.015 A 
HETATM   16  C   UNL     1      29.446  42.727  54.262  1.00  0.00     0.001 A 
HETATM   17  C   UNL     1      30.256  43.463  55.123  1.00  0.00     0.002 A 
ENDBRANCH   6   7
ENDBRANCH   5   6
ENDBRANCH   1   5
BRANCH   2  18
HETATM   18  N   UNL     1      22.940  47.200  49.580  1.00  0.00    -0.249 N 
HETATM   19  C   UNL     1      22.224  46.941  48.444  1.00  0.00     0.339 C 
HETATM   20  N   UNL     1      21.140  47.729  48.185  1.00  0.00    -0.308 N 
HETATM   21  O   UNL     1      22.498  46.004  47.692  1.00  0.00    -0.245 OA
HETATM   22  H   UNL     1      20.571  47.335  47.444  1.00  0.00     0.170 HD
HETATM   23  H   UNL     1      22.426  47.593  50.367  1.00  0.00     0.192 HD
BRANCH  20  24
HETATM   24  C   UNL     1      20.675  48.923  48.769  1.00  0.00     0.036 A 
HETATM   25  C   UNL     1      19.731  48.986  49.798  1.00  0.00     0.029 A 
HETATM   26  C   UNL     1      19.301  50.222  50.293  1.00  0.00     0.002 A 
HETATM   27  C   UNL     1      19.828  51.404  49.782  1.00  0.00     0.000 A 
HETATM   28  C   UNL     1      20.802  51.352  48.789  1.00  0.00     0.002 A 
HETATM   29  C   UNL     1      21.230  50.118  48.295  1.00  0.00     0.029 A 
ENDBRANCH  20  24
ENDBRANCH   2  18
TORSDOF 5
ENDMDL
MODEL 4
REMARK VINA RESULT:      -9.0      2.162      9.592
REMARK  5 active torsions:
REMARK  status: ('A' for Active; 'I' for Inactive)
REMARK    1  A    between atoms: C_7  and  S_8 
REMARK    2  A    between atoms: S_8  and  C_9 
REMARK    3  A    between atoms: C_9  and  C_10 
REMARK       I    between atoms: C_10  and  N_11 
REMARK    4  A    between atoms: N_11  and  N_12 
REMARK       I    between atoms: N_12  and  C_13 
REMARK       I    between atoms: C_13  and  N_14 
REMARK    5  A    between atoms: N_14  and  C_15 
ROOT
HETATM    1  C   UNL     1      26.304  46.579  52.938  1.00  0.00     0.245 C 
HETATM    2  N   UNL     1      26.512  45.232  53.131  1.00  0.00    -0.265 N 
HETATM    3  O   UNL     1      27.024  47.424  53.479  1.00  0.00    -0.271 OA
HETATM    4  H   UNL     1      25.996  44.500  52.642  1.00  0.00     0.190 HD
ENDROOT
BRANCH   1   5
HETATM    5  C   UNL     1      25.240  46.977  51.937  1.00  0.00     0.184 C 
BRANCH   5   6
HETATM    6  S   UNL     1      25.624  46.489  50.231  1.00  0.00    -0.118 SA
BRANCH   6   7
HETATM    7  C   UNL     1      25.376  48.034  49.441  1.00  0.00     0.035 A 
HETATM    8  C   UNL     1      26.375  48.905  49.061  1.00  0.00     0.023 A 
HETATM    9  C   UNL     1      27.851  48.840  49.215  1.00  0.00     0.069 C 
HETATM   10  N   UNL     1      25.764  49.967  48.439  1.00  0.00    -0.358 N 
HETATM   11  H   UNL     1      26.242  50.766  48.047  1.00  0.00     0.166 HD
HETATM   12  C   UNL     1      24.398  49.796  48.413  1.00  0.00     0.044 A 
HETATM   13  C   UNL     1      24.120  48.590  49.060  1.00  0.00     0.009 A 
HETATM   14  C   UNL     1      23.399  50.614  47.872  1.00  0.00     0.030 A 
HETATM   15  C   UNL     1      22.771  48.193  49.185  1.00  0.00     0.015 A 
HETATM   16  C   UNL     1      21.760  49.000  48.650  1.00  0.00     0.001 A 
HETATM   17  C   UNL     1      22.073  50.191  48.000  1.00  0.00     0.002 A 
ENDBRANCH   6   7
ENDBRANCH   5   6
ENDBRANCH   1   5
BRANCH   2  18
HETATM   18  N   UNL     1      27.612  44.845  53.915  1.00  0.00    -0.249 N 
HETATM   19  C   UNL     1      28.539  44.013  53.349  1.00  0.00     0.339 C 
HETATM   20  N   UNL     1      29.704  43.808  54.030  1.00  0.00    -0.308 N 
HETATM   21  O   UNL     1      28.373  43.497  52.243  1.00  0.00    -0.245 OA
HETATM   22  H   UNL     1      30.393  43.349  53.445  1.00  0.00     0.170 HD
HETATM   23  H   UNL     1      27.967  45.594  54.506  1.00  0.00     0.192 HD
BRANCH  20  24
HETATM   24  C   UNL     1      30.110  44.143  55.337  1.00  0.00     0.036 A 
HETATM   25  C   UNL     1      29.710  45.296  56.019  1.00  0.00     0.029 A 
HETATM   26  C   UNL     1      30.193  45.566  57.303  1.00  0.00     0.002 A 
HETATM   27  C   UNL     1      31.060  44.674  57.928  1.00  0.00     0.000 A 
HETATM   28  C   UNL     1      31.430  43.500  57.277  1.00  0.00     0.002 A 
HETATM   29  C   UNL     1      30.947  43.232  55.993  1.00  0.00     0.029 A 
ENDBRANCH  20  24
ENDBRANCH   2  18
TORSDOF 5
ENDMDL
MODEL 5
REMARK VINA RESULT:      -8.9      1.407      2.245
REMARK  5 active torsions:
REMARK  status: ('A' for Active; 'I' for Inactive)
REMARK    1  A    between atoms: C_7  and  S_8 
REMARK    2  A    between atoms: S_8  and  C_9 
REMARK    3  A    between atoms: C_9  and  C_10 
REMARK       I    between atoms: C_10  and  N_11 
REMARK    4  A    between atoms: N_11  and  N_12 
REMARK       I    between atoms: N_12  and  C_13 
REMARK       I    between atoms: C_13  and  N_14 
REMARK    5  A    between atoms: N_14  and  C_15 
ROOT
HETATM    1  C   UNL     1      25.687  46.730  51.084  1.00  0.00     0.245 C 
HETATM    2  N   UNL     1      25.434  47.033  49.765  1.00  0.00    -0.265 N 
HETATM    3  O   UNL     1      25.254  47.437  51.999  1.00  0.00    -0.271 OA
HETATM    4  H   UNL     1      25.700  46.435  48.982  1.00  0.00     0.190 HD
ENDROOT
BRANCH   1   5
HETATM    5  C   UNL     1      26.407  45.429  51.368  1.00  0.00     0.184 C 
BRANCH   5   6
HETATM    6  S   UNL     1      25.871  44.619  52.902  1.00  0.00    -0.118 SA
BRANCH   6   7
HETATM    7  C   UNL     1      27.343  43.748  53.282  1.00  0.00     0.035 A 
HETATM    8  C   UNL     1      27.755  42.576  52.682  1.00  0.00     0.023 A 
HETATM    9  C   UNL     1      27.124  41.730  51.637  1.00  0.00     0.069 C 
HETATM   10  N   UNL     1      28.973  42.253  53.230  1.00  0.00    -0.358 N 
HETATM   11  H   UNL     1      29.526  41.445  52.983  1.00  0.00     0.166 HD
HETATM   12  C   UNL     1      29.349  43.190  54.167  1.00  0.00     0.044 A 
HETATM   13  C   UNL     1      28.327  44.138  54.237  1.00  0.00     0.009 A 
HETATM   14  C   UNL     1      30.507  43.263  54.950  1.00  0.00     0.030 A 
HETATM   15  C   UNL     1      28.465  45.204  55.152  1.00  0.00     0.015 A 
HETATM   16  C   UNL     1      29.617  45.292  55.943  1.00  0.00     0.001 A 
HETATM   17  C   UNL     1      30.623  44.336  55.838  1.00  0.00     0.002 A 
ENDBRANCH   6   7
ENDBRANCH   5   6
ENDBRANCH   1   5
BRANCH   2  18
HETATM   18  N   UNL     1      24.612  48.139  49.493  1.00  0.00    -0.249 N 
HETATM   19  C   UNL     1      25.176  49.216  48.865  1.00  0.00     0.339 C 
HETATM   20  N   UNL     1      24.341  50.196  48.415  1.00  0.00    -0.308 N 
HETATM   21  O   UNL     1      26.388  49.297  48.658  1.00  0.00    -0.245 OA
HETATM   22  H   UNL     1      24.827  50.836  47.799  1.00  0.00     0.170 HD
HETATM   23  H   UNL     1      23.671  47.879  49.202  1.00  0.00     0.192 HD
BRANCH  20  24
HETATM   24  C   UNL     1      22.968  50.439  48.619  1.00  0.00     0.036 A 
HETATM   25  C   UNL     1      22.407  50.835  49.837  1.00  0.00     0.029 A 
HETATM   26  C   UNL     1      21.025  51.017  49.957  1.00  0.00     0.002 A 
HETATM   27  C   UNL     1      20.195  50.830  48.856  1.00  0.00     0.000 A 
HETATM   28  C   UNL     1      20.747  50.479  47.627  1.00  0.00     0.002 A 
HETATM   29  C   UNL     1      22.127  50.297  47.509  1.00  0.00     0.029 A 
ENDBRANCH  20  24
ENDBRANCH   2  18
TORSDOF 5
ENDMDL
MODEL 6
REMARK VINA RESULT:      -8.8      1.936      2.536
REMARK  5 active torsions:
REMARK  status: ('A' for Active; 'I' for Inactive)
REMARK    1  A    between atoms: C_7  and  S_8 
REMARK    2  A    between atoms: S_8  and  C_9 
REMARK    3  A    between atoms: C_9  and  C_10 
REMARK       I    between atoms: C_10  and  N_11 
REMARK    4  A    between atoms: N_11  and  N_12 
REMARK       I    between atoms: N_12  and  C_13 
REMARK       I    between atoms: C_13  and  N_14 
REMARK    5  A    between atoms: N_14  and  C_15 
ROOT
HETATM    1  C   UNL     1      26.820  45.001  50.050  1.00  0.00     0.245 C 
HETATM    2  N   UNL     1      25.457  44.998  50.242  1.00  0.00    -0.265 N 
HETATM    3  O   UNL     1      27.366  45.850  49.339  1.00  0.00    -0.271 OA
HETATM    4  H   UNL     1      24.974  44.368  50.883  1.00  0.00     0.190 HD
ENDROOT
BRANCH   1   5
HETATM    5  C   UNL     1      27.632  44.002  50.847  1.00  0.00     0.184 C 
BRANCH   5   6
HETATM    6  S   UNL     1      26.799  43.418  52.350  1.00  0.00    -0.118 SA
BRANCH   6   7
HETATM    7  C   UNL     1      27.525  44.513  53.510  1.00  0.00     0.035 A 
HETATM    8  C   UNL     1      27.034  45.756  53.850  1.00  0.00     0.023 A 
HETATM    9  C   UNL     1      25.857  46.518  53.360  1.00  0.00     0.069 C 
HETATM   10  N   UNL     1      27.866  46.262  54.820  1.00  0.00    -0.358 N 
HETATM   11  H   UNL     1      27.756  47.160  55.270  1.00  0.00     0.166 HD
HETATM   12  C   UNL     1      28.876  45.372  55.108  1.00  0.00     0.044 A 
HETATM   13  C   UNL     1      28.699  44.263  54.279  1.00  0.00     0.009 A 
HETATM   14  C   UNL     1      29.923  45.469  56.032  1.00  0.00     0.030 A 
HETATM   15  C   UNL     1      29.630  43.205  54.369  1.00  0.00     0.015 A 
HETATM   16  C   UNL     1      30.684  43.287  55.287  1.00  0.00     0.001 A 
HETATM   17  C   UNL     1      30.823  44.403  56.108  1.00  0.00     0.002 A 
ENDBRANCH   6   7
ENDBRANCH   5   6
ENDBRANCH   1   5
BRANCH   2  18
HETATM   18  N   UNL     1      24.710  46.031  49.653  1.00  0.00    -0.249 N 
HETATM   19  C   UNL     1      23.402  45.778  49.343  1.00  0.00     0.339 C 
HETATM   20  N   UNL     1      22.623  46.834  48.969  1.00  0.00    -0.308 N 
HETATM   21  O   UNL     1      22.908  44.653  49.439  1.00  0.00    -0.245 OA
HETATM   22  H   UNL     1      21.642  46.580  48.958  1.00  0.00     0.170 HD
HETATM   23  H   UNL     1      24.921  46.949  50.038  1.00  0.00     0.192 HD
BRANCH  20  24
HETATM   24  C   UNL     1      22.931  48.171  48.646  1.00  0.00     0.036 A 
HETATM   25  C   UNL     1      24.159  48.785  48.908  1.00  0.00     0.029 A 
HETATM   26  C   UNL     1      24.363  50.131  48.585  1.00  0.00     0.002 A 
HETATM   27  C   UNL     1      23.352  50.867  47.976  1.00  0.00     0.000 A 
HETATM   28  C   UNL     1      22.140  50.253  47.669  1.00  0.00     0.002 A 
HETATM   29  C   UNL     1      21.937  48.909  47.993  1.00  0.00     0.029 A 
ENDBRANCH  20  24
ENDBRANCH   2  18
TORSDOF 5
ENDMDL
MODEL 7
REMARK VINA RESULT:      -8.8      2.331      3.306
REMARK  5 active torsions:
REMARK  status: ('A' for Active; 'I' for Inactive)
REMARK    1  A    between atoms: C_7  and  S_8 
REMARK    2  A    between atoms: S_8  and  C_9 
REMARK    3  A    between atoms: C_9  and  C_10 
REMARK       I    between atoms: C_10  and  N_11 
REMARK    4  A    between atoms: N_11  and  N_12 
REMARK       I    between atoms: N_12  and  C_13 
REMARK       I    between atoms: C_13  and  N_14 
REMARK    5  A    between atoms: N_14  and  C_15 
ROOT
HETATM    1  C   UNL     1      25.000  47.504  49.968  1.00  0.00     0.245 C 
HETATM    2  N   UNL     1      23.726  46.999  49.847  1.00  0.00    -0.265 N 
HETATM    3  O   UNL     1      25.253  48.682  49.693  1.00  0.00    -0.271 OA
HETATM    4  H   UNL     1      23.455  46.060  50.140  1.00  0.00     0.190 HD
ENDROOT
BRANCH   1   5
HETATM    5  C   UNL     1      26.049  46.596  50.573  1.00  0.00     0.184 C 
BRANCH   5   6
HETATM    6  S   UNL     1      25.400  45.486  51.854  1.00  0.00    -0.118 SA
BRANCH   6   7
HETATM    7  C   UNL     1      26.719  44.333  51.912  1.00  0.00     0.035 A 
HETATM    8  C   UNL     1      26.987  43.377  50.955  1.00  0.00     0.023 A 
HETATM    9  C   UNL     1      26.287  43.023  49.694  1.00  0.00     0.069 C 
HETATM   10  N   UNL     1      28.124  42.718  51.356  1.00  0.00    -0.358 N 
HETATM   11  H   UNL     1      28.569  41.964  50.850  1.00  0.00     0.166 HD
HETATM   12  C   UNL     1      28.589  43.229  52.547  1.00  0.00     0.044 A 
HETATM   13  C   UNL     1      27.708  44.239  52.935  1.00  0.00     0.009 A 
HETATM   14  C   UNL     1      29.713  42.871  53.301  1.00  0.00     0.030 A 
HETATM   15  C   UNL     1      27.957  44.913  54.151  1.00  0.00     0.015 A 
HETATM   16  C   UNL     1      29.077  44.567  54.917  1.00  0.00     0.001 A 
HETATM   17  C   UNL     1      29.942  43.563  54.493  1.00  0.00     0.002 A 
ENDBRANCH   6   7
ENDBRANCH   5   6
ENDBRANCH   1   5
BRANCH   2  18
HETATM   18  N   UNL     1      22.704  47.882  49.458  1.00  0.00    -0.249 N 
HETATM   19  C   UNL     1      22.116  47.683  48.240  1.00  0.00     0.339 C 
HETATM   20  N   UNL     1      20.992  48.402  47.954  1.00  0.00    -0.308 N 
HETATM   21  O   UNL     1      22.538  46.854  47.432  1.00  0.00    -0.245 OA
HETATM   22  H   UNL     1      20.527  48.042  47.129  1.00  0.00     0.170 HD
HETATM   23  H   UNL     1      22.091  48.149  50.227  1.00  0.00     0.192 HD
BRANCH  20  24
HETATM   24  C   UNL     1      20.372  49.489  48.602  1.00  0.00     0.036 A 
HETATM   25  C   UNL     1      19.543  49.375  49.722  1.00  0.00     0.029 A 
HETATM   26  C   UNL     1      18.940  50.507  50.278  1.00  0.00     0.002 A 
HETATM   27  C   UNL     1      19.178  51.767  49.736  1.00  0.00     0.000 A 
HETATM   28  C   UNL     1      20.037  51.898  48.648  1.00  0.00     0.002 A 
HETATM   29  C   UNL     1      20.639  50.766  48.093  1.00  0.00     0.029 A 
ENDBRANCH  20  24
ENDBRANCH   2  18
TORSDOF 5
ENDMDL
MODEL 8
REMARK VINA RESULT:      -8.8      5.070      8.036
REMARK  5 active torsions:
REMARK  status: ('A' for Active; 'I' for Inactive)
REMARK    1  A    between atoms: C_7  and  S_8 
REMARK    2  A    between atoms: S_8  and  C_9 
REMARK    3  A    between atoms: C_9  and  C_10 
REMARK       I    between atoms: C_10  and  N_11 
REMARK    4  A    between atoms: N_11  and  N_12 
REMARK       I    between atoms: N_12  and  C_13 
REMARK       I    between atoms: C_13  and  N_14 
REMARK    5  A    between atoms: N_14  and  C_15 
ROOT
HETATM    1  C   UNL     1      27.065  43.644  50.917  1.00  0.00     0.245 C 
HETATM    2  N   UNL     1      27.181  42.465  51.617  1.00  0.00    -0.265 N 
HETATM    3  O   UNL     1      27.279  43.692  49.701  1.00  0.00    -0.271 OA
HETATM    4  H   UNL     1      26.935  42.362  52.602  1.00  0.00     0.190 HD
ENDROOT
BRANCH   1   5
HETATM    5  C   UNL     1      26.541  44.848  51.671  1.00  0.00     0.184 C 
BRANCH   5   6
HETATM    6  S   UNL     1      25.968  44.463  53.350  1.00  0.00    -0.118 SA
BRANCH   6   7
HETATM    7  C   UNL     1      27.220  45.282  54.262  1.00  0.00     0.035 A 
HETATM    8  C   UNL     1      27.165  46.590  54.696  1.00  0.00     0.023 A 
HETATM    9  C   UNL     1      26.135  47.646  54.517  1.00  0.00     0.069 C 
HETATM   10  N   UNL     1      28.317  46.823  55.408  1.00  0.00    -0.358 N 
HETATM   11  H   UNL     1      28.559  47.696  55.855  1.00  0.00     0.166 HD
HETATM   12  C   UNL     1      29.107  45.696  55.438  1.00  0.00     0.044 A 
HETATM   13  C   UNL     1      28.448  44.709  54.703  1.00  0.00     0.009 A 
HETATM   14  C   UNL     1      30.346  45.482  56.056  1.00  0.00     0.030 A 
HETATM   15  C   UNL     1      29.071  43.450  54.565  1.00  0.00     0.015 A 
HETATM   16  C   UNL     1      30.310  43.219  55.176  1.00  0.00     0.001 A 
HETATM   17  C   UNL     1      30.933  44.222  55.913  1.00  0.00     0.002 A 
ENDBRANCH   6   7
ENDBRANCH   5   6
ENDBRANCH   1   5
BRANCH   2  18
HETATM   18  N   UNL     1      27.491  41.301  50.895  1.00  0.00    -0.249 N 
HETATM   19  C   UNL     1      28.432  40.456  51.417  1.00  0.00     0.339 C 
HETATM   20  N   UNL     1      28.580  39.233  50.830  1.00  0.00    -0.308 N 
HETATM   21  O   UNL     1      29.099  40.746  52.411  1.00  0.00    -0.245 OA
HETATM   22  H   UNL     1      29.146  38.619  51.403  1.00  0.00     0.170 HD
HETATM   23  H   UNL     1      26.677  40.870  50.460  1.00  0.00     0.192 HD
BRANCH  20  24
HETATM   24  C   UNL     1      28.073  38.688  49.634  1.00  0.00     0.036 A 
HETATM   25  C   UNL     1      26.911  37.915  49.546  1.00  0.00     0.029 A 
HETATM   26  C   UNL     1      26.502  37.385  48.318  1.00  0.00     0.002 A 
HETATM   27  C   UNL     1      27.236  37.641  47.164  1.00  0.00     0.000 A 
HETATM   28  C   UNL     1      28.369  38.446  47.231  1.00  0.00     0.002 A 
HETATM   29  C   UNL     1      28.777  38.975  48.458  1.00  0.00     0.029 A 
ENDBRANCH  20  24
ENDBRANCH   2  18
TORSDOF 5
ENDMDL
MODEL 9
REMARK VINA RESULT:      -8.7      1.683      1.942
REMARK  5 active torsions:
REMARK  status: ('A' for Active; 'I' for Inactive)
REMARK    1  A    between atoms: C_7  and  S_8 
REMARK    2  A    between atoms: S_8  and  C_9 
REMARK    3  A    between atoms: C_9  and  C_10 
REMARK       I    between atoms: C_10  and  N_11 
REMARK    4  A    between atoms: N_11  and  N_12 
REMARK       I    between atoms: N_12  and  C_13 
REMARK       I    between atoms: C_13  and  N_14 
REMARK    5  A    between atoms: N_14  and  C_15 
ROOT
HETATM    1  C   UNL     1      25.025  45.610  51.206  1.00  0.00     0.245 C 
HETATM    2  N   UNL     1      24.957  46.975  51.045  1.00  0.00    -0.265 N 
HETATM    3  O   UNL     1      24.124  44.869  50.800  1.00  0.00    -0.271 OA
HETATM    4  H   UNL     1      25.712  47.616  51.290  1.00  0.00     0.190 HD
ENDROOT
BRANCH   1   5
HETATM    5  C   UNL     1      26.306  45.046  51.785  1.00  0.00     0.184 C 
BRANCH   5   6
HETATM    6  S   UNL     1      26.090  44.265  53.409  1.00  0.00    -0.118 SA
BRANCH   6   7
HETATM    7  C   UNL     1      27.310  45.150  54.304  1.00  0.00     0.035 A 
HETATM    8  C   UNL     1      27.212  46.467  54.700  1.00  0.00     0.023 A 
HETATM    9  C   UNL     1      26.150  47.484  54.486  1.00  0.00     0.069 C 
HETATM   10  N   UNL     1      28.352  46.757  55.410  1.00  0.00    -0.358 N 
HETATM   11  H   UNL     1      28.563  47.650  55.833  1.00  0.00     0.166 HD
HETATM   12  C   UNL     1      29.177  45.657  55.476  1.00  0.00     0.044 A 
HETATM   13  C   UNL     1      28.554  44.629  54.766  1.00  0.00     0.009 A 
HETATM   14  C   UNL     1      30.418  45.500  56.104  1.00  0.00     0.030 A 
HETATM   15  C   UNL     1      29.217  43.387  54.667  1.00  0.00     0.015 A 
HETATM   16  C   UNL     1      30.460  43.214  55.289  1.00  0.00     0.001 A 
HETATM   17  C   UNL     1      31.047  44.256  56.000  1.00  0.00     0.002 A 
ENDBRANCH   6   7
ENDBRANCH   5   6
ENDBRANCH   1   5
BRANCH   2  18
HETATM   18  N   UNL     1      23.855  47.498  50.346  1.00  0.00    -0.249 N 
HETATM   19  C   UNL     1      24.092  48.471  49.415  1.00  0.00     0.339 C 
HETATM   20  N   UNL     1      23.062  48.827  48.594  1.00  0.00    -0.308 N 
HETATM   21  O   UNL     1      25.202  48.987  49.269  1.00  0.00    -0.245 OA
HETATM   22  H   UNL     1      23.389  49.397  47.823  1.00  0.00     0.170 HD
HETATM   23  H   UNL     1      23.160  46.793  50.108  1.00  0.00     0.192 HD
BRANCH  20  24
HETATM   24  C   UNL     1      21.687  48.520  48.612  1.00  0.00     0.036 A 
HETATM   25  C   UNL     1      21.117  47.404  47.992  1.00  0.00     0.029 A 
HETATM   26  C   UNL     1      19.734  47.199  48.032  1.00  0.00     0.002 A 
HETATM   27  C   UNL     1      18.911  48.093  48.710  1.00  0.00     0.000 A 
HETATM   28  C   UNL     1      19.472  49.183  49.369  1.00  0.00     0.002 A 
HETATM   29  C   UNL     1      20.854  49.388  49.328  1.00  0.00     0.029 A 
ENDBRANCH  20  24
ENDBRANCH   2  18
TORSDOF 5
ENDMDL
MODEL 10
REMARK VINA RESULT:      -8.3      2.330      2.932
REMARK  5 active torsions:
REMARK  status: ('A' for Active; 'I' for Inactive)
REMARK    1  A    between atoms: C_7  and  S_8 
REMARK    2  A    between atoms: S_8  and  C_9 
REMARK    3  A    between atoms: C_9  and  C_10 
REMARK       I    between atoms: C_10  and  N_11 
REMARK    4  A    between atoms: N_11  and  N_12 
REMARK       I    between atoms: N_12  and  C_13 
REMARK       I    between atoms: C_13  and  N_14 
REMARK    5  A    between atoms: N_14  and  C_15 
ROOT
HETATM    1  C   UNL     1      25.656  44.441  52.715  1.00  0.00     0.245 C 
HETATM    2  N   UNL     1      26.026  45.070  51.548  1.00  0.00    -0.265 N 
HETATM    3  O   UNL     1      24.487  44.462  53.113  1.00  0.00    -0.271 OA
HETATM    4  H   UNL     1      26.959  45.010  51.139  1.00  0.00     0.190 HD
ENDROOT
BRANCH   1   5
HETATM    5  C   UNL     1      26.713  43.618  53.420  1.00  0.00     0.184 C 
BRANCH   5   6
HETATM    6  S   UNL     1      28.412  44.114  53.018  1.00  0.00    -0.118 SA
BRANCH   6   7
HETATM    7  C   UNL     1      28.826  44.919  54.519  1.00  0.00     0.035 A 
HETATM    8  C   UNL     1      28.265  46.092  54.977  1.00  0.00     0.023 A 
HETATM    9  C   UNL     1      27.244  46.994  54.382  1.00  0.00     0.069 C 
HETATM   10  N   UNL     1      28.829  46.354  56.202  1.00  0.00    -0.358 N 
HETATM   11  H   UNL     1      28.610  47.149  56.786  1.00  0.00     0.166 HD
HETATM   12  C   UNL     1      29.737  45.375  56.539  1.00  0.00     0.044 A 
HETATM   13  C   UNL     1      29.773  44.463  55.482  1.00  0.00     0.009 A 
HETATM   14  C   UNL     1      30.523  45.235  57.689  1.00  0.00     0.030 A 
HETATM   15  C   UNL     1      30.655  43.365  55.577  1.00  0.00     0.015 A 
HETATM   16  C   UNL     1      31.448  43.210  56.720  1.00  0.00     0.001 A 
HETATM   17  C   UNL     1      31.378  44.132  57.761  1.00  0.00     0.002 A 
ENDBRANCH   6   7
ENDBRANCH   5   6
ENDBRANCH   1   5
BRANCH   2  18
HETATM   18  N   UNL     1      25.018  45.686  50.788  1.00  0.00    -0.249 N 
HETATM   19  C   UNL     1      25.096  47.038  50.597  1.00  0.00     0.339 C 
HETATM   20  N   UNL     1      24.244  47.601  49.692  1.00  0.00    -0.308 N 
HETATM   21  O   UNL     1      25.932  47.737  51.172  1.00  0.00    -0.245 OA
HETATM   22  H   UNL     1      24.514  48.554  49.479  1.00  0.00     0.170 HD
HETATM   23  H   UNL     1      24.717  45.127  49.991  1.00  0.00     0.192 HD
BRANCH  20  24
HETATM   24  C   UNL     1      23.124  47.095  49.004  1.00  0.00     0.036 A 
HETATM   25  C   UNL     1      23.023  45.793  48.504  1.00  0.00     0.029 A 
HETATM   26  C   UNL     1      21.884  45.388  47.800  1.00  0.00     0.002 A 
HETATM   27  C   UNL     1      20.827  46.272  47.609  1.00  0.00     0.000 A 
HETATM   28  C   UNL     1      20.897  47.557  48.140  1.00  0.00     0.002 A 
HETATM   29  C   UNL     1      22.035  47.961  48.843  1.00  0.00     0.029 A 
ENDBRANCH  20  24
ENDBRANCH   2  18
TORSDOF 5
ENDMDL
