MODEL 1
REMARK VINA RESULT:      -9.9      0.000      0.000
REMARK  8 active torsions:
REMARK  status: ('A' for Active; 'I' for Inactive)
REMARK    1  A    between atoms: C_4  and  C_5 
REMARK    2  A    between atoms: C_5  and  C_6 
REMARK    3  A    between atoms: C_5  and  C_31 
REMARK       I    between atoms: C_6  and  N_7 
REMARK    4  A    between atoms: N_7  and  C_8 
REMARK    5  A    between atoms: C_8  and  N_9 
REMARK    6  A    between atoms: N_9  and  C_10 
REMARK    7  A    between atoms: C_13  and  N_14 
REMARK       I    between atoms: N_17  and  C_18 
REMARK    8  A    between atoms: C_18  and  C_19 
ROOT
HETATM    1  N   UNL     1      27.593  42.205  50.463  1.00  0.00    -0.333 N 
HETATM    2  H   UNL     1      27.795  41.703  49.597  1.00  0.00     0.168 HD
ENDROOT
BRANCH   1   3
HETATM    3  C   UNL     1      28.222  41.649  51.552  1.00  0.00     0.178 C 
HETATM    4  S   UNL     1      28.788  40.098  51.792  1.00  0.00    -0.040 SA
BRANCH   3   5
HETATM    5  N   UNL     1      28.350  42.508  52.636  1.00  0.00    -0.303 N 
HETATM    6  C   UNL     1      29.444  43.279  53.021  1.00  0.00     0.236 C 
HETATM    7  O   UNL     1      30.578  43.083  52.578  1.00  0.00    -0.272 OA
HETATM    8  H   UNL     1      27.476  42.668  53.120  1.00  0.00     0.171 HD
BRANCH   6   9
HETATM    9  C   UNL     1      29.145  44.399  54.027  1.00  0.00     0.144 C 
BRANCH   9  10
HETATM   10  C   UNL     1      29.902  44.331  55.353  1.00  0.00    -0.041 A 
HETATM   11  C   UNL     1      29.780  45.415  56.246  1.00  0.00     0.008 A 
HETATM   12  C   UNL     1      30.435  45.416  57.478  1.00  0.00     0.001 A 
HETATM   13  C   UNL     1      31.230  44.334  57.841  1.00  0.00     0.000 A 
HETATM   14  C   UNL     1      31.375  43.259  56.969  1.00  0.00     0.001 A 
HETATM   15  C   UNL     1      30.722  43.257  55.732  1.00  0.00     0.008 A 
ENDBRANCH   9  10
BRANCH   9  16
HETATM   16  C   UNL     1      27.631  44.600  54.151  1.00  0.00    -0.041 A 
HETATM   17  C   UNL     1      27.038  45.692  53.493  1.00  0.00     0.008 A 
HETATM   18  C   UNL     1      25.656  45.880  53.527  1.00  0.00     0.001 A 
HETATM   19  C   UNL     1      24.847  44.979  54.214  1.00  0.00     0.000 A 
HETATM   20  C   UNL     1      25.418  43.890  54.867  1.00  0.00     0.001 A 
HETATM   21  C   UNL     1      26.801  43.697  54.836  1.00  0.00     0.008 A 
ENDBRANCH   9  16
ENDBRANCH   6   9
ENDBRANCH   3   5
ENDBRANCH   1   3
BRANCH   1  22
HETATM   22  C   UNL     1      26.794  43.351  50.273  1.00  0.00     0.034 A 
HETATM   23  C   UNL     1      27.246  44.637  49.999  1.00  0.00     0.031 A 
HETATM   24  C   UNL     1      26.336  45.693  49.803  1.00  0.00     0.026 A 
HETATM   25  C   UNL     1      24.954  45.489  49.859  1.00  0.00     0.010 A 
HETATM   26  C   UNL     1      24.513  44.193  50.150  1.00  0.00     0.026 A 
HETATM   27  C   UNL     1      25.412  43.146  50.364  1.00  0.00     0.031 A 
BRANCH  25  28
HETATM   28  N   UNL     1      24.000  46.492  49.658  1.00  0.00    -0.280 NA
HETATM   29  C   UNL     1      22.927  46.093  48.721  1.00  0.00     0.115 C 
HETATM   30  C   UNL     1      21.730  47.055  48.847  1.00  0.00     0.141 C 
HETATM   31  N   UNL     1      22.109  48.475  48.781  1.00  0.00    -0.345 N 
HETATM   32  C   UNL     1      21.261  49.505  48.352  1.00  0.00     0.260 C 
HETATM   33  C   UNL     1      23.299  48.851  49.560  1.00  0.00     0.141 C 
HETATM   34  O   UNL     1      21.644  50.675  48.356  1.00  0.00    -0.267 OA
HETATM   35  C   UNL     1      24.471  47.866  49.399  1.00  0.00     0.115 C 
BRANCH  32  36
HETATM   36  C   UNL     1      19.921  49.145  47.915  1.00  0.00     0.072 A 
HETATM   37  S   UNL     1      18.649  49.139  49.061  1.00  0.00    -0.097 SA
HETATM   38  C   UNL     1      17.509  48.635  47.890  1.00  0.00     0.050 A 
HETATM   39  C   UNL     1      18.086  48.448  46.654  1.00  0.00     0.009 A 
HETATM   40  C   UNL     1      19.484  48.728  46.671  1.00  0.00     0.025 A 
ENDBRANCH  32  36
ENDBRANCH  25  28
ENDBRANCH   1  22
TORSDOF 8
ENDMDL
MODEL 2
REMARK VINA RESULT:      -9.8      1.193      1.825
REMARK  8 active torsions:
REMARK  status: ('A' for Active; 'I' for Inactive)
REMARK    1  A    between atoms: C_4  and  C_5 
REMARK    2  A    between atoms: C_5  and  C_6 
REMARK    3  A    between atoms: C_5  and  C_31 
REMARK       I    between atoms: C_6  and  N_7 
REMARK    4  A    between atoms: N_7  and  C_8 
REMARK    5  A    between atoms: C_8  and  N_9 
REMARK    6  A    between atoms: N_9  and  C_10 
REMARK    7  A    between atoms: C_13  and  N_14 
REMARK       I    between atoms: N_17  and  C_18 
REMARK    8  A    between atoms: C_18  and  C_19 
ROOT
HETATM    1  N   UNL     1      27.915  42.310  50.321  1.00  0.00    -0.333 N 
HETATM    2  H   UNL     1      28.496  42.049  49.522  1.00  0.00     0.168 HD
ENDROOT
BRANCH   1   3
HETATM    3  C   UNL     1      28.330  41.716  51.489  1.00  0.00     0.178 C 
HETATM    4  S   UNL     1      28.715  40.125  51.811  1.00  0.00    -0.040 SA
BRANCH   3   5
HETATM    5  N   UNL     1      28.379  42.576  52.579  1.00  0.00    -0.303 N 
HETATM    6  C   UNL     1      29.478  43.218  53.144  1.00  0.00     0.236 C 
HETATM    7  O   UNL     1      30.638  42.876  52.899  1.00  0.00    -0.272 OA
HETATM    8  H   UNL     1      27.462  42.851  52.908  1.00  0.00     0.171 HD
BRANCH   6   9
HETATM    9  C   UNL     1      29.154  44.387  54.084  1.00  0.00     0.144 C 
BRANCH   9  10
HETATM   10  C   UNL     1      29.884  44.390  55.427  1.00  0.00    -0.041 A 
HETATM   11  C   UNL     1      30.663  43.265  55.764  1.00  0.00     0.008 A 
HETATM   12  C   UNL     1      31.364  43.203  56.968  1.00  0.00     0.001 A 
HETATM   13  C   UNL     1      31.296  44.264  57.864  1.00  0.00     0.000 A 
HETATM   14  C   UNL     1      30.522  45.380  57.559  1.00  0.00     0.001 A 
HETATM   15  C   UNL     1      29.816  45.443  56.353  1.00  0.00     0.008 A 
ENDBRANCH   9  10
BRANCH   9  16
HETATM   16  C   UNL     1      27.638  44.587  54.165  1.00  0.00    -0.041 A 
HETATM   17  C   UNL     1      27.061  45.669  53.476  1.00  0.00     0.008 A 
HETATM   18  C   UNL     1      25.679  45.856  53.472  1.00  0.00     0.001 A 
HETATM   19  C   UNL     1      24.853  44.963  54.149  1.00  0.00     0.000 A 
HETATM   20  C   UNL     1      25.408  43.884  54.833  1.00  0.00     0.001 A 
HETATM   21  C   UNL     1      26.791  43.693  54.840  1.00  0.00     0.008 A 
ENDBRANCH   9  16
ENDBRANCH   6   9
ENDBRANCH   3   5
ENDBRANCH   1   3
BRANCH   1  22
HETATM   22  C   UNL     1      26.913  43.249  50.001  1.00  0.00     0.034 A 
HETATM   23  C   UNL     1      27.051  44.632  49.988  1.00  0.00     0.031 A 
HETATM   24  C   UNL     1      25.973  45.459  49.622  1.00  0.00     0.026 A 
HETATM   25  C   UNL     1      24.736  44.927  49.243  1.00  0.00     0.010 A 
HETATM   26  C   UNL     1      24.607  43.534  49.274  1.00  0.00     0.026 A 
HETATM   27  C   UNL     1      25.668  42.709  49.655  1.00  0.00     0.031 A 
BRANCH  25  28
HETATM   28  N   UNL     1      23.634  45.694  48.854  1.00  0.00    -0.280 NA
HETATM   29  C   UNL     1      23.480  46.934  49.647  1.00  0.00     0.115 C 
HETATM   30  C   UNL     1      22.521  47.903  48.932  1.00  0.00     0.141 C 
HETATM   31  N   UNL     1      21.255  47.278  48.516  1.00  0.00    -0.345 N 
HETATM   32  C   UNL     1      20.048  47.967  48.343  1.00  0.00     0.260 C 
HETATM   33  C   UNL     1      21.378  45.949  47.897  1.00  0.00     0.141 C 
HETATM   34  O   UNL     1      19.038  47.376  47.962  1.00  0.00    -0.267 OA
HETATM   35  C   UNL     1      22.341  45.012  48.648  1.00  0.00     0.115 C 
BRANCH  32  36
HETATM   36  C   UNL     1      20.033  49.395  48.618  1.00  0.00     0.072 A 
HETATM   37  S   UNL     1      19.489  49.940  50.148  1.00  0.00    -0.097 SA
HETATM   38  C   UNL     1      19.726  51.579  49.720  1.00  0.00     0.050 A 
HETATM   39  C   UNL     1      20.185  51.716  48.430  1.00  0.00     0.009 A 
HETATM   40  C   UNL     1      20.349  50.454  47.786  1.00  0.00     0.025 A 
ENDBRANCH  32  36
ENDBRANCH  25  28
ENDBRANCH   1  22
TORSDOF 8
ENDMDL
MODEL 3
REMARK VINA RESULT:      -9.6      1.301      3.256
REMARK  8 active torsions:
REMARK  status: ('A' for Active; 'I' for Inactive)
REMARK    1  A    between atoms: C_4  and  C_5 
REMARK    2  A    between atoms: C_5  and  C_6 
REMARK    3  A    between atoms: C_5  and  C_31 
REMARK       I    between atoms: C_6  and  N_7 
REMARK    4  A    between atoms: N_7  and  C_8 
REMARK    5  A    between atoms: C_8  and  N_9 
REMARK    6  A    between atoms: N_9  and  C_10 
REMARK    7  A    between atoms: C_13  and  N_14 
REMARK       I    between atoms: N_17  and  C_18 
REMARK    8  A    between atoms: C_18  and  C_19 
ROOT
HETATM    1  N   UNL     1      26.564  41.959  51.437  1.00  0.00    -0.333 N 
HETATM    2  H   UNL     1      25.982  41.196  51.086  1.00  0.00     0.168 HD
ENDROOT
BRANCH   1   3
HETATM    3  C   UNL     1      27.621  41.510  52.192  1.00  0.00     0.178 C 
HETATM    4  S   UNL     1      28.628  40.200  51.963  1.00  0.00    -0.040 SA
BRANCH   3   5
HETATM    5  N   UNL     1      27.841  42.239  53.354  1.00  0.00    -0.303 N 
HETATM    6  C   UNL     1      28.598  43.393  53.538  1.00  0.00     0.236 C 
HETATM    7  O   UNL     1      29.423  43.780  52.706  1.00  0.00    -0.272 OA
HETATM    8  H   UNL     1      27.260  41.937  54.127  1.00  0.00     0.171 HD
BRANCH   6   9
HETATM    9  C   UNL     1      28.331  44.162  54.840  1.00  0.00     0.144 C 
BRANCH   9  10
HETATM   10  C   UNL     1      27.648  45.521  54.689  1.00  0.00    -0.041 A 
HETATM   11  C   UNL     1      26.449  45.585  53.951  1.00  0.00     0.008 A 
HETATM   12  C   UNL     1      25.766  46.790  53.780  1.00  0.00     0.001 A 
HETATM   13  C   UNL     1      26.272  47.957  54.341  1.00  0.00     0.000 A 
HETATM   14  C   UNL     1      27.461  47.920  55.062  1.00  0.00     0.001 A 
HETATM   15  C   UNL     1      28.149  46.714  55.232  1.00  0.00     0.008 A 
ENDBRANCH   9  10
BRANCH   9  16
HETATM   16  C   UNL     1      29.588  44.157  55.715  1.00  0.00    -0.041 A 
HETATM   17  C   UNL     1      29.707  45.120  56.733  1.00  0.00     0.008 A 
HETATM   18  C   UNL     1      30.805  45.117  57.593  1.00  0.00     0.001 A 
HETATM   19  C   UNL     1      31.796  44.150  57.454  1.00  0.00     0.000 A 
HETATM   20  C   UNL     1      31.691  43.186  56.454  1.00  0.00     0.001 A 
HETATM   21  C   UNL     1      30.595  43.185  55.590  1.00  0.00     0.008 A 
ENDBRANCH   9  16
ENDBRANCH   6   9
ENDBRANCH   3   5
ENDBRANCH   1   3
BRANCH   1  22
HETATM   22  C   UNL     1      26.150  43.229  50.986  1.00  0.00     0.034 A 
HETATM   23  C   UNL     1      26.900  44.121  50.227  1.00  0.00     0.031 A 
HETATM   24  C   UNL     1      26.355  45.353  49.819  1.00  0.00     0.026 A 
HETATM   25  C   UNL     1      25.044  45.718  50.143  1.00  0.00     0.010 A 
HETATM   26  C   UNL     1      24.306  44.818  50.919  1.00  0.00     0.026 A 
HETATM   27  C   UNL     1      24.849  43.602  51.343  1.00  0.00     0.031 A 
BRANCH  25  28
HETATM   28  N   UNL     1      24.442  46.919  49.753  1.00  0.00    -0.280 NA
HETATM   29  C   UNL     1      23.119  46.726  49.119  1.00  0.00     0.115 C 
HETATM   30  C   UNL     1      22.352  48.060  49.079  1.00  0.00     0.141 C 
HETATM   31  N   UNL     1      23.140  49.176  48.532  1.00  0.00    -0.345 N 
HETATM   32  C   UNL     1      22.593  50.304  47.907  1.00  0.00     0.260 C 
HETATM   33  C   UNL     1      24.528  49.266  49.011  1.00  0.00     0.141 C 
HETATM   34  O   UNL     1      23.321  51.211  47.503  1.00  0.00    -0.267 OA
HETATM   35  C   UNL     1      25.258  47.911  49.028  1.00  0.00     0.115 C 
BRANCH  32  36
HETATM   36  C   UNL     1      21.148  50.369  47.764  1.00  0.00     0.072 A 
HETATM   37  S   UNL     1      20.245  51.311  48.873  1.00  0.00    -0.097 SA
HETATM   38  C   UNL     1      18.765  50.893  48.123  1.00  0.00     0.050 A 
HETATM   39  C   UNL     1      18.947  50.031  47.065  1.00  0.00     0.009 A 
HETATM   40  C   UNL     1      20.323  49.715  46.865  1.00  0.00     0.025 A 
ENDBRANCH  32  36
ENDBRANCH  25  28
ENDBRANCH   1  22
TORSDOF 8
ENDMDL
MODEL 4
REMARK VINA RESULT:      -9.2      2.250     10.480
REMARK  8 active torsions:
REMARK  status: ('A' for Active; 'I' for Inactive)
REMARK    1  A    between atoms: C_4  and  C_5 
REMARK    2  A    between atoms: C_5  and  C_6 
REMARK    3  A    between atoms: C_5  and  C_31 
REMARK       I    between atoms: C_6  and  N_7 
REMARK    4  A    between atoms: N_7  and  C_8 
REMARK    5  A    between atoms: C_8  and  N_9 
REMARK    6  A    between atoms: N_9  and  C_10 
REMARK    7  A    between atoms: C_13  and  N_14 
REMARK       I    between atoms: N_17  and  C_18 
REMARK    8  A    between atoms: C_18  and  C_19 
ROOT
HETATM    1  N   UNL     1      21.848  44.545  47.599  1.00  0.00    -0.333 N 
HETATM    2  H   UNL     1      21.156  43.797  47.527  1.00  0.00     0.168 HD
ENDROOT
BRANCH   1   3
HETATM    3  C   UNL     1      21.606  45.572  46.719  1.00  0.00     0.178 C 
HETATM    4  S   UNL     1      21.440  45.552  45.059  1.00  0.00    -0.040 SA
BRANCH   3   5
HETATM    5  N   UNL     1      21.549  46.828  47.312  1.00  0.00    -0.303 N 
HETATM    6  C   UNL     1      20.812  47.245  48.417  1.00  0.00     0.236 C 
HETATM    7  O   UNL     1      19.870  46.587  48.868  1.00  0.00    -0.272 OA
HETATM    8  H   UNL     1      22.239  47.471  46.945  1.00  0.00     0.171 HD
BRANCH   6   9
HETATM    9  C   UNL     1      21.255  48.572  49.048  1.00  0.00     0.144 C 
BRANCH   9  10
HETATM   10  C   UNL     1      20.443  49.806  48.654  1.00  0.00    -0.041 A 
HETATM   11  C   UNL     1      19.815  49.814  47.392  1.00  0.00     0.008 A 
HETATM   12  C   UNL     1      19.050  50.903  46.970  1.00  0.00     0.001 A 
HETATM   13  C   UNL     1      18.902  52.008  47.801  1.00  0.00     0.000 A 
HETATM   14  C   UNL     1      19.525  52.027  49.046  1.00  0.00     0.001 A 
HETATM   15  C   UNL     1      20.294  50.939  49.470  1.00  0.00     0.008 A 
ENDBRANCH   9  10
BRANCH   9  16
HETATM   16  C   UNL     1      22.774  48.726  48.930  1.00  0.00    -0.041 A 
HETATM   17  C   UNL     1      23.289  49.760  48.128  1.00  0.00     0.008 A 
HETATM   18  C   UNL     1      24.664  49.975  48.039  1.00  0.00     0.001 A 
HETATM   19  C   UNL     1      25.544  49.166  48.751  1.00  0.00     0.000 A 
HETATM   20  C   UNL     1      25.050  48.140  49.553  1.00  0.00     0.001 A 
HETATM   21  C   UNL     1      23.675  47.920  49.646  1.00  0.00     0.008 A 
ENDBRANCH   9  16
ENDBRANCH   6   9
ENDBRANCH   3   5
ENDBRANCH   1   3
BRANCH   1  22
HETATM   22  C   UNL     1      22.796  44.332  48.621  1.00  0.00     0.034 A 
HETATM   23  C   UNL     1      22.524  44.065  49.958  1.00  0.00     0.031 A 
HETATM   24  C   UNL     1      23.569  43.844  50.875  1.00  0.00     0.026 A 
HETATM   25  C   UNL     1      24.910  43.867  50.478  1.00  0.00     0.010 A 
HETATM   26  C   UNL     1      25.170  44.151  49.133  1.00  0.00     0.026 A 
HETATM   27  C   UNL     1      24.137  44.390  48.222  1.00  0.00     0.031 A 
BRANCH  25  28
HETATM   28  N   UNL     1      25.990  43.641  51.336  1.00  0.00    -0.280 NA
HETATM   29  C   UNL     1      26.326  44.816  52.170  1.00  0.00     0.115 C 
HETATM   30  C   UNL     1      27.231  44.393  53.342  1.00  0.00     0.141 C 
HETATM   31  N   UNL     1      28.386  43.581  52.928  1.00  0.00    -0.345 N 
HETATM   32  C   UNL     1      29.596  43.504  53.631  1.00  0.00     0.260 C 
HETATM   33  C   UNL     1      28.099  42.525  51.945  1.00  0.00     0.141 C 
HETATM   34  O   UNL     1      30.505  42.776  53.235  1.00  0.00    -0.267 OA
HETATM   35  C   UNL     1      27.198  42.994  50.789  1.00  0.00     0.115 C 
BRANCH  32  36
HETATM   36  C   UNL     1      29.733  44.302  54.839  1.00  0.00     0.072 A 
HETATM   37  S   UNL     1      30.911  43.855  55.999  1.00  0.00    -0.097 SA
HETATM   38  C   UNL     1      30.471  45.143  57.036  1.00  0.00     0.050 A 
HETATM   39  C   UNL     1      29.430  45.886  56.527  1.00  0.00     0.009 A 
HETATM   40  C   UNL     1      28.992  45.391  55.263  1.00  0.00     0.025 A 
ENDBRANCH  32  36
ENDBRANCH  25  28
ENDBRANCH   1  22
TORSDOF 8
ENDMDL
MODEL 5
REMARK VINA RESULT:      -9.1      2.338      9.968
REMARK  8 active torsions:
REMARK  status: ('A' for Active; 'I' for Inactive)
REMARK    1  A    between atoms: C_4  and  C_5 
REMARK    2  A    between atoms: C_5  and  C_6 
REMARK    3  A    between atoms: C_5  and  C_31 
REMARK       I    between atoms: C_6  and  N_7 
REMARK    4  A    between atoms: N_7  and  C_8 
REMARK    5  A    between atoms: C_8  and  N_9 
REMARK    6  A    between atoms: N_9  and  C_10 
REMARK    7  A    between atoms: C_13  and  N_14 
REMARK       I    between atoms: N_17  and  C_18 
REMARK    8  A    between atoms: C_18  and  C_19 
ROOT
HETATM    1  N   UNL     1      21.063  44.610  47.522  1.00  0.00    -0.333 N 
HETATM    2  H   UNL     1      20.235  44.173  47.931  1.00  0.00     0.168 HD
ENDROOT
BRANCH   1   3
HETATM    3  C   UNL     1      20.762  45.382  46.425  1.00  0.00     0.178 C 
HETATM    4  S   UNL     1      20.176  44.942  44.927  1.00  0.00    -0.040 SA
BRANCH   3   5
HETATM    5  N   UNL     1      21.048  46.733  46.584  1.00  0.00    -0.303 N 
HETATM    6  C   UNL     1      20.702  47.588  47.626  1.00  0.00     0.236 C 
HETATM    7  O   UNL     1      19.828  47.303  48.450  1.00  0.00    -0.272 OA
HETATM    8  H   UNL     1      21.702  47.083  45.895  1.00  0.00     0.171 HD
BRANCH   6   9
HETATM    9  C   UNL     1      21.486  48.906  47.693  1.00  0.00     0.144 C 
BRANCH   9  10
HETATM   10  C   UNL     1      22.895  48.820  48.278  1.00  0.00    -0.041 A 
HETATM   11  C   UNL     1      23.833  49.803  47.901  1.00  0.00     0.008 A 
HETATM   12  C   UNL     1      25.135  49.792  48.404  1.00  0.00     0.001 A 
HETATM   13  C   UNL     1      25.527  48.795  49.290  1.00  0.00     0.000 A 
HETATM   14  C   UNL     1      24.622  47.806  49.664  1.00  0.00     0.001 A 
HETATM   15  C   UNL     1      23.317  47.813  49.160  1.00  0.00     0.008 A 
ENDBRANCH   9  10
BRANCH   9  16
HETATM   16  C   UNL     1      20.602  50.010  48.281  1.00  0.00    -0.041 A 
HETATM   17  C   UNL     1      20.703  50.298  49.654  1.00  0.00     0.008 A 
HETATM   18  C   UNL     1      19.963  51.334  50.222  1.00  0.00     0.001 A 
HETATM   19  C   UNL     1      19.116  52.102  49.427  1.00  0.00     0.000 A 
HETATM   20  C   UNL     1      19.007  51.833  48.065  1.00  0.00     0.001 A 
HETATM   21  C   UNL     1      19.746  50.797  47.492  1.00  0.00     0.008 A 
ENDBRANCH   9  16
ENDBRANCH   6   9
ENDBRANCH   3   5
ENDBRANCH   1   3
BRANCH   1  22
HETATM   22  C   UNL     1      22.246  44.349  48.242  1.00  0.00     0.034 A 
HETATM   23  C   UNL     1      23.539  44.334  47.729  1.00  0.00     0.031 A 
HETATM   24  C   UNL     1      24.642  44.084  48.566  1.00  0.00     0.026 A 
HETATM   25  C   UNL     1      24.485  43.860  49.938  1.00  0.00     0.010 A 
HETATM   26  C   UNL     1      23.179  43.864  50.439  1.00  0.00     0.026 A 
HETATM   27  C   UNL     1      22.078  44.092  49.608  1.00  0.00     0.031 A 
BRANCH  25  28
HETATM   28  N   UNL     1      25.541  43.622  50.823  1.00  0.00    -0.280 NA
HETATM   29  C   UNL     1      25.934  44.823  51.594  1.00  0.00     0.115 C 
HETATM   30  C   UNL     1      26.801  44.417  52.801  1.00  0.00     0.141 C 
HETATM   31  N   UNL     1      27.913  43.519  52.450  1.00  0.00    -0.345 N 
HETATM   32  C   UNL     1      29.108  43.415  53.173  1.00  0.00     0.260 C 
HETATM   33  C   UNL     1      27.577  42.426  51.524  1.00  0.00     0.141 C 
HETATM   34  O   UNL     1      29.979  42.615  52.832  1.00  0.00    -0.267 OA
HETATM   35  C   UNL     1      26.717  42.878  50.331  1.00  0.00     0.115 C 
BRANCH  32  36
HETATM   36  C   UNL     1      29.277  44.271  54.336  1.00  0.00     0.072 A 
HETATM   37  S   UNL     1      30.510  43.902  55.466  1.00  0.00    -0.097 SA
HETATM   38  C   UNL     1      30.086  45.228  56.460  1.00  0.00     0.050 A 
HETATM   39  C   UNL     1      29.010  45.927  55.959  1.00  0.00     0.009 A 
HETATM   40  C   UNL     1      28.532  45.365  54.738  1.00  0.00     0.025 A 
ENDBRANCH  32  36
ENDBRANCH  25  28
ENDBRANCH   1  22
TORSDOF 8
ENDMDL
MODEL 6
REMARK VINA RESULT:      -8.9      3.743     12.408
REMARK  8 active torsions:
REMARK  status: ('A' for Active; 'I' for Inactive)
REMARK    1  A    between atoms: C_4  and  C_5 
REMARK    2  A    between atoms: C_5  and  C_6 
REMARK    3  A    between atoms: C_5  and  C_31 
REMARK       I    between atoms: C_6  and  N_7 
REMARK    4  A    between atoms: N_7  and  C_8 
REMARK    5  A    between atoms: C_8  and  N_9 
REMARK    6  A    between atoms: N_9  and  C_10 
REMARK    7  A    between atoms: C_13  and  N_14 
REMARK       I    between atoms: N_17  and  C_18 
REMARK    8  A    between atoms: C_18  and  C_19 
ROOT
HETATM    1  N   UNL     1      17.336  47.938  45.720  1.00  0.00    -0.333 N 
HETATM    2  H   UNL     1      16.783  47.114  45.477  1.00  0.00     0.168 HD
ENDROOT
BRANCH   1   3
HETATM    3  C   UNL     1      16.721  49.111  45.352  1.00  0.00     0.178 C 
HETATM    4  S   UNL     1      16.278  49.667  43.843  1.00  0.00    -0.040 SA
BRANCH   3   5
HETATM    5  N   UNL     1      16.486  49.986  46.406  1.00  0.00    -0.303 N 
HETATM    6  C   UNL     1      15.865  49.743  47.627  1.00  0.00     0.236 C 
HETATM    7  O   UNL     1      15.174  48.740  47.828  1.00  0.00    -0.272 OA
HETATM    8  H   UNL     1      16.951  50.878  46.291  1.00  0.00     0.171 HD
BRANCH   6   9
HETATM    9  C   UNL     1      16.103  50.799  48.715  1.00  0.00     0.144 C 
BRANCH   9  10
HETATM   10  C   UNL     1      15.369  52.128  48.533  1.00  0.00    -0.041 A 
HETATM   11  C   UNL     1      14.968  52.830  49.687  1.00  0.00     0.008 A 
HETATM   12  C   UNL     1      14.303  54.054  49.596  1.00  0.00     0.001 A 
HETATM   13  C   UNL     1      14.021  54.598  48.348  1.00  0.00     0.000 A 
HETATM   14  C   UNL     1      14.396  53.914  47.194  1.00  0.00     0.001 A 
HETATM   15  C   UNL     1      15.060  52.687  47.283  1.00  0.00     0.008 A 
ENDBRANCH   9  10
BRANCH   9  16
HETATM   16  C   UNL     1      17.601  50.917  49.010  1.00  0.00    -0.041 A 
HETATM   17  C   UNL     1      18.340  51.926  48.367  1.00  0.00     0.008 A 
HETATM   18  C   UNL     1      19.693  52.109  48.650  1.00  0.00     0.001 A 
HETATM   19  C   UNL     1      20.327  51.293  49.582  1.00  0.00     0.000 A 
HETATM   20  C   UNL     1      19.609  50.292  50.231  1.00  0.00     0.001 A 
HETATM   21  C   UNL     1      18.254  50.104  49.952  1.00  0.00     0.008 A 
ENDBRANCH   9  16
ENDBRANCH   6   9
ENDBRANCH   3   5
ENDBRANCH   1   3
BRANCH   1  22
HETATM   22  C   UNL     1      18.523  47.630  46.416  1.00  0.00     0.034 A 
HETATM   23  C   UNL     1      18.880  46.389  46.931  1.00  0.00     0.031 A 
HETATM   24  C   UNL     1      20.113  46.209  47.586  1.00  0.00     0.026 A 
HETATM   25  C   UNL     1      21.026  47.259  47.729  1.00  0.00     0.010 A 
HETATM   26  C   UNL     1      20.648  48.506  47.220  1.00  0.00     0.026 A 
HETATM   27  C   UNL     1      19.417  48.694  46.585  1.00  0.00     0.031 A 
BRANCH  25  28
HETATM   28  N   UNL     1      22.271  47.140  48.354  1.00  0.00    -0.280 NA
HETATM   29  C   UNL     1      22.450  45.847  49.052  1.00  0.00     0.115 C 
HETATM   30  C   UNL     1      23.939  45.617  49.368  1.00  0.00     0.141 C 
HETATM   31  N   UNL     1      24.584  46.765  50.025  1.00  0.00    -0.345 N 
HETATM   32  C   UNL     1      25.701  46.675  50.866  1.00  0.00     0.260 C 
HETATM   33  C   UNL     1      24.260  48.084  49.459  1.00  0.00     0.141 C 
HETATM   34  O   UNL     1      26.202  47.688  51.354  1.00  0.00    -0.267 OA
HETATM   35  C   UNL     1      22.761  48.271  49.165  1.00  0.00     0.115 C 
BRANCH  32  36
HETATM   36  C   UNL     1      26.248  45.354  51.132  1.00  0.00     0.072 A 
HETATM   37  S   UNL     1      25.748  44.517  52.540  1.00  0.00    -0.097 SA
HETATM   38  C   UNL     1      26.760  43.184  52.185  1.00  0.00     0.050 A 
HETATM   39  C   UNL     1      27.486  43.378  51.031  1.00  0.00     0.009 A 
HETATM   40  C   UNL     1      27.202  44.640  50.429  1.00  0.00     0.025 A 
ENDBRANCH  32  36
ENDBRANCH  25  28
ENDBRANCH   1  22
TORSDOF 8
ENDMDL
MODEL 7
REMARK VINA RESULT:      -8.8      2.539      4.165
REMARK  8 active torsions:
REMARK  status: ('A' for Active; 'I' for Inactive)
REMARK    1  A    between atoms: C_4  and  C_5 
REMARK    2  A    between atoms: C_5  and  C_6 
REMARK    3  A    between atoms: C_5  and  C_31 
REMARK       I    between atoms: C_6  and  N_7 
REMARK    4  A    between atoms: N_7  and  C_8 
REMARK    5  A    between atoms: C_8  and  N_9 
REMARK    6  A    between atoms: N_9  and  C_10 
REMARK    7  A    between atoms: C_13  and  N_14 
REMARK       I    between atoms: N_17  and  C_18 
REMARK    8  A    between atoms: C_18  and  C_19 
ROOT
HETATM    1  N   UNL     1      24.613  41.596  47.952  1.00  0.00    -0.333 N 
HETATM    2  H   UNL     1      24.285  40.739  47.503  1.00  0.00     0.168 HD
ENDROOT
BRANCH   1   3
HETATM    3  C   UNL     1      25.958  41.562  48.231  1.00  0.00     0.178 C 
HETATM    4  S   UNL     1      27.103  40.400  47.878  1.00  0.00    -0.040 SA
BRANCH   3   5
HETATM    5  N   UNL     1      26.414  42.644  48.974  1.00  0.00    -0.303 N 
HETATM    6  C   UNL     1      26.650  42.732  50.344  1.00  0.00     0.236 C 
HETATM    7  O   UNL     1      26.210  41.902  51.144  1.00  0.00    -0.272 OA
HETATM    8  H   UNL     1      26.724  43.417  48.399  1.00  0.00     0.171 HD
BRANCH   6   9
HETATM    9  C   UNL     1      27.505  43.925  50.794  1.00  0.00     0.144 C 
BRANCH   9  10
HETATM   10  C   UNL     1      28.194  43.782  52.151  1.00  0.00    -0.041 A 
HETATM   11  C   UNL     1      29.343  42.969  52.231  1.00  0.00     0.008 A 
HETATM   12  C   UNL     1      30.029  42.800  53.434  1.00  0.00     0.001 A 
HETATM   13  C   UNL     1      29.578  43.439  54.584  1.00  0.00     0.000 A 
HETATM   14  C   UNL     1      28.438  44.236  54.531  1.00  0.00     0.001 A 
HETATM   15  C   UNL     1      27.747  44.404  53.327  1.00  0.00     0.008 A 
ENDBRANCH   9  10
BRANCH   9  16
HETATM   16  C   UNL     1      26.728  45.230  50.592  1.00  0.00    -0.041 A 
HETATM   17  C   UNL     1      27.310  46.250  49.818  1.00  0.00     0.008 A 
HETATM   18  C   UNL     1      26.614  47.431  49.557  1.00  0.00     0.001 A 
HETATM   19  C   UNL     1      25.329  47.608  50.059  1.00  0.00     0.000 A 
HETATM   20  C   UNL     1      24.737  46.606  50.824  1.00  0.00     0.001 A 
HETATM   21  C   UNL     1      25.428  45.422  51.088  1.00  0.00     0.008 A 
ENDBRANCH   9  16
ENDBRANCH   6   9
ENDBRANCH   3   5
ENDBRANCH   1   3
BRANCH   1  22
HETATM   22  C   UNL     1      23.609  42.577  48.085  1.00  0.00     0.034 A 
HETATM   23  C   UNL     1      23.094  43.075  49.277  1.00  0.00     0.031 A 
HETATM   24  C   UNL     1      22.107  44.078  49.270  1.00  0.00     0.026 A 
HETATM   25  C   UNL     1      21.621  44.621  48.076  1.00  0.00     0.010 A 
HETATM   26  C   UNL     1      22.137  44.100  46.884  1.00  0.00     0.026 A 
HETATM   27  C   UNL     1      23.103  43.091  46.885  1.00  0.00     0.031 A 
BRANCH  25  28
HETATM   28  N   UNL     1      20.654  45.628  48.004  1.00  0.00    -0.280 NA
HETATM   29  C   UNL     1      21.015  46.836  48.780  1.00  0.00     0.115 C 
HETATM   30  C   UNL     1      20.134  48.023  48.350  1.00  0.00     0.141 C 
HETATM   31  N   UNL     1      18.696  47.711  48.330  1.00  0.00    -0.345 N 
HETATM   32  C   UNL     1      17.675  48.656  48.497  1.00  0.00     0.260 C 
HETATM   33  C   UNL     1      18.337  46.416  47.732  1.00  0.00     0.141 C 
HETATM   34  O   UNL     1      16.493  48.319  48.436  1.00  0.00    -0.267 OA
HETATM   35  C   UNL     1      19.238  45.258  48.194  1.00  0.00     0.115 C 
BRANCH  32  36
HETATM   36  C   UNL     1      18.060  50.039  48.733  1.00  0.00     0.072 A 
HETATM   37  S   UNL     1      18.342  51.062  47.389  1.00  0.00    -0.097 SA
HETATM   38  C   UNL     1      18.737  52.386  48.399  1.00  0.00     0.050 A 
HETATM   39  C   UNL     1      18.683  52.053  49.733  1.00  0.00     0.009 A 
HETATM   40  C   UNL     1      18.306  50.692  49.928  1.00  0.00     0.025 A 
ENDBRANCH  32  36
ENDBRANCH  25  28
ENDBRANCH   1  22
TORSDOF 8
ENDMDL
MODEL 8
REMARK VINA RESULT:      -8.8      3.578      5.868
REMARK  8 active torsions:
REMARK  status: ('A' for Active; 'I' for Inactive)
REMARK    1  A    between atoms: C_4  and  C_5 
REMARK    2  A    between atoms: C_5  and  C_6 
REMARK    3  A    between atoms: C_5  and  C_31 
REMARK       I    between atoms: C_6  and  N_7 
REMARK    4  A    between atoms: N_7  and  C_8 
REMARK    5  A    between atoms: C_8  and  N_9 
REMARK    6  A    between atoms: N_9  and  C_10 
REMARK    7  A    between atoms: C_13  and  N_14 
REMARK       I    between atoms: N_17  and  C_18 
REMARK    8  A    between atoms: C_18  and  C_19 
ROOT
HETATM    1  N   UNL     1      24.309  47.640  49.416  1.00  0.00    -0.333 N 
HETATM    2  H   UNL     1      24.084  46.675  49.169  1.00  0.00     0.168 HD
ENDROOT
BRANCH   1   3
HETATM    3  C   UNL     1      25.618  47.792  49.806  1.00  0.00     0.178 C 
HETATM    4  S   UNL     1      26.794  48.835  49.247  1.00  0.00    -0.040 SA
BRANCH   3   5
HETATM    5  N   UNL     1      26.031  46.891  50.780  1.00  0.00    -0.303 N 
HETATM    6  C   UNL     1      25.616  46.779  52.105  1.00  0.00     0.236 C 
HETATM    7  O   UNL     1      24.997  47.678  52.680  1.00  0.00    -0.272 OA
HETATM    8  H   UNL     1      26.619  46.153  50.414  1.00  0.00     0.171 HD
BRANCH   6   9
HETATM    9  C   UNL     1      25.970  45.458  52.802  1.00  0.00     0.144 C 
BRANCH   9  10
HETATM   10  C   UNL     1      27.151  45.505  53.771  1.00  0.00    -0.041 A 
HETATM   11  C   UNL     1      27.849  44.308  54.029  1.00  0.00     0.008 A 
HETATM   12  C   UNL     1      28.943  44.279  54.894  1.00  0.00     0.001 A 
HETATM   13  C   UNL     1      29.359  45.447  55.523  1.00  0.00     0.000 A 
HETATM   14  C   UNL     1      28.677  46.638  55.294  1.00  0.00     0.001 A 
HETATM   15  C   UNL     1      27.578  46.669  54.429  1.00  0.00     0.008 A 
ENDBRANCH   9  10
BRANCH   9  16
HETATM   16  C   UNL     1      26.014  44.322  51.776  1.00  0.00    -0.041 A 
HETATM   17  C   UNL     1      24.862  43.538  51.584  1.00  0.00     0.008 A 
HETATM   18  C   UNL     1      24.836  42.532  50.618  1.00  0.00     0.001 A 
HETATM   19  C   UNL     1      25.956  42.298  49.827  1.00  0.00     0.000 A 
HETATM   20  C   UNL     1      27.104  43.067  50.000  1.00  0.00     0.001 A 
HETATM   21  C   UNL     1      27.135  44.075  50.965  1.00  0.00     0.008 A 
ENDBRANCH   9  16
ENDBRANCH   6   9
ENDBRANCH   3   5
ENDBRANCH   1   3
BRANCH   1  22
HETATM   22  C   UNL     1      23.236  48.533  49.218  1.00  0.00     0.034 A 
HETATM   23  C   UNL     1      23.295  49.921  49.274  1.00  0.00     0.031 A 
HETATM   24  C   UNL     1      22.148  50.700  49.029  1.00  0.00     0.026 A 
HETATM   25  C   UNL     1      20.920  50.115  48.706  1.00  0.00     0.010 A 
HETATM   26  C   UNL     1      20.871  48.717  48.667  1.00  0.00     0.026 A 
HETATM   27  C   UNL     1      22.002  47.939  48.928  1.00  0.00     0.031 A 
BRANCH  25  28
HETATM   28  N   UNL     1      19.751  50.834  48.436  1.00  0.00    -0.280 NA
HETATM   29  C   UNL     1      18.826  50.893  49.590  1.00  0.00     0.115 C 
HETATM   30  C   UNL     1      17.778  52.000  49.373  1.00  0.00     0.141 C 
HETATM   31  N   UNL     1      17.120  51.935  48.058  1.00  0.00    -0.345 N 
HETATM   32  C   UNL     1      15.837  52.429  47.787  1.00  0.00     0.260 C 
HETATM   33  C   UNL     1      18.010  51.682  46.915  1.00  0.00     0.141 C 
HETATM   34  O   UNL     1      15.367  52.365  46.651  1.00  0.00    -0.267 OA
HETATM   35  C   UNL     1      19.035  50.564  47.174  1.00  0.00     0.115 C 
BRANCH  32  36
HETATM   36  C   UNL     1      15.091  53.024  48.884  1.00  0.00     0.072 A 
HETATM   37  S   UNL     1      14.387  54.570  48.667  1.00  0.00    -0.097 SA
HETATM   38  C   UNL     1      13.768  54.584  50.262  1.00  0.00     0.050 A 
HETATM   39  C   UNL     1      14.110  53.447  50.960  1.00  0.00     0.009 A 
HETATM   40  C   UNL     1      14.888  52.551  50.169  1.00  0.00     0.025 A 
ENDBRANCH  32  36
ENDBRANCH  25  28
ENDBRANCH   1  22
TORSDOF 8
ENDMDL
MODEL 9
REMARK VINA RESULT:      -8.8      4.014     12.137
REMARK  8 active torsions:
REMARK  status: ('A' for Active; 'I' for Inactive)
REMARK    1  A    between atoms: C_4  and  C_5 
REMARK    2  A    between atoms: C_5  and  C_6 
REMARK    3  A    between atoms: C_5  and  C_31 
REMARK       I    between atoms: C_6  and  N_7 
REMARK    4  A    between atoms: N_7  and  C_8 
REMARK    5  A    between atoms: C_8  and  N_9 
REMARK    6  A    between atoms: N_9  and  C_10 
REMARK    7  A    between atoms: C_13  and  N_14 
REMARK       I    between atoms: N_17  and  C_18 
REMARK    8  A    between atoms: C_18  and  C_19 
ROOT
HETATM    1  N   UNL     1      16.328  47.021  46.192  1.00  0.00    -0.333 N 
HETATM    2  H   UNL     1      15.840  46.142  46.373  1.00  0.00     0.168 HD
ENDROOT
BRANCH   1   3
HETATM    3  C   UNL     1      15.492  47.994  45.699  1.00  0.00     0.178 C 
HETATM    4  S   UNL     1      14.192  47.872  44.660  1.00  0.00    -0.040 SA
BRANCH   3   5
HETATM    5  N   UNL     1      15.827  49.285  46.089  1.00  0.00    -0.303 N 
HETATM    6  C   UNL     1      15.802  49.852  47.360  1.00  0.00     0.236 C 
HETATM    7  O   UNL     1      15.196  49.334  48.302  1.00  0.00    -0.272 OA
HETATM    8  H   UNL     1      16.262  49.822  45.350  1.00  0.00     0.171 HD
BRANCH   6   9
HETATM    9  C   UNL     1      16.587  51.162  47.519  1.00  0.00     0.144 C 
BRANCH   9  10
HETATM   10  C   UNL     1      17.860  51.083  48.362  1.00  0.00    -0.041 A 
HETATM   11  C   UNL     1      18.985  51.820  47.939  1.00  0.00     0.008 A 
HETATM   12  C   UNL     1      20.177  51.804  48.664  1.00  0.00     0.001 A 
HETATM   13  C   UNL     1      20.270  51.045  49.825  1.00  0.00     0.000 A 
HETATM   14  C   UNL     1      19.176  50.298  50.254  1.00  0.00     0.001 A 
HETATM   15  C   UNL     1      17.981  50.311  49.527  1.00  0.00     0.008 A 
ENDBRANCH   9  10
BRANCH   9  16
HETATM   16  C   UNL     1      15.633  52.302  47.885  1.00  0.00    -0.041 A 
HETATM   17  C   UNL     1      15.011  53.023  46.849  1.00  0.00     0.008 A 
HETATM   18  C   UNL     1      14.089  54.029  47.135  1.00  0.00     0.001 A 
HETATM   19  C   UNL     1      13.770  54.327  48.456  1.00  0.00     0.000 A 
HETATM   20  C   UNL     1      14.373  53.620  49.493  1.00  0.00     0.001 A 
HETATM   21  C   UNL     1      15.297  52.612  49.213  1.00  0.00     0.008 A 
ENDBRANCH   9  16
ENDBRANCH   6   9
ENDBRANCH   3   5
ENDBRANCH   1   3
BRANCH   1  22
HETATM   22  C   UNL     1      17.687  46.994  46.567  1.00  0.00     0.034 A 
HETATM   23  C   UNL     1      18.780  47.112  45.716  1.00  0.00     0.031 A 
HETATM   24  C   UNL     1      20.093  47.095  46.224  1.00  0.00     0.026 A 
HETATM   25  C   UNL     1      20.346  46.978  47.595  1.00  0.00     0.010 A 
HETATM   26  C   UNL     1      19.238  46.845  48.438  1.00  0.00     0.026 A 
HETATM   27  C   UNL     1      17.934  46.842  47.936  1.00  0.00     0.031 A 
BRANCH  25  28
HETATM   28  N   UNL     1      21.625  46.971  48.162  1.00  0.00    -0.280 NA
HETATM   29  C   UNL     1      21.964  45.686  48.813  1.00  0.00     0.115 C 
HETATM   30  C   UNL     1      23.483  45.602  49.057  1.00  0.00     0.141 C 
HETATM   31  N   UNL     1      24.038  46.793  49.718  1.00  0.00    -0.345 N 
HETATM   32  C   UNL     1      25.196  46.797  50.507  1.00  0.00     0.260 C 
HETATM   33  C   UNL     1      23.557  48.085  49.206  1.00  0.00     0.141 C 
HETATM   34  O   UNL     1      25.614  47.843  51.002  1.00  0.00    -0.267 OA
HETATM   35  C   UNL     1      22.035  48.126  48.983  1.00  0.00     0.115 C 
BRANCH  32  36
HETATM   36  C   UNL     1      25.885  45.533  50.710  1.00  0.00     0.072 A 
HETATM   37  S   UNL     1      25.472  44.571  52.066  1.00  0.00    -0.097 SA
HETATM   38  C   UNL     1      26.628  43.379  51.655  1.00  0.00     0.050 A 
HETATM   39  C   UNL     1      27.337  43.715  50.523  1.00  0.00     0.009 A 
HETATM   40  C   UNL     1      26.918  44.967  49.984  1.00  0.00     0.025 A 
ENDBRANCH  32  36
ENDBRANCH  25  28
ENDBRANCH   1  22
TORSDOF 8
ENDMDL
MODEL 10
REMARK VINA RESULT:      -8.7      6.393     10.750
REMARK  8 active torsions:
REMARK  status: ('A' for Active; 'I' for Inactive)
REMARK    1  A    between atoms: C_4  and  C_5 
REMARK    2  A    between atoms: C_5  and  C_6 
REMARK    3  A    between atoms: C_5  and  C_31 
REMARK       I    between atoms: C_6  and  N_7 
REMARK    4  A    between atoms: N_7  and  C_8 
REMARK    5  A    between atoms: C_8  and  N_9 
REMARK    6  A    between atoms: N_9  and  C_10 
REMARK    7  A    between atoms: C_13  and  N_14 
REMARK       I    between atoms: N_17  and  C_18 
REMARK    8  A    between atoms: C_18  and  C_19 
ROOT
HETATM    1  N   UNL     1      18.120  46.844  46.686  1.00  0.00    -0.333 N 
HETATM    2  H   UNL     1      17.569  46.311  46.011  1.00  0.00     0.168 HD
ENDROOT
BRANCH   1   3
HETATM    3  C   UNL     1      19.198  46.136  47.160  1.00  0.00     0.178 C 
HETATM    4  S   UNL     1      19.667  44.562  46.866  1.00  0.00    -0.040 SA
BRANCH   3   5
HETATM    5  N   UNL     1      19.983  46.834  48.070  1.00  0.00    -0.303 N 
HETATM    6  C   UNL     1      21.204  47.471  47.869  1.00  0.00     0.236 C 
HETATM    7  O   UNL     1      21.904  47.257  46.876  1.00  0.00    -0.272 OA
HETATM    8  H   UNL     1      19.518  46.989  48.956  1.00  0.00     0.171 HD
BRANCH   6   9
HETATM    9  C   UNL     1      21.621  48.467  48.960  1.00  0.00     0.144 C 
BRANCH   9  10
HETATM   10  C   UNL     1      20.762  49.726  49.083  1.00  0.00    -0.041 A 
HETATM   11  C   UNL     1      19.752  49.749  50.066  1.00  0.00     0.008 A 
HETATM   12  C   UNL     1      18.937  50.868  50.241  1.00  0.00     0.001 A 
HETATM   13  C   UNL     1      19.113  51.986  49.433  1.00  0.00     0.000 A 
HETATM   14  C   UNL     1      20.095  51.980  48.447  1.00  0.00     0.001 A 
HETATM   15  C   UNL     1      20.912  50.858  48.267  1.00  0.00     0.008 A 
ENDBRANCH   9  10
BRANCH   9  16
HETATM   16  C   UNL     1      23.131  48.712  48.895  1.00  0.00    -0.041 A 
HETATM   17  C   UNL     1      23.608  49.801  48.143  1.00  0.00     0.008 A 
HETATM   18  C   UNL     1      24.970  50.098  48.103  1.00  0.00     0.001 A 
HETATM   19  C   UNL     1      25.875  49.317  48.818  1.00  0.00     0.000 A 
HETATM   20  C   UNL     1      25.419  48.238  49.571  1.00  0.00     0.001 A 
HETATM   21  C   UNL     1      24.056  47.936  49.614  1.00  0.00     0.008 A 
ENDBRANCH   9  16
ENDBRANCH   6   9
ENDBRANCH   3   5
ENDBRANCH   1   3
BRANCH   1  22
HETATM   22  C   UNL     1      17.652  48.160  46.874  1.00  0.00     0.034 A 
HETATM   23  C   UNL     1      18.069  49.292  46.181  1.00  0.00     0.031 A 
HETATM   24  C   UNL     1      17.498  50.550  46.450  1.00  0.00     0.026 A 
HETATM   25  C   UNL     1      16.488  50.708  47.404  1.00  0.00     0.010 A 
HETATM   26  C   UNL     1      16.088  49.565  48.104  1.00  0.00     0.026 A 
HETATM   27  C   UNL     1      16.665  48.316  47.854  1.00  0.00     0.031 A 
BRANCH  25  28
HETATM   28  N   UNL     1      15.872  51.927  47.705  1.00  0.00    -0.280 NA
HETATM   29  C   UNL     1      15.422  52.019  49.112  1.00  0.00     0.115 C 
HETATM   30  C   UNL     1      15.125  53.485  49.478  1.00  0.00     0.141 C 
HETATM   31  N   UNL     1      14.256  54.169  48.507  1.00  0.00    -0.345 N 
HETATM   32  C   UNL     1      13.425  55.255  48.811  1.00  0.00     0.260 C 
HETATM   33  C   UNL     1      14.574  53.929  47.091  1.00  0.00     0.141 C 
HETATM   34  O   UNL     1      12.749  55.793  47.934  1.00  0.00    -0.267 OA
HETATM   35  C   UNL     1      14.857  52.451  46.770  1.00  0.00     0.115 C 
BRANCH  32  36
HETATM   36  C   UNL     1      13.397  55.726  50.187  1.00  0.00     0.072 A 
HETATM   37  S   UNL     1      14.786  56.493  50.830  1.00  0.00    -0.097 SA
HETATM   38  C   UNL     1      14.042  56.708  52.355  1.00  0.00     0.050 A 
HETATM   39  C   UNL     1      12.769  56.184  52.388  1.00  0.00     0.009 A 
HETATM   40  C   UNL     1      12.400  55.602  51.139  1.00  0.00     0.025 A 
ENDBRANCH  32  36
ENDBRANCH  25  28
ENDBRANCH   1  22
TORSDOF 8
ENDMDL
