MODEL 1
REMARK VINA RESULT:     -10.2      0.000      0.000
REMARK  4 active torsions:
REMARK  status: ('A' for Active; 'I' for Inactive)
REMARK    1  A    between atoms: C_6  and  C_7 
REMARK    2  A    between atoms: C_8  and  C_9 
REMARK       I    between atoms: C_9  and  N_10 
REMARK    3  A    between atoms: N_10  and  C_11 
REMARK    4  A    between atoms: C_18  and  C_19 
REMARK       I    between atoms: C_19  and  N_20 
ROOT
HETATM    1  C   UNL     1      25.812  47.444  50.658  1.00  0.00     0.035 A 
HETATM    2  C   UNL     1      24.511  47.644  50.181  1.00  0.00     0.046 A 
HETATM    3  C   UNL     1      24.284  48.577  49.145  1.00  0.00     0.030 A 
HETATM    4  C   UNL     1      25.366  49.274  48.621  1.00  0.00     0.063 A 
HETATM    5  N   UNL     1      24.841  50.088  47.656  1.00  0.00    -0.277 N 
HETATM    6  H   UNL     1      25.343  50.742  47.066  1.00  0.00     0.189 HD
HETATM    7  N   UNL     1      23.512  49.984  47.502  1.00  0.00    -0.168 NA
HETATM    8  C   UNL     1      23.151  49.053  48.415  1.00  0.00     0.156 A 
HETATM    9  C   UNL     1      26.676  49.095  49.066  1.00  0.00     0.034 A 
HETATM   10  C   UNL     1      26.875  48.166  50.094  1.00  0.00     0.032 A 
ENDROOT
BRANCH   1  11
HETATM   11  N   UNL     1      26.143  46.548  51.698  1.00  0.00    -0.327 N 
HETATM   12  C   UNL     1      26.040  46.759  53.058  1.00  0.00     0.227 C 
HETATM   13  O   UNL     1      25.626  47.765  53.615  1.00  0.00    -0.273 OA
HETATM   14  H   UNL     1      26.532  45.666  51.406  1.00  0.00     0.169 HD
BRANCH  12  15
HETATM   15  C   UNL     1      26.519  45.642  53.929  1.00  0.00     0.087 A 
HETATM   16  C   UNL     1      27.749  44.854  53.502  1.00  0.00     0.032 A 
HETATM   17  C   UNL     1      26.408  44.170  53.633  1.00  0.00     0.025 A 
BRANCH  16  18
HETATM   18  C   UNL     1      28.846  44.578  54.501  1.00  0.00    -0.051 A 
HETATM   19  C   UNL     1      29.044  45.413  55.614  1.00  0.00     0.031 A 
HETATM   20  C   UNL     1      30.041  45.139  56.552  1.00  0.00     0.034 A 
HETATM   21  C   UNL     1      30.862  44.024  56.406  1.00  0.00     0.024 A 
HETATM   22 CL   UNL     1      30.251  46.184  57.903  1.00  0.00    -0.084 Cl
HETATM   23  C   UNL     1      30.680  43.179  55.316  1.00  0.00     0.002 A 
HETATM   24  C   UNL     1      29.680  43.453  54.378  1.00  0.00     0.007 A 
ENDBRANCH  16  18
ENDBRANCH  12  15
ENDBRANCH   1  11
BRANCH   8  25
HETATM   25  C   UNL     1      21.748  48.643  48.569  1.00  0.00     0.270 C 
HETATM   26  N   UNL     1      21.123  49.194  49.655  1.00  0.00    -0.365 N 
HETATM   27  H   UNL     1      21.649  49.821  50.251  1.00  0.00     0.159 HD
HETATM   28  H   UNL     1      20.158  48.972  49.840  1.00  0.00     0.159 HD
HETATM   29  O   UNL     1      21.155  47.881  47.815  1.00  0.00    -0.266 OA
ENDBRANCH   8  25
TORSDOF 4
ENDMDL
MODEL 2
REMARK VINA RESULT:      -9.6      2.485      3.482
REMARK  4 active torsions:
REMARK  status: ('A' for Active; 'I' for Inactive)
REMARK    1  A    between atoms: C_6  and  C_7 
REMARK    2  A    between atoms: C_8  and  C_9 
REMARK       I    between atoms: C_9  and  N_10 
REMARK    3  A    between atoms: N_10  and  C_11 
REMARK    4  A    between atoms: C_18  and  C_19 
REMARK       I    between atoms: C_19  and  N_20 
ROOT
HETATM    1  C   UNL     1      25.324  43.698  51.356  1.00  0.00     0.035 A 
HETATM    2  C   UNL     1      25.127  45.037  50.999  1.00  0.00     0.046 A 
HETATM    3  C   UNL     1      24.088  45.375  50.103  1.00  0.00     0.030 A 
HETATM    4  C   UNL     1      23.282  44.362  49.599  1.00  0.00     0.063 A 
HETATM    5  N   UNL     1      22.388  44.986  48.773  1.00  0.00    -0.277 N 
HETATM    6  H   UNL     1      21.648  44.553  48.232  1.00  0.00     0.189 HD
HETATM    7  N   UNL     1      22.537  46.317  48.696  1.00  0.00    -0.168 NA
HETATM    8  C   UNL     1      23.584  46.575  49.513  1.00  0.00     0.156 A 
HETATM    9  C   UNL     1      23.444  43.018  49.937  1.00  0.00     0.034 A 
HETATM   10  C   UNL     1      24.481  42.710  50.826  1.00  0.00     0.032 A 
ENDROOT
BRANCH   1  11
HETATM   11  N   UNL     1      26.341  43.254  52.229  1.00  0.00    -0.327 N 
HETATM   12  C   UNL     1      26.647  43.740  53.483  1.00  0.00     0.227 C 
HETATM   13  O   UNL     1      26.078  44.643  54.080  1.00  0.00    -0.273 OA
HETATM   14  H   UNL     1      26.931  42.519  51.873  1.00  0.00     0.169 HD
BRANCH  12  15
HETATM   15  C   UNL     1      27.821  43.106  54.160  1.00  0.00     0.087 A 
HETATM   16  C   UNL     1      29.168  43.813  54.108  1.00  0.00     0.032 A 
HETATM   17  C   UNL     1      28.994  42.449  53.481  1.00  0.00     0.025 A 
BRANCH  16  18
HETATM   18  C   UNL     1      29.978  43.974  55.371  1.00  0.00    -0.051 A 
HETATM   19  C   UNL     1      29.794  45.080  56.218  1.00  0.00     0.031 A 
HETATM   20  C   UNL     1      30.526  45.210  57.400  1.00  0.00     0.034 A 
HETATM   21  C   UNL     1      31.454  44.241  57.769  1.00  0.00     0.024 A 
HETATM   22 CL   UNL     1      30.271  46.578  58.413  1.00  0.00    -0.084 Cl
HETATM   23  C   UNL     1      31.648  43.133  56.949  1.00  0.00     0.002 A 
HETATM   24  C   UNL     1      30.914  43.002  55.766  1.00  0.00     0.007 A 
ENDBRANCH  16  18
ENDBRANCH  12  15
ENDBRANCH   1  11
BRANCH   8  25
HETATM   25  C   UNL     1      24.075  47.946  49.708  1.00  0.00     0.270 C 
HETATM   26  N   UNL     1      23.093  48.899  49.677  1.00  0.00    -0.365 N 
HETATM   27  H   UNL     1      22.136  48.605  49.529  1.00  0.00     0.159 HD
HETATM   28  H   UNL     1      23.336  49.868  49.803  1.00  0.00     0.159 HD
HETATM   29  O   UNL     1      25.249  48.251  49.886  1.00  0.00    -0.266 OA
ENDBRANCH   8  25
TORSDOF 4
ENDMDL
MODEL 3
REMARK VINA RESULT:      -9.5      2.330      3.152
REMARK  4 active torsions:
REMARK  status: ('A' for Active; 'I' for Inactive)
REMARK    1  A    between atoms: C_6  and  C_7 
REMARK    2  A    between atoms: C_8  and  C_9 
REMARK       I    between atoms: C_9  and  N_10 
REMARK    3  A    between atoms: N_10  and  C_11 
REMARK    4  A    between atoms: C_18  and  C_19 
REMARK       I    between atoms: C_19  and  N_20 
ROOT
HETATM    1  C   UNL     1      24.559  45.220  50.872  1.00  0.00     0.035 A 
HETATM    2  C   UNL     1      24.592  46.555  50.448  1.00  0.00     0.046 A 
HETATM    3  C   UNL     1      23.745  46.975  49.397  1.00  0.00     0.030 A 
HETATM    4  C   UNL     1      22.894  46.046  48.810  1.00  0.00     0.063 A 
HETATM    5  N   UNL     1      22.217  46.735  47.842  1.00  0.00    -0.277 N 
HETATM    6  H   UNL     1      21.513  46.371  47.211  1.00  0.00     0.189 HD
HETATM    7  N   UNL     1      22.549  48.031  47.746  1.00  0.00    -0.168 NA
HETATM    8  C   UNL     1      23.493  48.197  48.702  1.00  0.00     0.156 A 
HETATM    9  C   UNL     1      22.829  44.711  49.211  1.00  0.00     0.034 A 
HETATM   10  C   UNL     1      23.678  44.320  50.253  1.00  0.00     0.032 A 
ENDROOT
BRANCH   1  11
HETATM   11  N   UNL     1      25.373  44.698  51.900  1.00  0.00    -0.327 N 
HETATM   12  C   UNL     1      26.405  43.791  51.779  1.00  0.00     0.227 C 
HETATM   13  O   UNL     1      26.817  43.281  50.748  1.00  0.00    -0.273 OA
HETATM   14  H   UNL     1      25.144  45.001  52.833  1.00  0.00     0.169 HD
BRANCH  12  15
HETATM   15  C   UNL     1      27.060  43.375  53.059  1.00  0.00     0.087 A 
HETATM   16  C   UNL     1      28.571  43.507  53.187  1.00  0.00     0.032 A 
HETATM   17  C   UNL     1      27.910  42.151  53.268  1.00  0.00     0.025 A 
BRANCH  16  18
HETATM   18  C   UNL     1      29.165  44.141  54.421  1.00  0.00    -0.051 A 
HETATM   19  C   UNL     1      30.196  43.509  55.138  1.00  0.00     0.031 A 
HETATM   20  C   UNL     1      30.763  44.112  56.263  1.00  0.00     0.034 A 
HETATM   21  C   UNL     1      30.322  45.358  56.696  1.00  0.00     0.024 A 
HETATM   22 CL   UNL     1      32.024  43.308  57.114  1.00  0.00    -0.084 Cl
HETATM   23  C   UNL     1      29.307  46.006  55.997  1.00  0.00     0.002 A 
HETATM   24  C   UNL     1      28.741  45.403  54.870  1.00  0.00     0.007 A 
ENDBRANCH  16  18
ENDBRANCH  12  15
ENDBRANCH   1  11
BRANCH   8  25
HETATM   25  C   UNL     1      24.126  49.504  48.925  1.00  0.00     0.270 C 
HETATM   26  N   UNL     1      25.411  49.588  48.460  1.00  0.00    -0.365 N 
HETATM   27  H   UNL     1      25.818  48.777  48.010  1.00  0.00     0.159 HD
HETATM   28  H   UNL     1      25.925  50.447  48.568  1.00  0.00     0.159 HD
HETATM   29  O   UNL     1      23.588  50.458  49.474  1.00  0.00    -0.266 OA
ENDBRANCH   8  25
TORSDOF 4
ENDMDL
MODEL 4
REMARK VINA RESULT:      -9.5      4.364      9.086
REMARK  4 active torsions:
REMARK  status: ('A' for Active; 'I' for Inactive)
REMARK    1  A    between atoms: C_6  and  C_7 
REMARK    2  A    between atoms: C_8  and  C_9 
REMARK       I    between atoms: C_9  and  N_10 
REMARK    3  A    between atoms: N_10  and  C_11 
REMARK    4  A    between atoms: C_18  and  C_19 
REMARK       I    between atoms: C_19  and  N_20 
ROOT
HETATM    1  C   UNL     1      28.574  44.512  53.330  1.00  0.00     0.035 A 
HETATM    2  C   UNL     1      28.773  45.097  54.587  1.00  0.00     0.046 A 
HETATM    3  C   UNL     1      29.694  44.518  55.489  1.00  0.00     0.030 A 
HETATM    4  C   UNL     1      30.386  43.377  55.100  1.00  0.00     0.063 A 
HETATM    5  N   UNL     1      31.184  43.056  56.162  1.00  0.00    -0.277 N 
HETATM    6  H   UNL     1      31.827  42.275  56.232  1.00  0.00     0.189 HD
HETATM    7  N   UNL     1      31.076  43.888  57.210  1.00  0.00    -0.168 NA
HETATM    8  C   UNL     1      30.160  44.798  56.810  1.00  0.00     0.156 A 
HETATM    9  C   UNL     1      30.218  42.771  53.854  1.00  0.00     0.034 A 
HETATM   10  C   UNL     1      29.300  43.363  52.980  1.00  0.00     0.032 A 
ENDROOT
BRANCH   1  11
HETATM   11  N   UNL     1      27.667  45.002  52.366  1.00  0.00    -0.327 N 
HETATM   12  C   UNL     1      26.494  44.418  51.936  1.00  0.00     0.227 C 
HETATM   13  O   UNL     1      26.013  43.365  52.328  1.00  0.00    -0.273 OA
HETATM   14  H   UNL     1      27.933  45.864  51.917  1.00  0.00     0.169 HD
BRANCH  12  15
HETATM   15  C   UNL     1      25.760  45.146  50.855  1.00  0.00     0.087 A 
HETATM   16  C   UNL     1      25.245  46.551  51.136  1.00  0.00     0.032 A 
HETATM   17  C   UNL     1      24.282  45.431  50.816  1.00  0.00     0.025 A 
BRANCH  16  18
HETATM   18  C   UNL     1      25.492  47.653  50.134  1.00  0.00    -0.051 A 
HETATM   19  C   UNL     1      24.426  48.294  49.481  1.00  0.00     0.031 A 
HETATM   20  C   UNL     1      24.656  49.333  48.577  1.00  0.00     0.034 A 
HETATM   21  C   UNL     1      25.952  49.760  48.305  1.00  0.00     0.024 A 
HETATM   22 CL   UNL     1      23.324  50.094  47.798  1.00  0.00    -0.084 Cl
HETATM   23  C   UNL     1      27.024  49.144  48.946  1.00  0.00     0.002 A 
HETATM   24  C   UNL     1      26.792  48.106  49.853  1.00  0.00     0.007 A 
ENDBRANCH  16  18
ENDBRANCH  12  15
ENDBRANCH   1  11
BRANCH   8  25
HETATM   25  C   UNL     1      29.753  45.903  57.689  1.00  0.00     0.270 C 
HETATM   26  N   UNL     1      30.769  46.409  58.455  1.00  0.00    -0.365 N 
HETATM   27  H   UNL     1      31.693  46.004  58.364  1.00  0.00     0.159 HD
HETATM   28  H   UNL     1      30.584  47.170  59.088  1.00  0.00     0.159 HD
HETATM   29  O   UNL     1      28.618  46.360  57.761  1.00  0.00    -0.266 OA
ENDBRANCH   8  25
TORSDOF 4
ENDMDL
MODEL 5
REMARK VINA RESULT:      -9.0      5.921      8.140
REMARK  4 active torsions:
REMARK  status: ('A' for Active; 'I' for Inactive)
REMARK    1  A    between atoms: C_6  and  C_7 
REMARK    2  A    between atoms: C_8  and  C_9 
REMARK       I    between atoms: C_9  and  N_10 
REMARK    3  A    between atoms: N_10  and  C_11 
REMARK    4  A    between atoms: C_18  and  C_19 
REMARK       I    between atoms: C_19  and  N_20 
ROOT
HETATM    1  C   UNL     1      27.467  41.569  49.756  1.00  0.00     0.035 A 
HETATM    2  C   UNL     1      28.062  40.352  50.113  1.00  0.00     0.046 A 
HETATM    3  C   UNL     1      28.192  39.329  49.146  1.00  0.00     0.030 A 
HETATM    4  C   UNL     1      27.727  39.561  47.857  1.00  0.00     0.063 A 
HETATM    5  N   UNL     1      27.984  38.411  47.165  1.00  0.00    -0.277 N 
HETATM    6  H   UNL     1      27.775  38.221  46.192  1.00  0.00     0.189 HD
HETATM    7  N   UNL     1      28.578  37.448  47.887  1.00  0.00    -0.168 NA
HETATM    8  C   UNL     1      28.715  38.000  49.114  1.00  0.00     0.156 A 
HETATM    9  C   UNL     1      27.136  40.763  47.465  1.00  0.00     0.034 A 
HETATM   10  C   UNL     1      27.018  41.760  48.441  1.00  0.00     0.032 A 
ENDROOT
BRANCH   1  11
HETATM   11  N   UNL     1      27.276  42.646  50.649  1.00  0.00    -0.327 N 
HETATM   12  C   UNL     1      26.086  43.110  51.167  1.00  0.00     0.227 C 
HETATM   13  O   UNL     1      24.969  42.660  50.958  1.00  0.00    -0.273 OA
HETATM   14  H   UNL     1      28.109  43.151  50.905  1.00  0.00     0.169 HD
BRANCH  12  15
HETATM   15  C   UNL     1      26.185  44.311  52.054  1.00  0.00     0.087 A 
HETATM   16  C   UNL     1      26.278  44.106  53.559  1.00  0.00     0.032 A 
HETATM   17  C   UNL     1      25.105  44.845  52.957  1.00  0.00     0.025 A 
BRANCH  16  18
HETATM   18  C   UNL     1      27.322  44.853  54.353  1.00  0.00    -0.051 A 
HETATM   19  C   UNL     1      28.525  44.235  54.736  1.00  0.00     0.031 A 
HETATM   20  C   UNL     1      29.501  44.937  55.446  1.00  0.00     0.034 A 
HETATM   21  C   UNL     1      29.304  46.272  55.787  1.00  0.00     0.024 A 
HETATM   22 CL   UNL     1      30.961  44.146  55.895  1.00  0.00    -0.084 Cl
HETATM   23  C   UNL     1      28.123  46.907  55.413  1.00  0.00     0.002 A 
HETATM   24  C   UNL     1      27.147  46.204  54.700  1.00  0.00     0.007 A 
ENDBRANCH  16  18
ENDBRANCH  12  15
ENDBRANCH   1  11
BRANCH   8  25
HETATM   25  C   UNL     1      29.334  37.253  50.218  1.00  0.00     0.270 C 
HETATM   26  N   UNL     1      28.512  36.318  50.789  1.00  0.00    -0.365 N 
HETATM   27  H   UNL     1      27.574  36.210  50.424  1.00  0.00     0.159 HD
HETATM   28  H   UNL     1      28.852  35.757  51.553  1.00  0.00     0.159 HD
HETATM   29  O   UNL     1      30.479  37.421  50.622  1.00  0.00    -0.266 OA
ENDBRANCH   8  25
TORSDOF 4
ENDMDL
MODEL 6
REMARK VINA RESULT:      -9.0      2.442      2.865
REMARK  4 active torsions:
REMARK  status: ('A' for Active; 'I' for Inactive)
REMARK    1  A    between atoms: C_6  and  C_7 
REMARK    2  A    between atoms: C_8  and  C_9 
REMARK       I    between atoms: C_9  and  N_10 
REMARK    3  A    between atoms: N_10  and  C_11 
REMARK    4  A    between atoms: C_18  and  C_19 
REMARK       I    between atoms: C_19  and  N_20 
ROOT
HETATM    1  C   UNL     1      25.728  45.666  51.408  1.00  0.00     0.035 A 
HETATM    2  C   UNL     1      24.621  45.152  50.720  1.00  0.00     0.046 A 
HETATM    3  C   UNL     1      23.916  45.979  49.816  1.00  0.00     0.030 A 
HETATM    4  C   UNL     1      24.346  47.287  49.630  1.00  0.00     0.063 A 
HETATM    5  N   UNL     1      23.481  47.827  48.718  1.00  0.00    -0.277 N 
HETATM    6  H   UNL     1      23.492  48.770  48.347  1.00  0.00     0.189 HD
HETATM    7  N   UNL     1      22.527  46.986  48.291  1.00  0.00    -0.168 NA
HETATM    8  C   UNL     1      22.782  45.838  48.960  1.00  0.00     0.156 A 
HETATM    9  C   UNL     1      25.447  47.830  50.292  1.00  0.00     0.034 A 
HETATM   10  C   UNL     1      26.128  46.991  51.182  1.00  0.00     0.032 A 
ENDROOT
BRANCH   1  11
HETATM   11  N   UNL     1      26.488  44.929  52.342  1.00  0.00    -0.327 N 
HETATM   12  C   UNL     1      27.337  43.871  52.092  1.00  0.00     0.227 C 
HETATM   13  O   UNL     1      27.600  43.383  51.003  1.00  0.00    -0.273 OA
HETATM   14  H   UNL     1      26.364  45.191  53.307  1.00  0.00     0.169 HD
BRANCH  12  15
HETATM   15  C   UNL     1      27.972  43.247  53.294  1.00  0.00     0.087 A 
HETATM   16  C   UNL     1      29.458  43.468  53.537  1.00  0.00     0.032 A 
HETATM   17  C   UNL     1      28.920  42.077  53.295  1.00  0.00     0.025 A 
BRANCH  16  18
HETATM   18  C   UNL     1      29.941  43.870  54.909  1.00  0.00    -0.051 A 
HETATM   19  C   UNL     1      29.316  44.905  55.626  1.00  0.00     0.031 A 
HETATM   20  C   UNL     1      29.747  45.255  56.907  1.00  0.00     0.034 A 
HETATM   21  C   UNL     1      30.807  44.581  57.506  1.00  0.00     0.024 A 
HETATM   22 CL   UNL     1      28.956  46.527  57.753  1.00  0.00    -0.084 Cl
HETATM   23  C   UNL     1      31.436  43.548  56.818  1.00  0.00     0.002 A 
HETATM   24  C   UNL     1      31.003  43.196  55.536  1.00  0.00     0.007 A 
ENDBRANCH  16  18
ENDBRANCH  12  15
ENDBRANCH   1  11
BRANCH   8  25
HETATM   25  C   UNL     1      21.944  44.646  48.768  1.00  0.00     0.270 C 
HETATM   26  N   UNL     1      22.585  43.609  48.143  1.00  0.00    -0.365 N 
HETATM   27  H   UNL     1      23.552  43.731  47.869  1.00  0.00     0.159 HD
HETATM   28  H   UNL     1      22.089  42.750  47.970  1.00  0.00     0.159 HD
HETATM   29  O   UNL     1      20.775  44.547  49.121  1.00  0.00    -0.266 OA
ENDBRANCH   8  25
TORSDOF 4
ENDMDL
MODEL 7
REMARK VINA RESULT:      -8.9      2.726      3.193
REMARK  4 active torsions:
REMARK  status: ('A' for Active; 'I' for Inactive)
REMARK    1  A    between atoms: C_6  and  C_7 
REMARK    2  A    between atoms: C_8  and  C_9 
REMARK       I    between atoms: C_9  and  N_10 
REMARK    3  A    between atoms: N_10  and  C_11 
REMARK    4  A    between atoms: C_18  and  C_19 
REMARK       I    between atoms: C_19  and  N_20 
ROOT
HETATM    1  C   UNL     1      25.585  47.654  50.211  1.00  0.00     0.035 A 
HETATM    2  C   UNL     1      24.210  47.791  49.979  1.00  0.00     0.046 A 
HETATM    3  C   UNL     1      23.750  48.770  49.069  1.00  0.00     0.030 A 
HETATM    4  C   UNL     1      24.681  49.573  48.422  1.00  0.00     0.063 A 
HETATM    5  N   UNL     1      23.948  50.408  47.624  1.00  0.00    -0.277 N 
HETATM    6  H   UNL     1      24.299  51.132  47.008  1.00  0.00     0.189 HD
HETATM    7  N   UNL     1      22.621  50.219  47.692  1.00  0.00    -0.168 NA
HETATM    8  C   UNL     1      22.482  49.208  48.581  1.00  0.00     0.156 A 
HETATM    9  C   UNL     1      26.057  49.461  48.623  1.00  0.00     0.034 A 
HETATM   10  C   UNL     1      26.487  48.484  49.529  1.00  0.00     0.032 A 
ENDROOT
BRANCH   1  11
HETATM   11  N   UNL     1      26.144  46.720  51.110  1.00  0.00    -0.327 N 
HETATM   12  C   UNL     1      26.090  46.739  52.488  1.00  0.00     0.227 C 
HETATM   13  O   UNL     1      25.528  47.567  53.189  1.00  0.00    -0.273 OA
HETATM   14  H   UNL     1      26.675  45.974  50.689  1.00  0.00     0.169 HD
BRANCH  12  15
HETATM   15  C   UNL     1      26.826  45.638  53.184  1.00  0.00     0.087 A 
HETATM   16  C   UNL     1      26.207  44.248  53.219  1.00  0.00     0.032 A 
HETATM   17  C   UNL     1      26.454  45.010  54.501  1.00  0.00     0.025 A 
BRANCH  16  18
HETATM   18  C   UNL     1      27.050  43.044  52.874  1.00  0.00    -0.051 A 
HETATM   19  C   UNL     1      27.116  42.556  51.558  1.00  0.00     0.031 A 
HETATM   20  C   UNL     1      27.919  41.460  51.237  1.00  0.00     0.034 A 
HETATM   21  C   UNL     1      28.678  40.827  52.217  1.00  0.00     0.024 A 
HETATM   22 CL   UNL     1      27.976  40.893  49.613  1.00  0.00    -0.084 Cl
HETATM   23  C   UNL     1      28.633  41.298  53.526  1.00  0.00     0.002 A 
HETATM   24  C   UNL     1      27.831  42.397  53.847  1.00  0.00     0.007 A 
ENDBRANCH  16  18
ENDBRANCH  12  15
ENDBRANCH   1  11
BRANCH   8  25
HETATM   25  C   UNL     1      21.154  48.691  48.940  1.00  0.00     0.270 C 
HETATM   26  N   UNL     1      20.886  47.446  48.439  1.00  0.00    -0.365 N 
HETATM   27  H   UNL     1      21.594  46.986  47.879  1.00  0.00     0.159 HD
HETATM   28  H   UNL     1      20.000  47.010  48.634  1.00  0.00     0.159 HD
HETATM   29  O   UNL     1      20.331  49.289  49.624  1.00  0.00    -0.266 OA
ENDBRANCH   8  25
TORSDOF 4
ENDMDL
MODEL 8
REMARK VINA RESULT:      -8.8      3.788      9.246
REMARK  4 active torsions:
REMARK  status: ('A' for Active; 'I' for Inactive)
REMARK    1  A    between atoms: C_6  and  C_7 
REMARK    2  A    between atoms: C_8  and  C_9 
REMARK       I    between atoms: C_9  and  N_10 
REMARK    3  A    between atoms: N_10  and  C_11 
REMARK    4  A    between atoms: C_18  and  C_19 
REMARK       I    between atoms: C_19  and  N_20 
ROOT
HETATM    1  C   UNL     1      25.068  46.153  51.124  1.00  0.00     0.035 A 
HETATM    2  C   UNL     1      25.992  46.151  52.177  1.00  0.00     0.046 A 
HETATM    3  C   UNL     1      26.472  44.921  52.682  1.00  0.00     0.030 A 
HETATM    4  C   UNL     1      26.014  43.738  52.114  1.00  0.00     0.063 A 
HETATM    5  N   UNL     1      26.642  42.738  52.802  1.00  0.00    -0.277 N 
HETATM    6  H   UNL     1      26.543  41.739  52.658  1.00  0.00     0.189 HD
HETATM    7  N   UNL     1      27.471  43.162  53.768  1.00  0.00    -0.168 NA
HETATM    8  C   UNL     1      27.379  44.510  53.706  1.00  0.00     0.156 A 
HETATM    9  C   UNL     1      25.100  43.702  51.061  1.00  0.00     0.034 A 
HETATM   10  C   UNL     1      24.639  44.933  50.579  1.00  0.00     0.032 A 
ENDROOT
BRANCH   1  11
HETATM   11  N   UNL     1      24.517  47.323  50.560  1.00  0.00    -0.327 N 
HETATM   12  C   UNL     1      25.058  48.119  49.571  1.00  0.00     0.227 C 
HETATM   13  O   UNL     1      26.118  47.945  48.988  1.00  0.00    -0.273 OA
HETATM   14  H   UNL     1      23.641  47.626  50.955  1.00  0.00     0.169 HD
BRANCH  12  15
HETATM   15  C   UNL     1      24.268  49.336  49.208  1.00  0.00     0.087 A 
HETATM   16  C   UNL     1      23.056  49.179  48.300  1.00  0.00     0.032 A 
HETATM   17  C   UNL     1      24.239  50.012  47.863  1.00  0.00     0.025 A 
BRANCH  16  18
HETATM   18  C   UNL     1      21.752  49.843  48.670  1.00  0.00    -0.051 A 
HETATM   19  C   UNL     1      20.821  49.203  49.505  1.00  0.00     0.031 A 
HETATM   20  C   UNL     1      19.629  49.831  49.869  1.00  0.00     0.034 A 
HETATM   21  C   UNL     1      19.337  51.114  49.413  1.00  0.00     0.024 A 
HETATM   22 CL   UNL     1      18.514  49.015  50.895  1.00  0.00    -0.084 Cl
HETATM   23  C   UNL     1      20.248  51.770  48.590  1.00  0.00     0.002 A 
HETATM   24  C   UNL     1      21.443  51.141  48.228  1.00  0.00     0.007 A 
ENDBRANCH  16  18
ENDBRANCH  12  15
ENDBRANCH   1  11
BRANCH   8  25
HETATM   25  C   UNL     1      28.150  45.366  54.618  1.00  0.00     0.270 C 
HETATM   26  N   UNL     1      29.291  44.782  55.100  1.00  0.00    -0.365 N 
HETATM   27  H   UNL     1      29.515  43.840  54.805  1.00  0.00     0.159 HD
HETATM   28  H   UNL     1      29.884  45.295  55.732  1.00  0.00     0.159 HD
HETATM   29  O   UNL     1      27.836  46.505  54.944  1.00  0.00    -0.266 OA
ENDBRANCH   8  25
TORSDOF 4
ENDMDL
MODEL 9
REMARK VINA RESULT:      -8.6      5.305     10.409
REMARK  4 active torsions:
REMARK  status: ('A' for Active; 'I' for Inactive)
REMARK    1  A    between atoms: C_6  and  C_7 
REMARK    2  A    between atoms: C_8  and  C_9 
REMARK       I    between atoms: C_9  and  N_10 
REMARK    3  A    between atoms: N_10  and  C_11 
REMARK    4  A    between atoms: C_18  and  C_19 
REMARK       I    between atoms: C_19  and  N_20 
ROOT
HETATM    1  C   UNL     1      23.444  49.106  49.369  1.00  0.00     0.035 A 
HETATM    2  C   UNL     1      24.146  47.944  49.710  1.00  0.00     0.046 A 
HETATM    3  C   UNL     1      25.526  47.852  49.421  1.00  0.00     0.030 A 
HETATM    4  C   UNL     1      26.155  48.927  48.804  1.00  0.00     0.063 A 
HETATM    5  N   UNL     1      27.460  48.547  48.654  1.00  0.00    -0.277 N 
HETATM    6  H   UNL     1      28.211  49.085  48.237  1.00  0.00     0.189 HD
HETATM    7  N   UNL     1      27.739  47.320  49.120  1.00  0.00    -0.168 NA
HETATM    8  C   UNL     1      26.554  46.876  49.599  1.00  0.00     0.156 A 
HETATM    9  C   UNL     1      25.489  50.102  48.456  1.00  0.00     0.034 A 
HETATM   10  C   UNL     1      24.123  50.168  48.752  1.00  0.00     0.032 A 
ENDROOT
BRANCH   1  11
HETATM   11  N   UNL     1      22.063  49.292  49.599  1.00  0.00    -0.327 N 
HETATM   12  C   UNL     1      21.027  49.111  48.707  1.00  0.00     0.227 C 
HETATM   13  O   UNL     1      21.115  48.739  47.546  1.00  0.00    -0.273 OA
HETATM   14  H   UNL     1      21.816  49.629  50.516  1.00  0.00     0.169 HD
BRANCH  12  15
HETATM   15  C   UNL     1      19.660  49.438  49.220  1.00  0.00     0.087 A 
HETATM   16  C   UNL     1      19.283  50.898  49.425  1.00  0.00     0.032 A 
HETATM   17  C   UNL     1      19.322  49.945  50.597  1.00  0.00     0.025 A 
BRANCH  16  18
HETATM   18  C   UNL     1      17.964  51.412  48.904  1.00  0.00    -0.051 A 
HETATM   19  C   UNL     1      16.918  51.753  49.779  1.00  0.00     0.031 A 
HETATM   20  C   UNL     1      15.709  52.254  49.294  1.00  0.00     0.034 A 
HETATM   21  C   UNL     1      15.513  52.432  47.928  1.00  0.00     0.024 A 
HETATM   22 CL   UNL     1      14.453  52.662  50.398  1.00  0.00    -0.084 Cl
HETATM   23  C   UNL     1      16.537  52.108  47.043  1.00  0.00     0.002 A 
HETATM   24  C   UNL     1      17.749  51.608  47.528  1.00  0.00     0.007 A 
ENDBRANCH  16  18
ENDBRANCH  12  15
ENDBRANCH   1  11
BRANCH   8  25
HETATM   25  C   UNL     1      26.432  45.545  50.208  1.00  0.00     0.270 C 
HETATM   26  N   UNL     1      26.059  44.562  49.330  1.00  0.00    -0.365 N 
HETATM   27  H   UNL     1      25.901  44.812  48.361  1.00  0.00     0.159 HD
HETATM   28  H   UNL     1      25.951  43.616  49.658  1.00  0.00     0.159 HD
HETATM   29  O   UNL     1      26.637  45.293  51.390  1.00  0.00    -0.266 OA
ENDBRANCH   8  25
TORSDOF 4
ENDMDL
MODEL 10
REMARK VINA RESULT:      -8.5      5.611      7.517
REMARK  4 active torsions:
REMARK  status: ('A' for Active; 'I' for Inactive)
REMARK    1  A    between atoms: C_6  and  C_7 
REMARK    2  A    between atoms: C_8  and  C_9 
REMARK       I    between atoms: C_9  and  N_10 
REMARK    3  A    between atoms: N_10  and  C_11 
REMARK    4  A    between atoms: C_18  and  C_19 
REMARK       I    between atoms: C_19  and  N_20 
ROOT
HETATM    1  C   UNL     1      25.953  41.595  50.519  1.00  0.00     0.035 A 
HETATM    2  C   UNL     1      26.707  40.433  50.311  1.00  0.00     0.046 A 
HETATM    3  C   UNL     1      26.404  39.591  49.217  1.00  0.00     0.030 A 
HETATM    4  C   UNL     1      25.360  39.943  48.370  1.00  0.00     0.063 A 
HETATM    5  N   UNL     1      25.307  38.952  47.429  1.00  0.00    -0.277 N 
HETATM    6  H   UNL     1      24.662  38.880  46.650  1.00  0.00     0.189 HD
HETATM    7  N   UNL     1      26.225  37.986  47.585  1.00  0.00    -0.168 NA
HETATM    8  C   UNL     1      26.912  38.366  48.687  1.00  0.00     0.156 A 
HETATM    9  C   UNL     1      24.592  41.095  48.542  1.00  0.00     0.034 A 
HETATM   10  C   UNL     1      24.912  41.912  49.633  1.00  0.00     0.032 A 
ENDROOT
BRANCH   1  11
HETATM   11  N   UNL     1      26.165  42.493  51.588  1.00  0.00    -0.327 N 
HETATM   12  C   UNL     1      26.933  43.638  51.588  1.00  0.00     0.227 C 
HETATM   13  O   UNL     1      27.566  44.098  50.648  1.00  0.00    -0.273 OA
HETATM   14  H   UNL     1      25.728  42.242  52.460  1.00  0.00     0.169 HD
BRANCH  12  15
HETATM   15  C   UNL     1      27.016  44.368  52.891  1.00  0.00     0.087 A 
HETATM   16  C   UNL     1      27.579  43.641  54.104  1.00  0.00     0.032 A 
HETATM   17  C   UNL     1      26.150  44.135  54.100  1.00  0.00     0.025 A 
BRANCH  16  18
HETATM   18  C   UNL     1      28.616  44.317  54.968  1.00  0.00    -0.051 A 
HETATM   19  C   UNL     1      29.738  43.616  55.440  1.00  0.00     0.031 A 
HETATM   20  C   UNL     1      30.711  44.251  56.214  1.00  0.00     0.034 A 
HETATM   21  C   UNL     1      30.590  45.601  56.533  1.00  0.00     0.024 A 
HETATM   22 CL   UNL     1      32.072  43.359  56.772  1.00  0.00    -0.084 Cl
HETATM   23  C   UNL     1      29.490  46.317  56.071  1.00  0.00     0.002 A 
HETATM   24  C   UNL     1      28.518  45.681  55.294  1.00  0.00     0.007 A 
ENDBRANCH  16  18
ENDBRANCH  12  15
ENDBRANCH   1  11
BRANCH   8  25
HETATM   25  C   UNL     1      28.027  37.559  49.202  1.00  0.00     0.270 C 
HETATM   26  N   UNL     1      27.649  36.597  50.101  1.00  0.00    -0.365 N 
HETATM   27  H   UNL     1      26.668  36.511  50.336  1.00  0.00     0.159 HD
HETATM   28  H   UNL     1      28.346  35.994  50.507  1.00  0.00     0.159 HD
HETATM   29  O   UNL     1      29.201  37.702  48.883  1.00  0.00    -0.266 OA
ENDBRANCH   8  25
TORSDOF 4
ENDMDL
