MODEL 1
REMARK VINA RESULT:      -9.3      0.000      0.000
REMARK  6 active torsions:
REMARK  status: ('A' for Active; 'I' for Inactive)
REMARK    1  A    between atoms: C_9  and  N_10 
REMARK       I    between atoms: N_10  and  C_11 
REMARK    2  A    between atoms: C_11  and  C_12 
REMARK    3  A    between atoms: C_12  and  N_13 
REMARK    4  A    between atoms: C_12  and  C_21 
REMARK       I    between atoms: N_13  and  C_14 
REMARK    5  A    between atoms: C_14  and  C_15 
REMARK    6  A    between atoms: C_21  and  C_22 
ROOT
HETATM    1  C   UNL     1      26.856  45.525  52.689  1.00  0.00     0.181 C 
ENDROOT
BRANCH   1   2
HETATM    2  C   UNL     1      26.078  46.765  52.152  1.00  0.00     0.245 C 
HETATM    3  N   UNL     1      26.100  46.913  50.773  1.00  0.00    -0.325 N 
HETATM    4  H   UNL     1      26.729  46.328  50.246  1.00  0.00     0.169 HD
HETATM    5  O   UNL     1      25.401  47.453  52.917  1.00  0.00    -0.271 OA
BRANCH   3   6
HETATM    6  C   UNL     1      25.343  47.817  49.989  1.00  0.00     0.037 A 
HETATM    7  C   UNL     1      23.945  47.794  49.900  1.00  0.00     0.063 A 
HETATM    8  C   UNL     1      23.298  48.708  49.051  1.00  0.00     0.087 A 
HETATM    9  N   UNL     1      21.959  48.860  48.780  1.00  0.00    -0.234 NA
HETATM   10  C   UNL     1      24.052  49.624  48.330  1.00  0.00     0.062 A 
HETATM   11  C   UNL     1      21.878  49.846  47.913  1.00  0.00     0.101 A 
HETATM   12  C   UNL     1      20.645  50.386  47.294  1.00  0.00     0.091 C 
HETATM   13  N   UNL     1      23.124  50.344  47.622  1.00  0.00    -0.343 N 
HETATM   14  H   UNL     1      23.322  51.102  46.985  1.00  0.00     0.167 HD
HETATM   15  C   UNL     1      25.441  49.691  48.399  1.00  0.00     0.034 A 
HETATM   16  C   UNL     1      26.069  48.761  49.241  1.00  0.00     0.032 A 
ENDBRANCH   3   6
ENDBRANCH   1   2
BRANCH   1  17
HETATM   17  N   UNL     1      26.404  44.320  51.986  1.00  0.00    -0.343 N 
HETATM   18  C   UNL     1      26.957  43.882  50.802  1.00  0.00     0.259 C 
HETATM   19  O   UNL     1      27.849  44.509  50.236  1.00  0.00    -0.267 OA
HETATM   20  H   UNL     1      25.802  43.674  52.479  1.00  0.00     0.163 HD
BRANCH  18  21
HETATM   21  C   UNL     1      26.390  42.657  50.250  1.00  0.00     0.072 A 
HETATM   22  S   UNL     1      25.214  42.667  49.002  1.00  0.00    -0.097 SA
HETATM   23  C   UNL     1      25.173  40.960  48.929  1.00  0.00     0.050 A 
HETATM   24  C   UNL     1      26.025  40.383  49.842  1.00  0.00     0.009 A 
HETATM   25  C   UNL     1      26.725  41.362  50.603  1.00  0.00     0.025 A 
ENDBRANCH  18  21
ENDBRANCH   1  17
BRANCH   1  26
HETATM   26  C   UNL     1      26.903  45.349  54.222  1.00  0.00     0.073 C 
BRANCH  26  27
HETATM   27  C   UNL     1      28.266  44.894  54.703  1.00  0.00    -0.056 A 
HETATM   28  C   UNL     1      28.811  43.683  54.251  1.00  0.00     0.007 A 
HETATM   29  C   UNL     1      30.042  43.237  54.737  1.00  0.00     0.001 A 
HETATM   30  C   UNL     1      30.735  43.991  55.681  1.00  0.00     0.000 A 
HETATM   31  C   UNL     1      30.205  45.197  56.134  1.00  0.00     0.001 A 
HETATM   32  C   UNL     1      28.979  45.650  55.643  1.00  0.00     0.007 A 
ENDBRANCH  26  27
ENDBRANCH   1  26
TORSDOF 6
ENDMDL
MODEL 2
REMARK VINA RESULT:      -9.3      2.290      3.246
REMARK  6 active torsions:
REMARK  status: ('A' for Active; 'I' for Inactive)
REMARK    1  A    between atoms: C_9  and  N_10 
REMARK       I    between atoms: N_10  and  C_11 
REMARK    2  A    between atoms: C_11  and  C_12 
REMARK    3  A    between atoms: C_12  and  N_13 
REMARK    4  A    between atoms: C_12  and  C_21 
REMARK       I    between atoms: N_13  and  C_14 
REMARK    5  A    between atoms: C_14  and  C_15 
REMARK    6  A    between atoms: C_21  and  C_22 
ROOT
HETATM    1  C   UNL     1      28.165  43.246  51.791  1.00  0.00     0.181 C 
ENDROOT
BRANCH   1   2
HETATM    2  C   UNL     1      27.193  43.886  50.753  1.00  0.00     0.245 C 
HETATM    3  N   UNL     1      26.372  44.882  51.262  1.00  0.00    -0.325 N 
HETATM    4  H   UNL     1      26.343  45.004  52.262  1.00  0.00     0.169 HD
HETATM    5  O   UNL     1      27.278  43.595  49.560  1.00  0.00    -0.271 OA
BRANCH   3   6
HETATM    6  C   UNL     1      25.532  45.763  50.538  1.00  0.00     0.037 A 
HETATM    7  C   UNL     1      25.853  47.098  50.263  1.00  0.00     0.063 A 
HETATM    8  C   UNL     1      24.922  47.899  49.579  1.00  0.00     0.087 A 
HETATM    9  N   UNL     1      24.996  49.224  49.223  1.00  0.00    -0.234 NA
HETATM   10  C   UNL     1      23.713  47.349  49.176  1.00  0.00     0.062 A 
HETATM   11  C   UNL     1      23.863  49.496  48.611  1.00  0.00     0.101 A 
HETATM   12  C   UNL     1      23.448  50.801  48.049  1.00  0.00     0.091 C 
HETATM   13  N   UNL     1      23.062  48.382  48.552  1.00  0.00    -0.343 N 
HETATM   14  H   UNL     1      22.145  48.338  48.132  1.00  0.00     0.167 HD
HETATM   15  C   UNL     1      23.360  46.023  49.415  1.00  0.00     0.034 A 
HETATM   16  C   UNL     1      24.296  45.245  50.112  1.00  0.00     0.032 A 
ENDBRANCH   3   6
ENDBRANCH   1   2
BRANCH   1  17
HETATM   17  N   UNL     1      28.708  41.997  51.249  1.00  0.00    -0.343 N 
HETATM   18  C   UNL     1      27.958  40.853  51.082  1.00  0.00     0.259 C 
HETATM   19  O   UNL     1      26.778  40.801  51.423  1.00  0.00    -0.267 OA
HETATM   20  H   UNL     1      29.611  42.023  50.794  1.00  0.00     0.163 HD
BRANCH  18  21
HETATM   21  C   UNL     1      28.660  39.708  50.517  1.00  0.00     0.072 A 
HETATM   22  S   UNL     1      28.749  39.422  48.828  1.00  0.00    -0.097 SA
HETATM   23  C   UNL     1      29.729  38.038  49.041  1.00  0.00     0.050 A 
HETATM   24  C   UNL     1      29.979  37.781  50.369  1.00  0.00     0.009 A 
HETATM   25  C   UNL     1      29.363  38.743  51.219  1.00  0.00     0.025 A 
ENDBRANCH  18  21
ENDBRANCH   1  17
BRANCH   1  26
HETATM   26  C   UNL     1      27.636  43.100  53.234  1.00  0.00     0.073 C 
BRANCH  26  27
HETATM   27  C   UNL     1      28.611  43.647  54.258  1.00  0.00    -0.056 A 
HETATM   28  C   UNL     1      28.424  44.925  54.806  1.00  0.00     0.007 A 
HETATM   29  C   UNL     1      29.352  45.450  55.706  1.00  0.00     0.001 A 
HETATM   30  C   UNL     1      30.478  44.710  56.061  1.00  0.00     0.000 A 
HETATM   31  C   UNL     1      30.671  43.438  55.526  1.00  0.00     0.001 A 
HETATM   32  C   UNL     1      29.740  42.906  54.633  1.00  0.00     0.007 A 
ENDBRANCH  26  27
ENDBRANCH   1  26
TORSDOF 6
ENDMDL
MODEL 3
REMARK VINA RESULT:      -9.1      3.584      7.878
REMARK  6 active torsions:
REMARK  status: ('A' for Active; 'I' for Inactive)
REMARK    1  A    between atoms: C_9  and  N_10 
REMARK       I    between atoms: N_10  and  C_11 
REMARK    2  A    between atoms: C_11  and  C_12 
REMARK    3  A    between atoms: C_12  and  N_13 
REMARK    4  A    between atoms: C_12  and  C_21 
REMARK       I    between atoms: N_13  and  C_14 
REMARK    5  A    between atoms: C_14  and  C_15 
REMARK    6  A    between atoms: C_21  and  C_22 
ROOT
HETATM    1  C   UNL     1      28.656  42.817  53.379  1.00  0.00     0.181 C 
ENDROOT
BRANCH   1   2
HETATM    2  C   UNL     1      28.379  41.386  52.825  1.00  0.00     0.245 C 
HETATM    3  N   UNL     1      28.270  41.308  51.444  1.00  0.00    -0.325 N 
HETATM    4  H   UNL     1      28.214  42.171  50.926  1.00  0.00     0.169 HD
HETATM    5  O   UNL     1      28.397  40.413  53.579  1.00  0.00    -0.271 OA
BRANCH   3   6
HETATM    6  C   UNL     1      28.209  40.139  50.647  1.00  0.00     0.037 A 
HETATM    7  C   UNL     1      27.148  39.834  49.786  1.00  0.00     0.063 A 
HETATM    8  C   UNL     1      27.168  38.620  49.078  1.00  0.00     0.087 A 
HETATM    9  N   UNL     1      26.242  38.095  48.208  1.00  0.00    -0.234 NA
HETATM   10  C   UNL     1      28.243  37.755  49.233  1.00  0.00     0.062 A 
HETATM   11  C   UNL     1      26.727  36.932  47.827  1.00  0.00     0.101 A 
HETATM   12  C   UNL     1      26.094  35.967  46.899  1.00  0.00     0.091 C 
HETATM   13  N   UNL     1      27.943  36.693  48.418  1.00  0.00    -0.343 N 
HETATM   14  H   UNL     1      28.513  35.871  48.284  1.00  0.00     0.167 HD
HETATM   15  C   UNL     1      29.325  38.025  50.067  1.00  0.00     0.034 A 
HETATM   16  C   UNL     1      29.279  39.235  50.775  1.00  0.00     0.032 A 
ENDBRANCH   3   6
ENDBRANCH   1   2
BRANCH   1  17
HETATM   17  N   UNL     1      28.015  43.811  52.512  1.00  0.00    -0.343 N 
HETATM   18  C   UNL     1      26.850  44.468  52.844  1.00  0.00     0.259 C 
HETATM   19  O   UNL     1      26.248  44.225  53.887  1.00  0.00    -0.267 OA
HETATM   20  H   UNL     1      28.543  44.179  51.731  1.00  0.00     0.163 HD
BRANCH  18  21
HETATM   21  C   UNL     1      26.363  45.433  51.866  1.00  0.00     0.072 A 
HETATM   22  S   UNL     1      26.761  45.338  50.200  1.00  0.00    -0.097 SA
HETATM   23  C   UNL     1      25.794  46.695  49.818  1.00  0.00     0.050 A 
HETATM   24  C   UNL     1      25.186  47.226  50.931  1.00  0.00     0.009 A 
HETATM   25  C   UNL     1      25.514  46.498  52.111  1.00  0.00     0.025 A 
ENDBRANCH  18  21
ENDBRANCH   1  17
BRANCH   1  26
HETATM   26  C   UNL     1      30.125  43.159  53.708  1.00  0.00     0.073 C 
BRANCH  26  27
HETATM   27  C   UNL     1      30.271  43.786  55.080  1.00  0.00    -0.056 A 
HETATM   28  C   UNL     1      29.600  44.978  55.392  1.00  0.00     0.007 A 
HETATM   29  C   UNL     1      29.779  45.585  56.636  1.00  0.00     0.001 A 
HETATM   30  C   UNL     1      30.633  45.013  57.576  1.00  0.00     0.000 A 
HETATM   31  C   UNL     1      31.301  43.827  57.279  1.00  0.00     0.001 A 
HETATM   32  C   UNL     1      31.117  43.213  56.039  1.00  0.00     0.007 A 
ENDBRANCH  26  27
ENDBRANCH   1  26
TORSDOF 6
ENDMDL
MODEL 4
REMARK VINA RESULT:      -8.6      1.627      2.195
REMARK  6 active torsions:
REMARK  status: ('A' for Active; 'I' for Inactive)
REMARK    1  A    between atoms: C_9  and  N_10 
REMARK       I    between atoms: N_10  and  C_11 
REMARK    2  A    between atoms: C_11  and  C_12 
REMARK    3  A    between atoms: C_12  and  N_13 
REMARK    4  A    between atoms: C_12  and  C_21 
REMARK       I    between atoms: N_13  and  C_14 
REMARK    5  A    between atoms: C_14  and  C_15 
REMARK    6  A    between atoms: C_21  and  C_22 
ROOT
HETATM    1  C   UNL     1      27.513  44.118  51.394  1.00  0.00     0.181 C 
ENDROOT
BRANCH   1   2
HETATM    2  C   UNL     1      26.552  44.963  50.502  1.00  0.00     0.245 C 
HETATM    3  N   UNL     1      26.389  46.280  50.907  1.00  0.00    -0.325 N 
HETATM    4  H   UNL     1      26.757  46.545  51.807  1.00  0.00     0.169 HD
HETATM    5  O   UNL     1      26.102  44.494  49.456  1.00  0.00    -0.271 OA
BRANCH   3   6
HETATM    6  C   UNL     1      25.741  47.325  50.206  1.00  0.00     0.037 A 
HETATM    7  C   UNL     1      24.350  47.469  50.128  1.00  0.00     0.063 A 
HETATM    8  C   UNL     1      23.812  48.518  49.362  1.00  0.00     0.087 A 
HETATM    9  N   UNL     1      22.499  48.843  49.116  1.00  0.00    -0.234 NA
HETATM   10  C   UNL     1      24.666  49.397  48.711  1.00  0.00     0.062 A 
HETATM   11  C   UNL     1      22.532  49.900  48.333  1.00  0.00     0.101 A 
HETATM   12  C   UNL     1      21.370  50.626  47.772  1.00  0.00     0.091 C 
HETATM   13  N   UNL     1      23.827  50.275  48.072  1.00  0.00    -0.343 N 
HETATM   14  H   UNL     1      24.111  51.055  47.498  1.00  0.00     0.167 HD
HETATM   15  C   UNL     1      26.054  49.300  48.773  1.00  0.00     0.034 A 
HETATM   16  C   UNL     1      26.571  48.238  49.531  1.00  0.00     0.032 A 
ENDBRANCH   3   6
ENDBRANCH   1   2
BRANCH   1  17
HETATM   17  N   UNL     1      27.931  42.918  50.663  1.00  0.00    -0.343 N 
HETATM   18  C   UNL     1      27.171  41.770  50.592  1.00  0.00     0.259 C 
HETATM   19  O   UNL     1      26.097  41.671  51.181  1.00  0.00    -0.267 OA
HETATM   20  H   UNL     1      28.710  42.992  50.023  1.00  0.00     0.163 HD
BRANCH  18  21
HETATM   21  C   UNL     1      27.739  40.678  49.811  1.00  0.00     0.072 A 
HETATM   22  S   UNL     1      27.584  40.587  48.106  1.00  0.00    -0.097 SA
HETATM   23  C   UNL     1      28.522  39.160  48.025  1.00  0.00     0.050 A 
HETATM   24  C   UNL     1      28.939  38.745  49.268  1.00  0.00     0.009 A 
HETATM   25  C   UNL     1      28.487  39.620  50.297  1.00  0.00     0.025 A 
ENDBRANCH  18  21
ENDBRANCH   1  17
BRANCH   1  26
HETATM   26  C   UNL     1      27.036  43.817  52.831  1.00  0.00     0.073 C 
BRANCH  26  27
HETATM   27  C   UNL     1      28.149  43.981  53.847  1.00  0.00    -0.056 A 
HETATM   28  C   UNL     1      28.219  45.133  54.644  1.00  0.00     0.007 A 
HETATM   29  C   UNL     1      29.276  45.308  55.540  1.00  0.00     0.001 A 
HETATM   30  C   UNL     1      30.273  44.340  55.644  1.00  0.00     0.000 A 
HETATM   31  C   UNL     1      30.210  43.190  54.859  1.00  0.00     0.001 A 
HETATM   32  C   UNL     1      29.150  43.008  53.970  1.00  0.00     0.007 A 
ENDBRANCH  26  27
ENDBRANCH   1  26
TORSDOF 6
ENDMDL
MODEL 5
REMARK VINA RESULT:      -8.6      1.794      2.464
REMARK  6 active torsions:
REMARK  status: ('A' for Active; 'I' for Inactive)
REMARK    1  A    between atoms: C_9  and  N_10 
REMARK       I    between atoms: N_10  and  C_11 
REMARK    2  A    between atoms: C_11  and  C_12 
REMARK    3  A    between atoms: C_12  and  N_13 
REMARK    4  A    between atoms: C_12  and  C_21 
REMARK       I    between atoms: N_13  and  C_14 
REMARK    5  A    between atoms: C_14  and  C_15 
REMARK    6  A    between atoms: C_21  and  C_22 
ROOT
HETATM    1  C   UNL     1      27.438  43.695  52.194  1.00  0.00     0.181 C 
ENDROOT
BRANCH   1   2
HETATM    2  C   UNL     1      26.550  44.929  51.844  1.00  0.00     0.245 C 
HETATM    3  N   UNL     1      26.062  44.945  50.546  1.00  0.00    -0.325 N 
HETATM    4  H   UNL     1      26.434  44.273  49.893  1.00  0.00     0.169 HD
HETATM    5  O   UNL     1      26.224  45.729  52.722  1.00  0.00    -0.271 OA
BRANCH   3   6
HETATM    6  C   UNL     1      25.092  45.820  49.998  1.00  0.00     0.037 A 
HETATM    7  C   UNL     1      25.201  47.216  50.013  1.00  0.00     0.063 A 
HETATM    8  C   UNL     1      24.154  47.990  49.484  1.00  0.00     0.087 A 
HETATM    9  N   UNL     1      24.021  49.356  49.411  1.00  0.00    -0.234 NA
HETATM   10  C   UNL     1      23.041  47.358  48.946  1.00  0.00     0.062 A 
HETATM   11  C   UNL     1      22.856  49.573  48.840  1.00  0.00     0.101 A 
HETATM   12  C   UNL     1      22.241  50.889  48.548  1.00  0.00     0.091 C 
HETATM   13  N   UNL     1      22.235  48.388  48.532  1.00  0.00    -0.343 N 
HETATM   14  H   UNL     1      21.333  48.293  48.089  1.00  0.00     0.167 HD
HETATM   15  C   UNL     1      22.898  45.974  48.898  1.00  0.00     0.034 A 
HETATM   16  C   UNL     1      23.947  45.220  49.443  1.00  0.00     0.032 A 
ENDBRANCH   3   6
ENDBRANCH   1   2
BRANCH   1  17
HETATM   17  N   UNL     1      27.261  42.658  51.172  1.00  0.00    -0.343 N 
HETATM   18  C   UNL     1      28.054  41.535  51.087  1.00  0.00     0.259 C 
HETATM   19  O   UNL     1      28.999  41.354  51.851  1.00  0.00    -0.267 OA
HETATM   20  H   UNL     1      26.406  42.659  50.630  1.00  0.00     0.163 HD
BRANCH  18  21
HETATM   21  C   UNL     1      27.725  40.604  50.015  1.00  0.00     0.072 A 
HETATM   22  S   UNL     1      26.301  39.649  50.028  1.00  0.00    -0.097 SA
HETATM   23  C   UNL     1      26.654  38.971  48.499  1.00  0.00     0.050 A 
HETATM   24  C   UNL     1      27.839  39.445  47.985  1.00  0.00     0.009 A 
HETATM   25  C   UNL     1      28.455  40.386  48.859  1.00  0.00     0.025 A 
ENDBRANCH  18  21
ENDBRANCH   1  17
BRANCH   1  26
HETATM   26  C   UNL     1      27.329  43.151  53.634  1.00  0.00     0.073 C 
BRANCH  26  27
HETATM   27  C   UNL     1      28.463  43.637  54.514  1.00  0.00    -0.056 A 
HETATM   28  C   UNL     1      28.387  44.886  55.148  1.00  0.00     0.007 A 
HETATM   29  C   UNL     1      29.455  45.357  55.914  1.00  0.00     0.001 A 
HETATM   30  C   UNL     1      30.611  44.590  56.048  1.00  0.00     0.000 A 
HETATM   31  C   UNL     1      30.696  43.346  55.426  1.00  0.00     0.001 A 
HETATM   32  C   UNL     1      29.625  42.868  54.668  1.00  0.00     0.007 A 
ENDBRANCH  26  27
ENDBRANCH   1  26
TORSDOF 6
ENDMDL
MODEL 6
REMARK VINA RESULT:      -8.6      3.237      8.888
REMARK  6 active torsions:
REMARK  status: ('A' for Active; 'I' for Inactive)
REMARK    1  A    between atoms: C_9  and  N_10 
REMARK       I    between atoms: N_10  and  C_11 
REMARK    2  A    between atoms: C_11  and  C_12 
REMARK    3  A    between atoms: C_12  and  N_13 
REMARK    4  A    between atoms: C_12  and  C_21 
REMARK       I    between atoms: N_13  and  C_14 
REMARK    5  A    between atoms: C_14  and  C_15 
REMARK    6  A    between atoms: C_21  and  C_22 
ROOT
HETATM    1  C   UNL     1      22.472  48.780  49.093  1.00  0.00     0.181 C 
ENDROOT
BRANCH   1   2
HETATM    2  C   UNL     1      23.826  48.239  49.648  1.00  0.00     0.245 C 
HETATM    3  N   UNL     1      23.764  46.963  50.188  1.00  0.00    -0.325 N 
HETATM    4  H   UNL     1      22.854  46.555  50.331  1.00  0.00     0.169 HD
HETATM    5  O   UNL     1      24.867  48.875  49.476  1.00  0.00    -0.271 OA
BRANCH   3   6
HETATM    6  C   UNL     1      24.846  46.143  50.593  1.00  0.00     0.037 A 
HETATM    7  C   UNL     1      25.273  46.011  51.920  1.00  0.00     0.063 A 
HETATM    8  C   UNL     1      26.391  45.207  52.202  1.00  0.00     0.087 A 
HETATM    9  N   UNL     1      27.006  44.948  53.403  1.00  0.00    -0.234 NA
HETATM   10  C   UNL     1      27.039  44.549  51.166  1.00  0.00     0.062 A 
HETATM   11  C   UNL     1      28.013  44.147  53.126  1.00  0.00     0.101 A 
HETATM   12  C   UNL     1      28.995  43.590  54.084  1.00  0.00     0.091 C 
HETATM   13  N   UNL     1      28.061  43.872  51.781  1.00  0.00    -0.343 N 
HETATM   14  H   UNL     1      28.741  43.282  51.324  1.00  0.00     0.167 HD
HETATM   15  C   UNL     1      26.639  44.641  49.835  1.00  0.00     0.034 A 
HETATM   16  C   UNL     1      25.531  45.459  49.573  1.00  0.00     0.032 A 
ENDBRANCH   3   6
ENDBRANCH   1   2
BRANCH   1  17
HETATM   17  N   UNL     1      22.115  48.049  47.873  1.00  0.00    -0.343 N 
HETATM   18  C   UNL     1      21.022  47.215  47.782  1.00  0.00     0.259 C 
HETATM   19  O   UNL     1      20.293  47.001  48.748  1.00  0.00    -0.267 OA
HETATM   20  H   UNL     1      22.565  48.312  47.006  1.00  0.00     0.163 HD
BRANCH  18  21
HETATM   21  C   UNL     1      20.813  46.578  46.487  1.00  0.00     0.072 A 
HETATM   22  S   UNL     1      19.394  46.828  45.556  1.00  0.00    -0.097 SA
HETATM   23  C   UNL     1      19.973  45.850  44.280  1.00  0.00     0.050 A 
HETATM   24  C   UNL     1      21.216  45.328  44.552  1.00  0.00     0.009 A 
HETATM   25  C   UNL     1      21.699  45.747  45.824  1.00  0.00     0.025 A 
ENDBRANCH  18  21
ENDBRANCH   1  17
BRANCH   1  26
HETATM   26  C   UNL     1      22.352  50.312  48.937  1.00  0.00     0.073 C 
BRANCH  26  27
HETATM   27  C   UNL     1      20.936  50.799  49.173  1.00  0.00    -0.056 A 
HETATM   28  C   UNL     1      20.110  50.158  50.108  1.00  0.00     0.007 A 
HETATM   29  C   UNL     1      18.788  50.572  50.284  1.00  0.00     0.001 A 
HETATM   30  C   UNL     1      18.278  51.623  49.525  1.00  0.00     0.000 A 
HETATM   31  C   UNL     1      19.092  52.270  48.597  1.00  0.00     0.001 A 
HETATM   32  C   UNL     1      20.416  51.864  48.426  1.00  0.00     0.007 A 
ENDBRANCH  26  27
ENDBRANCH   1  26
TORSDOF 6
ENDMDL
MODEL 7
REMARK VINA RESULT:      -8.5      2.175      5.145
REMARK  6 active torsions:
REMARK  status: ('A' for Active; 'I' for Inactive)
REMARK    1  A    between atoms: C_9  and  N_10 
REMARK       I    between atoms: N_10  and  C_11 
REMARK    2  A    between atoms: C_11  and  C_12 
REMARK    3  A    between atoms: C_12  and  N_13 
REMARK    4  A    between atoms: C_12  and  C_21 
REMARK       I    between atoms: N_13  and  C_14 
REMARK    5  A    between atoms: C_14  and  C_15 
REMARK    6  A    between atoms: C_21  and  C_22 
ROOT
HETATM    1  C   UNL     1      26.686  43.748  51.658  1.00  0.00     0.181 C 
ENDROOT
BRANCH   1   2
HETATM    2  C   UNL     1      25.491  44.734  51.486  1.00  0.00     0.245 C 
HETATM    3  N   UNL     1      25.523  45.490  50.323  1.00  0.00    -0.325 N 
HETATM    4  H   UNL     1      26.366  45.471  49.772  1.00  0.00     0.169 HD
HETATM    5  O   UNL     1      24.548  44.713  52.278  1.00  0.00    -0.271 OA
BRANCH   3   6
HETATM    6  C   UNL     1      24.500  46.320  49.804  1.00  0.00     0.037 A 
HETATM    7  C   UNL     1      24.424  47.701  50.029  1.00  0.00     0.063 A 
HETATM    8  C   UNL     1      23.337  48.421  49.506  1.00  0.00     0.087 A 
HETATM    9  N   UNL     1      23.033  49.757  49.615  1.00  0.00    -0.234 NA
HETATM   10  C   UNL     1      22.369  47.756  48.766  1.00  0.00     0.062 A 
HETATM   11  C   UNL     1      21.906  49.924  48.958  1.00  0.00     0.101 A 
HETATM   12  C   UNL     1      21.153  51.188  48.792  1.00  0.00     0.091 C 
HETATM   13  N   UNL     1      21.475  48.737  48.418  1.00  0.00    -0.343 N 
HETATM   14  H   UNL     1      20.637  48.608  47.871  1.00  0.00     0.167 HD
HETATM   15  C   UNL     1      22.412  46.389  48.506  1.00  0.00     0.034 A 
HETATM   16  C   UNL     1      23.498  45.686  49.048  1.00  0.00     0.032 A 
ENDBRANCH   3   6
ENDBRANCH   1   2
BRANCH   1  17
HETATM   17  N   UNL     1      27.561  44.221  52.736  1.00  0.00    -0.343 N 
HETATM   18  C   UNL     1      28.191  43.378  53.625  1.00  0.00     0.259 C 
HETATM   19  O   UNL     1      28.021  42.162  53.592  1.00  0.00    -0.267 OA
HETATM   20  H   UNL     1      27.877  45.181  52.711  1.00  0.00     0.163 HD
BRANCH  18  21
HETATM   21  C   UNL     1      29.034  44.023  54.625  1.00  0.00     0.072 A 
HETATM   22  S   UNL     1      28.624  45.524  55.346  1.00  0.00    -0.097 SA
HETATM   23  C   UNL     1      30.003  45.498  56.355  1.00  0.00     0.050 A 
HETATM   24  C   UNL     1      30.776  44.379  56.146  1.00  0.00     0.009 A 
HETATM   25  C   UNL     1      30.217  43.531  55.148  1.00  0.00     0.025 A 
ENDBRANCH  18  21
ENDBRANCH   1  17
BRANCH   1  26
HETATM   26  C   UNL     1      27.457  43.365  50.376  1.00  0.00     0.073 C 
BRANCH  26  27
HETATM   27  C   UNL     1      27.189  41.934  49.955  1.00  0.00    -0.056 A 
HETATM   28  C   UNL     1      26.018  41.607  49.255  1.00  0.00     0.007 A 
HETATM   29  C   UNL     1      25.745  40.280  48.916  1.00  0.00     0.001 A 
HETATM   30  C   UNL     1      26.633  39.269  49.279  1.00  0.00     0.000 A 
HETATM   31  C   UNL     1      27.801  39.584  49.971  1.00  0.00     0.001 A 
HETATM   32  C   UNL     1      28.080  40.911  50.302  1.00  0.00     0.007 A 
ENDBRANCH  26  27
ENDBRANCH   1  26
TORSDOF 6
ENDMDL
MODEL 8
REMARK VINA RESULT:      -8.4      2.785      8.435
REMARK  6 active torsions:
REMARK  status: ('A' for Active; 'I' for Inactive)
REMARK    1  A    between atoms: C_9  and  N_10 
REMARK       I    between atoms: N_10  and  C_11 
REMARK    2  A    between atoms: C_11  and  C_12 
REMARK    3  A    between atoms: C_12  and  N_13 
REMARK    4  A    between atoms: C_12  and  C_21 
REMARK       I    between atoms: N_13  and  C_14 
REMARK    5  A    between atoms: C_14  and  C_15 
REMARK    6  A    between atoms: C_21  and  C_22 
ROOT
HETATM    1  C   UNL     1      25.755  43.906  50.314  1.00  0.00     0.181 C 
ENDROOT
BRANCH   1   2
HETATM    2  C   UNL     1      26.308  43.783  51.767  1.00  0.00     0.245 C 
HETATM    3  N   UNL     1      27.689  43.860  51.872  1.00  0.00    -0.325 N 
HETATM    4  H   UNL     1      28.230  43.825  51.021  1.00  0.00     0.169 HD
HETATM    5  O   UNL     1      25.536  43.756  52.726  1.00  0.00    -0.271 OA
BRANCH   3   6
HETATM    6  C   UNL     1      28.462  43.968  53.054  1.00  0.00     0.037 A 
HETATM    7  C   UNL     1      28.243  44.932  54.045  1.00  0.00     0.063 A 
HETATM    8  C   UNL     1      29.103  44.980  55.156  1.00  0.00     0.087 A 
HETATM    9  N   UNL     1      29.107  45.839  56.229  1.00  0.00    -0.234 NA
HETATM   10  C   UNL     1      30.140  44.063  55.257  1.00  0.00     0.062 A 
HETATM   11  C   UNL     1      30.120  45.468  56.982  1.00  0.00     0.101 A 
HETATM   12  C   UNL     1      30.558  46.092  58.252  1.00  0.00     0.091 C 
HETATM   13  N   UNL     1      30.766  44.388  56.434  1.00  0.00    -0.343 N 
HETATM   14  H   UNL     1      31.571  43.921  56.825  1.00  0.00     0.167 HD
HETATM   15  C   UNL     1      30.385  43.079  54.303  1.00  0.00     0.034 A 
HETATM   16  C   UNL     1      29.524  43.057  53.195  1.00  0.00     0.032 A 
ENDBRANCH   3   6
ENDBRANCH   1   2
BRANCH   1  17
HETATM   17  N   UNL     1      26.063  45.238  49.784  1.00  0.00    -0.343 N 
HETATM   18  C   UNL     1      25.474  46.394  50.249  1.00  0.00     0.259 C 
HETATM   19  O   UNL     1      24.611  46.371  51.123  1.00  0.00    -0.267 OA
HETATM   20  H   UNL     1      26.878  45.344  49.194  1.00  0.00     0.163 HD
BRANCH  18  21
HETATM   21  C   UNL     1      25.910  47.631  49.613  1.00  0.00     0.072 A 
HETATM   22  S   UNL     1      24.806  48.776  48.970  1.00  0.00    -0.097 SA
HETATM   23  C   UNL     1      26.063  49.846  48.527  1.00  0.00     0.050 A 
HETATM   24  C   UNL     1      27.304  49.346  48.846  1.00  0.00     0.009 A 
HETATM   25  C   UNL     1      27.215  48.070  49.471  1.00  0.00     0.025 A 
ENDBRANCH  18  21
ENDBRANCH   1  17
BRANCH   1  26
HETATM   26  C   UNL     1      24.282  43.495  50.098  1.00  0.00     0.073 C 
BRANCH  26  27
HETATM   27  C   UNL     1      24.153  42.315  49.156  1.00  0.00    -0.056 A 
HETATM   28  C   UNL     1      25.271  41.527  48.845  1.00  0.00     0.007 A 
HETATM   29  C   UNL     1      25.163  40.475  47.934  1.00  0.00     0.001 A 
HETATM   30  C   UNL     1      23.941  40.203  47.321  1.00  0.00     0.000 A 
HETATM   31  C   UNL     1      22.823  40.976  47.627  1.00  0.00     0.001 A 
HETATM   32  C   UNL     1      22.926  42.023  48.545  1.00  0.00     0.007 A 
ENDBRANCH  26  27
ENDBRANCH   1  26
TORSDOF 6
ENDMDL
MODEL 9
REMARK VINA RESULT:      -8.4      2.799      7.512
REMARK  6 active torsions:
REMARK  status: ('A' for Active; 'I' for Inactive)
REMARK    1  A    between atoms: C_9  and  N_10 
REMARK       I    between atoms: N_10  and  C_11 
REMARK    2  A    between atoms: C_11  and  C_12 
REMARK    3  A    between atoms: C_12  and  N_13 
REMARK    4  A    between atoms: C_12  and  C_21 
REMARK       I    between atoms: N_13  and  C_14 
REMARK    5  A    between atoms: C_14  and  C_15 
REMARK    6  A    between atoms: C_21  and  C_22 
ROOT
HETATM    1  C   UNL     1      25.170  44.924  52.108  1.00  0.00     0.181 C 
ENDROOT
BRANCH   1   2
HETATM    2  C   UNL     1      26.351  44.039  51.606  1.00  0.00     0.245 C 
HETATM    3  N   UNL     1      26.106  42.673  51.631  1.00  0.00    -0.325 N 
HETATM    4  H   UNL     1      25.279  42.351  52.108  1.00  0.00     0.169 HD
HETATM    5  O   UNL     1      27.351  44.559  51.110  1.00  0.00    -0.271 OA
BRANCH   3   6
HETATM    6  C   UNL     1      26.900  41.643  51.071  1.00  0.00     0.037 A 
HETATM    7  C   UNL     1      26.712  41.122  49.785  1.00  0.00     0.063 A 
HETATM    8  C   UNL     1      27.528  40.064  49.348  1.00  0.00     0.087 A 
HETATM    9  N   UNL     1      27.516  39.379  48.157  1.00  0.00    -0.234 NA
HETATM   10  C   UNL     1      28.512  39.566  50.192  1.00  0.00     0.062 A 
HETATM   11  C   UNL     1      28.470  38.477  48.252  1.00  0.00     0.101 A 
HETATM   12  C   UNL     1      28.850  37.475  47.230  1.00  0.00     0.091 C 
HETATM   13  N   UNL     1      29.105  38.564  49.466  1.00  0.00    -0.343 N 
HETATM   14  H   UNL     1      29.869  37.982  49.776  1.00  0.00     0.167 HD
HETATM   15  C   UNL     1      28.743  40.063  51.472  1.00  0.00     0.034 A 
HETATM   16  C   UNL     1      27.909  41.109  51.894  1.00  0.00     0.032 A 
ENDBRANCH   3   6
ENDBRANCH   1   2
BRANCH   1  17
HETATM   17  N   UNL     1      25.146  46.182  51.356  1.00  0.00    -0.343 N 
HETATM   18  C   UNL     1      24.419  46.360  50.198  1.00  0.00     0.259 C 
HETATM   19  O   UNL     1      23.770  45.444  49.698  1.00  0.00    -0.267 OA
HETATM   20  H   UNL     1      25.513  47.014  51.799  1.00  0.00     0.163 HD
BRANCH  18  21
HETATM   21  C   UNL     1      24.504  47.682  49.590  1.00  0.00     0.072 A 
HETATM   22  S   UNL     1      23.114  48.588  49.156  1.00  0.00    -0.097 SA
HETATM   23  C   UNL     1      24.054  49.915  48.630  1.00  0.00     0.050 A 
HETATM   24  C   UNL     1      25.402  49.679  48.766  1.00  0.00     0.009 A 
HETATM   25  C   UNL     1      25.661  48.392  49.318  1.00  0.00     0.025 A 
ENDBRANCH  18  21
ENDBRANCH   1  17
BRANCH   1  26
HETATM   26  C   UNL     1      25.060  45.129  53.634  1.00  0.00     0.073 C 
BRANCH  26  27
HETATM   27  C   UNL     1      26.357  45.632  54.236  1.00  0.00    -0.056 A 
HETATM   28  C   UNL     1      26.621  47.008  54.307  1.00  0.00     0.007 A 
HETATM   29  C   UNL     1      27.839  47.469  54.811  1.00  0.00     0.001 A 
HETATM   30  C   UNL     1      28.805  46.562  55.242  1.00  0.00     0.000 A 
HETATM   31  C   UNL     1      28.551  45.193  55.180  1.00  0.00     0.001 A 
HETATM   32  C   UNL     1      27.330  44.730  54.686  1.00  0.00     0.007 A 
ENDBRANCH  26  27
ENDBRANCH   1  26
TORSDOF 6
ENDMDL
MODEL 10
REMARK VINA RESULT:      -8.2      2.573      7.868
REMARK  6 active torsions:
REMARK  status: ('A' for Active; 'I' for Inactive)
REMARK    1  A    between atoms: C_9  and  N_10 
REMARK       I    between atoms: N_10  and  C_11 
REMARK    2  A    between atoms: C_11  and  C_12 
REMARK    3  A    between atoms: C_12  and  N_13 
REMARK    4  A    between atoms: C_12  and  C_21 
REMARK       I    between atoms: N_13  and  C_14 
REMARK    5  A    between atoms: C_14  and  C_15 
REMARK    6  A    between atoms: C_21  and  C_22 
ROOT
HETATM    1  C   UNL     1      26.090  43.402  49.196  1.00  0.00     0.181 C 
ENDROOT
BRANCH   1   2
HETATM    2  C   UNL     1      27.016  44.030  50.282  1.00  0.00     0.245 C 
HETATM    3  N   UNL     1      27.066  43.330  51.479  1.00  0.00    -0.325 N 
HETATM    4  H   UNL     1      26.400  42.586  51.619  1.00  0.00     0.169 HD
HETATM    5  O   UNL     1      27.731  44.994  50.008  1.00  0.00    -0.271 OA
BRANCH   3   6
HETATM    6  C   UNL     1      27.946  43.542  52.568  1.00  0.00     0.037 A 
HETATM    7  C   UNL     1      27.718  44.474  53.588  1.00  0.00     0.063 A 
HETATM    8  C   UNL     1      28.684  44.637  54.595  1.00  0.00     0.087 A 
HETATM    9  N   UNL     1      28.697  45.494  55.670  1.00  0.00    -0.234 NA
HETATM   10  C   UNL     1      29.837  43.864  54.569  1.00  0.00     0.062 A 
HETATM   11  C   UNL     1      29.828  45.261  56.301  1.00  0.00     0.101 A 
HETATM   12  C   UNL     1      30.322  45.941  57.520  1.00  0.00     0.091 C 
HETATM   13  N   UNL     1      30.544  44.272  55.671  1.00  0.00    -0.343 N 
HETATM   14  H   UNL     1      31.442  43.916  55.964  1.00  0.00     0.167 HD
HETATM   15  C   UNL     1      30.098  42.917  53.582  1.00  0.00     0.034 A 
HETATM   16  C   UNL     1      29.128  42.779  52.578  1.00  0.00     0.032 A 
ENDBRANCH   3   6
ENDBRANCH   1   2
BRANCH   1  17
HETATM   17  N   UNL     1      25.068  44.377  48.801  1.00  0.00    -0.343 N 
HETATM   18  C   UNL     1      24.190  44.958  49.691  1.00  0.00     0.259 C 
HETATM   19  O   UNL     1      24.188  44.657  50.882  1.00  0.00    -0.267 OA
HETATM   20  H   UNL     1      25.130  44.792  47.881  1.00  0.00     0.163 HD
BRANCH  18  21
HETATM   21  C   UNL     1      23.248  45.915  49.124  1.00  0.00     0.072 A 
HETATM   22  S   UNL     1      21.775  45.433  48.390  1.00  0.00    -0.097 SA
HETATM   23  C   UNL     1      21.308  47.051  48.096  1.00  0.00     0.050 A 
HETATM   24  C   UNL     1      22.255  47.949  48.532  1.00  0.00     0.009 A 
HETATM   25  C   UNL     1      23.373  47.293  49.123  1.00  0.00     0.025 A 
ENDBRANCH  18  21
ENDBRANCH   1  17
BRANCH   1  26
HETATM   26  C   UNL     1      25.507  42.007  49.507  1.00  0.00     0.073 C 
BRANCH  26  27
HETATM   27  C   UNL     1      26.468  40.893  49.139  1.00  0.00    -0.056 A 
HETATM   28  C   UNL     1      26.470  39.689  49.860  1.00  0.00     0.007 A 
HETATM   29  C   UNL     1      27.393  38.686  49.557  1.00  0.00     0.001 A 
HETATM   30  C   UNL     1      28.324  38.878  48.539  1.00  0.00     0.000 A 
HETATM   31  C   UNL     1      28.328  40.068  47.814  1.00  0.00     0.001 A 
HETATM   32  C   UNL     1      27.401  41.068  48.109  1.00  0.00     0.007 A 
ENDBRANCH  26  27
ENDBRANCH   1  26
TORSDOF 6
ENDMDL
