MODEL 1
REMARK VINA RESULT:      -9.6      0.000      0.000
REMARK  2 active torsions:
REMARK  status: ('A' for Active; 'I' for Inactive)
REMARK    1  A    between atoms: C_9  and  C_10 
REMARK       I    between atoms: C_10  and  N_11 
REMARK    2  A    between atoms: N_11  and  C_12 
ROOT
HETATM    1  C   UNL     1      26.494  46.688  54.059  1.00  0.00     0.277 C 
HETATM    2  N   UNL     1      26.549  46.056  52.830  1.00  0.00    -0.322 N 
HETATM    3  O   UNL     1      25.647  47.495  54.424  1.00  0.00    -0.266 OA
HETATM    4  H   UNL     1      27.349  45.433  52.740  1.00  0.00     0.169 HD
ENDROOT
BRANCH   1   5
HETATM    5  C   UNL     1      27.616  46.281  54.927  1.00  0.00     0.157 A 
HETATM    6  C   UNL     1      28.512  45.187  54.734  1.00  0.00     0.029 A 
HETATM    7  C   UNL     1      28.680  44.169  53.775  1.00  0.00     0.023 A 
HETATM    8  C   UNL     1      29.379  45.234  55.818  1.00  0.00     0.063 A 
HETATM    9  C   UNL     1      29.709  43.226  53.937  1.00  0.00    -0.061 A 
HETATM   10  C   UNL     1      29.900  42.127  52.933  1.00  0.00     0.048 C 
HETATM   11  C   UNL     1      30.566  43.315  55.042  1.00  0.00     0.009 A 
HETATM   12  C   UNL     1      30.420  44.320  56.005  1.00  0.00     0.032 A 
HETATM   13  N   UNL     1      28.969  46.306  56.562  1.00  0.00    -0.277 N 
HETATM   14  H   UNL     1      29.377  46.640  57.427  1.00  0.00     0.189 HD
HETATM   15  N   UNL     1      27.901  46.955  56.066  1.00  0.00    -0.168 NA
ENDBRANCH   1   5
BRANCH   2  16
HETATM   16  C   UNL     1      25.676  46.179  51.738  1.00  0.00     0.037 A 
HETATM   17  C   UNL     1      25.567  47.327  50.951  1.00  0.00     0.069 A 
HETATM   18  C   UNL     1      24.654  47.373  49.891  1.00  0.00     0.104 A 
HETATM   19  C   UNL     1      23.869  46.258  49.591  1.00  0.00     0.102 A 
HETATM   20  O   UNL     1      24.655  48.509  49.128  1.00  0.00    -0.348 OA
HETATM   21  O   UNL     1      23.036  46.197  48.508  1.00  0.00    -0.348 OA
HETATM   22  C   UNL     1      23.995  45.099  50.351  1.00  0.00     0.042 A 
HETATM   23  C   UNL     1      21.981  47.156  48.585  1.00  0.00     0.178 C 
HETATM   24  C   UNL     1      22.425  48.538  48.134  1.00  0.00     0.053 C 
HETATM   25  C   UNL     1      23.385  49.161  49.135  1.00  0.00     0.178 C 
HETATM   26  C   UNL     1      24.882  45.066  51.430  1.00  0.00     0.032 A 
ENDBRANCH   2  16
TORSDOF 2
ENDMDL
MODEL 2
REMARK VINA RESULT:      -9.3      4.663      6.390
REMARK  2 active torsions:
REMARK  status: ('A' for Active; 'I' for Inactive)
REMARK    1  A    between atoms: C_9  and  C_10 
REMARK       I    between atoms: C_10  and  N_11 
REMARK    2  A    between atoms: N_11  and  C_12 
ROOT
HETATM    1  C   UNL     1      28.772  43.354  52.739  1.00  0.00     0.277 C 
HETATM    2  N   UNL     1      27.616  42.647  52.462  1.00  0.00    -0.322 N 
HETATM    3  O   UNL     1      29.855  43.225  52.180  1.00  0.00    -0.266 OA
HETATM    4  H   UNL     1      26.837  42.911  53.061  1.00  0.00     0.169 HD
ENDROOT
BRANCH   1   5
HETATM    5  C   UNL     1      28.564  44.323  53.833  1.00  0.00     0.157 A 
HETATM    6  C   UNL     1      29.337  44.471  55.023  1.00  0.00     0.029 A 
HETATM    7  C   UNL     1      30.465  43.841  55.586  1.00  0.00     0.023 A 
HETATM    8  C   UNL     1      28.737  45.513  55.717  1.00  0.00     0.063 A 
HETATM    9  C   UNL     1      30.950  44.273  56.832  1.00  0.00    -0.061 A 
HETATM   10  C   UNL     1      32.143  43.610  57.455  1.00  0.00     0.048 C 
HETATM   11  C   UNL     1      30.318  45.333  57.495  1.00  0.00     0.009 A 
HETATM   12  C   UNL     1      29.200  45.975  56.952  1.00  0.00     0.032 A 
HETATM   13  N   UNL     1      27.686  45.909  54.937  1.00  0.00    -0.277 N 
HETATM   14  H   UNL     1      27.026  46.652  55.133  1.00  0.00     0.189 HD
HETATM   15  N   UNL     1      27.540  45.208  53.799  1.00  0.00    -0.168 NA
ENDBRANCH   1   5
BRANCH   2  16
HETATM   16  C   UNL     1      27.408  41.642  51.505  1.00  0.00     0.037 A 
HETATM   17  C   UNL     1      28.281  40.574  51.291  1.00  0.00     0.069 A 
HETATM   18  C   UNL     1      28.008  39.626  50.298  1.00  0.00     0.104 A 
HETATM   19  C   UNL     1      26.842  39.721  49.537  1.00  0.00     0.102 A 
HETATM   20  O   UNL     1      28.879  38.575  50.196  1.00  0.00    -0.348 OA
HETATM   21  O   UNL     1      26.460  38.774  48.627  1.00  0.00    -0.348 OA
HETATM   22  C   UNL     1      25.950  40.764  49.767  1.00  0.00     0.042 A 
HETATM   23  C   UNL     1      27.384  38.665  47.544  1.00  0.00     0.178 C 
HETATM   24  C   UNL     1      28.586  37.805  47.897  1.00  0.00     0.053 C 
HETATM   25  C   UNL     1      29.485  38.505  48.905  1.00  0.00     0.178 C 
HETATM   26  C   UNL     1      26.241  41.730  50.734  1.00  0.00     0.032 A 
ENDBRANCH   2  16
TORSDOF 2
ENDMDL
MODEL 3
REMARK VINA RESULT:      -9.3      4.553      8.249
REMARK  2 active torsions:
REMARK  status: ('A' for Active; 'I' for Inactive)
REMARK    1  A    between atoms: C_9  and  C_10 
REMARK       I    between atoms: C_10  and  N_11 
REMARK    2  A    between atoms: N_11  and  C_12 
ROOT
HETATM    1  C   UNL     1      27.559  42.879  51.548  1.00  0.00     0.277 C 
HETATM    2  N   UNL     1      27.850  42.576  52.866  1.00  0.00    -0.322 N 
HETATM    3  O   UNL     1      27.777  43.944  50.982  1.00  0.00    -0.266 OA
HETATM    4  H   UNL     1      27.570  41.633  53.127  1.00  0.00     0.169 HD
ENDROOT
BRANCH   1   5
HETATM    5  C   UNL     1      26.923  41.739  50.860  1.00  0.00     0.157 A 
HETATM    6  C   UNL     1      27.509  40.478  50.541  1.00  0.00     0.029 A 
HETATM    7  C   UNL     1      28.769  39.872  50.713  1.00  0.00     0.023 A 
HETATM    8  C   UNL     1      26.504  39.763  49.903  1.00  0.00     0.063 A 
HETATM    9  C   UNL     1      28.982  38.567  50.236  1.00  0.00    -0.061 A 
HETATM   10  C   UNL     1      30.319  37.906  50.400  1.00  0.00     0.048 C 
HETATM   11  C   UNL     1      27.938  37.879  49.605  1.00  0.00     0.009 A 
HETATM   12  C   UNL     1      26.678  38.461  49.426  1.00  0.00     0.032 A 
HETATM   13  N   UNL     1      25.423  40.600  49.880  1.00  0.00    -0.277 N 
HETATM   14  H   UNL     1      24.509  40.405  49.490  1.00  0.00     0.189 HD
HETATM   15  N   UNL     1      25.639  41.806  50.435  1.00  0.00    -0.168 NA
ENDBRANCH   1   5
BRANCH   2  16
HETATM   16  C   UNL     1      28.447  43.387  53.844  1.00  0.00     0.037 A 
HETATM   17  C   UNL     1      29.679  43.113  54.440  1.00  0.00     0.069 A 
HETATM   18  C   UNL     1      30.192  43.964  55.425  1.00  0.00     0.104 A 
HETATM   19  C   UNL     1      29.492  45.114  55.796  1.00  0.00     0.102 A 
HETATM   20  O   UNL     1      31.436  43.663  55.912  1.00  0.00    -0.348 OA
HETATM   21  O   UNL     1      29.983  46.042  56.671  1.00  0.00    -0.348 OA
HETATM   22  C   UNL     1      28.278  45.410  55.183  1.00  0.00     0.042 A 
HETATM   23  C   UNL     1      30.168  45.504  57.980  1.00  0.00     0.178 C 
HETATM   24  C   UNL     1      31.472  44.732  58.106  1.00  0.00     0.053 C 
HETATM   25  C   UNL     1      31.418  43.432  57.320  1.00  0.00     0.178 C 
HETATM   26  C   UNL     1      27.749  44.541  54.225  1.00  0.00     0.032 A 
ENDBRANCH   2  16
TORSDOF 2
ENDMDL
MODEL 4
REMARK VINA RESULT:      -9.1      2.299      3.167
REMARK  2 active torsions:
REMARK  status: ('A' for Active; 'I' for Inactive)
REMARK    1  A    between atoms: C_9  and  C_10 
REMARK       I    between atoms: C_10  and  N_11 
REMARK    2  A    between atoms: N_11  and  C_12 
ROOT
HETATM    1  C   UNL     1      25.339  44.728  51.622  1.00  0.00     0.277 C 
HETATM    2  N   UNL     1      25.512  45.540  50.515  1.00  0.00    -0.322 N 
HETATM    3  O   UNL     1      24.298  44.567  52.249  1.00  0.00    -0.266 OA
HETATM    4  H   UNL     1      26.467  45.530  50.162  1.00  0.00     0.169 HD
ENDROOT
BRANCH   1   5
HETATM    5  C   UNL     1      26.594  44.048  51.995  1.00  0.00     0.157 A 
HETATM    6  C   UNL     1      27.436  44.325  53.113  1.00  0.00     0.029 A 
HETATM    7  C   UNL     1      27.433  45.244  54.182  1.00  0.00     0.023 A 
HETATM    8  C   UNL     1      28.478  43.413  53.017  1.00  0.00     0.063 A 
HETATM    9  C   UNL     1      28.481  45.220  55.118  1.00  0.00    -0.061 A 
HETATM   10  C   UNL     1      28.504  46.195  56.259  1.00  0.00     0.048 C 
HETATM   11  C   UNL     1      29.510  44.279  54.987  1.00  0.00     0.009 A 
HETATM   12  C   UNL     1      29.530  43.355  53.935  1.00  0.00     0.032 A 
HETATM   13  N   UNL     1      28.212  42.676  51.897  1.00  0.00    -0.277 N 
HETATM   14  H   UNL     1      28.764  41.914  51.521  1.00  0.00     0.189 HD
HETATM   15  N   UNL     1      27.091  43.036  51.245  1.00  0.00    -0.168 NA
ENDBRANCH   1   5
BRANCH   2  16
HETATM   16  C   UNL     1      24.570  46.349  49.862  1.00  0.00     0.037 A 
HETATM   17  C   UNL     1      24.607  47.745  49.861  1.00  0.00     0.069 A 
HETATM   18  C   UNL     1      23.614  48.477  49.201  1.00  0.00     0.104 A 
HETATM   19  C   UNL     1      22.597  47.818  48.508  1.00  0.00     0.102 A 
HETATM   20  O   UNL     1      23.758  49.839  49.190  1.00  0.00    -0.348 OA
HETATM   21  O   UNL     1      21.658  48.468  47.755  1.00  0.00    -0.348 OA
HETATM   22  C   UNL     1      22.572  46.427  48.478  1.00  0.00     0.042 A 
HETATM   23  C   UNL     1      20.827  49.318  48.546  1.00  0.00     0.178 C 
HETATM   24  C   UNL     1      21.486  50.657  48.836  1.00  0.00     0.053 C 
HETATM   25  C   UNL     1      22.650  50.499  49.801  1.00  0.00     0.178 C 
HETATM   26  C   UNL     1      23.544  45.696  49.166  1.00  0.00     0.032 A 
ENDBRANCH   2  16
TORSDOF 2
ENDMDL
MODEL 5
REMARK VINA RESULT:      -8.8      3.033      8.684
REMARK  2 active torsions:
REMARK  status: ('A' for Active; 'I' for Inactive)
REMARK    1  A    between atoms: C_9  and  C_10 
REMARK       I    between atoms: C_10  and  N_11 
REMARK    2  A    between atoms: N_11  and  C_12 
ROOT
HETATM    1  C   UNL     1      23.817  47.447  49.571  1.00  0.00     0.277 C 
HETATM    2  N   UNL     1      24.993  47.486  50.298  1.00  0.00    -0.322 N 
HETATM    3  O   UNL     1      23.226  46.440  49.198  1.00  0.00    -0.266 OA
HETATM    4  H   UNL     1      25.310  48.434  50.487  1.00  0.00     0.169 HD
ENDROOT
BRANCH   1   5
HETATM    5  C   UNL     1      23.322  48.805  49.270  1.00  0.00     0.157 A 
HETATM    6  C   UNL     1      21.968  49.219  49.095  1.00  0.00     0.029 A 
HETATM    7  C   UNL     1      20.704  48.596  49.123  1.00  0.00     0.023 A 
HETATM    8  C   UNL     1      22.037  50.581  48.834  1.00  0.00     0.063 A 
HETATM    9  C   UNL     1      19.550  49.360  48.882  1.00  0.00    -0.061 A 
HETATM   10  C   UNL     1      18.195  48.716  48.897  1.00  0.00     0.048 C 
HETATM   11  C   UNL     1      19.664  50.733  48.630  1.00  0.00     0.009 A 
HETATM   12  C   UNL     1      20.909  51.372  48.601  1.00  0.00     0.032 A 
HETATM   13  N   UNL     1      23.369  50.888  48.866  1.00  0.00    -0.277 N 
HETATM   14  H   UNL     1      23.789  51.799  48.720  1.00  0.00     0.189 HD
HETATM   15  N   UNL     1      24.178  49.842  49.113  1.00  0.00    -0.168 NA
ENDBRANCH   1   5
BRANCH   2  16
HETATM   16  C   UNL     1      25.772  46.418  50.770  1.00  0.00     0.037 A 
HETATM   17  C   UNL     1      25.929  46.104  52.121  1.00  0.00     0.069 A 
HETATM   18  C   UNL     1      26.743  45.033  52.507  1.00  0.00     0.104 A 
HETATM   19  C   UNL     1      27.377  44.248  51.541  1.00  0.00     0.102 A 
HETATM   20  O   UNL     1      26.793  44.749  53.845  1.00  0.00    -0.348 OA
HETATM   21  O   UNL     1      28.098  43.125  51.842  1.00  0.00    -0.348 OA
HETATM   22  C   UNL     1      27.198  44.535  50.192  1.00  0.00     0.042 A 
HETATM   23  C   UNL     1      29.250  43.421  52.631  1.00  0.00     0.178 C 
HETATM   24  C   UNL     1      28.915  43.570  54.106  1.00  0.00     0.053 C 
HETATM   25  C   UNL     1      28.120  44.841  54.363  1.00  0.00     0.178 C 
HETATM   26  C   UNL     1      26.414  45.626  49.808  1.00  0.00     0.032 A 
ENDBRANCH   2  16
TORSDOF 2
ENDMDL
MODEL 6
REMARK VINA RESULT:      -8.8      3.263      7.978
REMARK  2 active torsions:
REMARK  status: ('A' for Active; 'I' for Inactive)
REMARK    1  A    between atoms: C_9  and  C_10 
REMARK       I    between atoms: C_10  and  N_11 
REMARK    2  A    between atoms: N_11  and  C_12 
ROOT
HETATM    1  C   UNL     1      26.215  44.853  52.063  1.00  0.00     0.277 C 
HETATM    2  N   UNL     1      26.788  44.108  53.078  1.00  0.00    -0.322 N 
HETATM    3  O   UNL     1      26.427  46.036  51.822  1.00  0.00    -0.266 OA
HETATM    4  H   UNL     1      26.456  43.146  53.099  1.00  0.00     0.169 HD
ENDROOT
BRANCH   1   5
HETATM    5  C   UNL     1      25.272  44.046  51.266  1.00  0.00     0.157 A 
HETATM    6  C   UNL     1      25.585  43.047  50.296  1.00  0.00     0.029 A 
HETATM    7  C   UNL     1      26.762  42.492  49.754  1.00  0.00     0.023 A 
HETATM    8  C   UNL     1      24.357  42.588  49.839  1.00  0.00     0.063 A 
HETATM    9  C   UNL     1      26.667  41.497  48.767  1.00  0.00    -0.061 A 
HETATM   10  C   UNL     1      27.907  40.899  48.169  1.00  0.00     0.048 C 
HETATM   11  C   UNL     1      25.408  41.057  48.340  1.00  0.00     0.009 A 
HETATM   12  C   UNL     1      24.226  41.593  48.867  1.00  0.00     0.032 A 
HETATM   13  N   UNL     1      23.422  43.306  50.532  1.00  0.00    -0.277 N 
HETATM   14  H   UNL     1      22.414  43.232  50.455  1.00  0.00     0.189 HD
HETATM   15  N   UNL     1      23.933  44.205  51.393  1.00  0.00    -0.168 NA
ENDBRANCH   1   5
BRANCH   2  16
HETATM   16  C   UNL     1      27.722  44.510  54.046  1.00  0.00     0.037 A 
HETATM   17  C   UNL     1      28.946  43.873  54.262  1.00  0.00     0.069 A 
HETATM   18  C   UNL     1      29.810  44.326  55.265  1.00  0.00     0.104 A 
HETATM   19  C   UNL     1      29.471  45.441  56.034  1.00  0.00     0.102 A 
HETATM   20  O   UNL     1      31.018  43.691  55.369  1.00  0.00    -0.348 OA
HETATM   21  O   UNL     1      30.313  46.001  56.955  1.00  0.00    -0.348 OA
HETATM   22  C   UNL     1      28.268  46.100  55.802  1.00  0.00     0.042 A 
HETATM   23  C   UNL     1      30.602  45.110  58.032  1.00  0.00     0.178 C 
HETATM   24  C   UNL     1      31.695  44.114  57.677  1.00  0.00     0.053 C 
HETATM   25  C   UNL     1      31.202  43.100  56.656  1.00  0.00     0.178 C 
HETATM   26  C   UNL     1      27.389  45.626  54.825  1.00  0.00     0.032 A 
ENDBRANCH   2  16
TORSDOF 2
ENDMDL
MODEL 7
REMARK VINA RESULT:      -8.7      2.252      3.209
REMARK  2 active torsions:
REMARK  status: ('A' for Active; 'I' for Inactive)
REMARK    1  A    between atoms: C_9  and  C_10 
REMARK       I    between atoms: C_10  and  N_11 
REMARK    2  A    between atoms: N_11  and  C_12 
ROOT
HETATM    1  C   UNL     1      26.174  44.089  52.251  1.00  0.00     0.277 C 
HETATM    2  N   UNL     1      26.203  44.826  51.080  1.00  0.00    -0.322 N 
HETATM    3  O   UNL     1      25.214  43.953  53.000  1.00  0.00    -0.266 OA
HETATM    4  H   UNL     1      27.112  44.808  50.624  1.00  0.00     0.169 HD
ENDROOT
BRANCH   1   5
HETATM    5  C   UNL     1      27.479  43.457  52.524  1.00  0.00     0.157 A 
HETATM    6  C   UNL     1      28.400  43.776  53.567  1.00  0.00     0.029 A 
HETATM    7  C   UNL     1      28.452  44.705  54.625  1.00  0.00     0.023 A 
HETATM    8  C   UNL     1      29.463  42.900  53.392  1.00  0.00     0.063 A 
HETATM    9  C   UNL     1      29.573  44.728  55.472  1.00  0.00    -0.061 A 
HETATM   10  C   UNL     1      29.655  45.715  56.599  1.00  0.00     0.048 C 
HETATM   11  C   UNL     1      30.621  43.822  55.264  1.00  0.00     0.009 A 
HETATM   12  C   UNL     1      30.588  42.889  54.221  1.00  0.00     0.032 A 
HETATM   13  N   UNL     1      29.132  42.142  52.303  1.00  0.00    -0.277 N 
HETATM   14  H   UNL     1      29.679  41.397  51.889  1.00  0.00     0.189 HD
HETATM   15  N   UNL     1      27.949  42.456  51.743  1.00  0.00    -0.168 NA
ENDBRANCH   1   5
BRANCH   2  16
HETATM   16  C   UNL     1      25.175  45.573  50.485  1.00  0.00     0.037 A 
HETATM   17  C   UNL     1      24.131  45.013  49.745  1.00  0.00     0.069 A 
HETATM   18  C   UNL     1      23.157  45.834  49.166  1.00  0.00     0.104 A 
HETATM   19  C   UNL     1      23.201  47.217  49.353  1.00  0.00     0.102 A 
HETATM   20  O   UNL     1      22.131  45.205  48.513  1.00  0.00    -0.348 OA
HETATM   21  O   UNL     1      22.225  48.066  48.907  1.00  0.00    -0.348 OA
HETATM   22  C   UNL     1      24.220  47.778  50.117  1.00  0.00     0.042 A 
HETATM   23  C   UNL     1      22.125  48.071  47.483  1.00  0.00     0.178 C 
HETATM   24  C   UNL     1      21.310  46.899  46.959  1.00  0.00     0.053 C 
HETATM   25  C   UNL     1      22.057  45.587  47.140  1.00  0.00     0.178 C 
HETATM   26  C   UNL     1      25.212  46.962  50.665  1.00  0.00     0.032 A 
ENDBRANCH   2  16
TORSDOF 2
ENDMDL
MODEL 8
REMARK VINA RESULT:      -8.5      2.372      8.346
REMARK  2 active torsions:
REMARK  status: ('A' for Active; 'I' for Inactive)
REMARK    1  A    between atoms: C_9  and  C_10 
REMARK       I    between atoms: C_10  and  N_11 
REMARK    2  A    between atoms: N_11  and  C_12 
ROOT
HETATM    1  C   UNL     1      25.572  45.975  50.584  1.00  0.00     0.277 C 
HETATM    2  N   UNL     1      25.522  45.016  51.579  1.00  0.00    -0.322 N 
HETATM    3  O   UNL     1      26.536  46.676  50.298  1.00  0.00    -0.266 OA
HETATM    4  H   UNL     1      24.613  44.563  51.648  1.00  0.00     0.169 HD
ENDROOT
BRANCH   1   5
HETATM    5  C   UNL     1      24.285  46.080  49.870  1.00  0.00     0.157 A 
HETATM    6  C   UNL     1      23.724  47.238  49.252  1.00  0.00     0.029 A 
HETATM    7  C   UNL     1      24.102  48.586  49.091  1.00  0.00     0.023 A 
HETATM    8  C   UNL     1      22.513  46.814  48.721  1.00  0.00     0.063 A 
HETATM    9  C   UNL     1      23.248  49.468  48.406  1.00  0.00    -0.061 A 
HETATM   10  C   UNL     1      23.625  50.910  48.232  1.00  0.00     0.048 C 
HETATM   11  C   UNL     1      22.038  48.997  47.880  1.00  0.00     0.009 A 
HETATM   12  C   UNL     1      21.646  47.661  48.025  1.00  0.00     0.032 A 
HETATM   13  N   UNL     1      22.424  45.487  49.038  1.00  0.00    -0.277 N 
HETATM   14  H   UNL     1      21.668  44.853  48.805  1.00  0.00     0.189 HD
HETATM   15  N   UNL     1      23.466  45.009  49.741  1.00  0.00    -0.168 NA
ENDBRANCH   1   5
BRANCH   2  16
HETATM   16  C   UNL     1      26.529  44.624  52.475  1.00  0.00     0.037 A 
HETATM   17  C   UNL     1      26.775  45.254  53.696  1.00  0.00     0.069 A 
HETATM   18  C   UNL     1      27.816  44.813  54.521  1.00  0.00     0.104 A 
HETATM   19  C   UNL     1      28.594  43.716  54.146  1.00  0.00     0.102 A 
HETATM   20  O   UNL     1      27.950  45.440  55.731  1.00  0.00    -0.348 OA
HETATM   21  O   UNL     1      29.554  43.166  54.950  1.00  0.00    -0.348 OA
HETATM   22  C   UNL     1      28.332  43.063  52.945  1.00  0.00     0.042 A 
HETATM   23  C   UNL     1      30.623  44.075  55.211  1.00  0.00     0.178 C 
HETATM   24  C   UNL     1      30.287  45.055  56.324  1.00  0.00     0.053 C 
HETATM   25  C   UNL     1      29.231  46.053  55.876  1.00  0.00     0.178 C 
HETATM   26  C   UNL     1      27.316  43.526  52.105  1.00  0.00     0.032 A 
ENDBRANCH   2  16
TORSDOF 2
ENDMDL
MODEL 9
REMARK VINA RESULT:      -8.4      2.676      8.737
REMARK  2 active torsions:
REMARK  status: ('A' for Active; 'I' for Inactive)
REMARK    1  A    between atoms: C_9  and  C_10 
REMARK       I    between atoms: C_10  and  N_11 
REMARK    2  A    between atoms: N_11  and  C_12 
ROOT
HETATM    1  C   UNL     1      24.144  47.179  49.918  1.00  0.00     0.277 C 
HETATM    2  N   UNL     1      24.187  46.042  50.705  1.00  0.00    -0.322 N 
HETATM    3  O   UNL     1      24.885  48.152  50.005  1.00  0.00    -0.266 OA
HETATM    4  H   UNL     1      23.467  45.365  50.463  1.00  0.00     0.169 HD
ENDROOT
BRANCH   1   5
HETATM    5  C   UNL     1      23.062  47.103  48.918  1.00  0.00     0.157 A 
HETATM    6  C   UNL     1      22.123  48.121  48.572  1.00  0.00     0.029 A 
HETATM    7  C   UNL     1      21.861  49.442  48.986  1.00  0.00     0.023 A 
HETATM    8  C   UNL     1      21.324  47.557  47.587  1.00  0.00     0.063 A 
HETATM    9  C   UNL     1      20.800  50.154  48.400  1.00  0.00    -0.061 A 
HETATM   10  C   UNL     1      20.496  51.559  48.832  1.00  0.00     0.048 C 
HETATM   11  C   UNL     1      20.023  49.549  47.403  1.00  0.00     0.009 A 
HETATM   12  C   UNL     1      20.269  48.240  46.975  1.00  0.00     0.032 A 
HETATM   13  N   UNL     1      21.810  46.292  47.408  1.00  0.00    -0.277 N 
HETATM   14  H   UNL     1      21.467  45.592  46.760  1.00  0.00     0.189 HD
HETATM   15  N   UNL     1      22.849  45.975  48.201  1.00  0.00    -0.168 NA
ENDBRANCH   1   5
BRANCH   2  16
HETATM   16  C   UNL     1      25.060  45.736  51.761  1.00  0.00     0.037 A 
HETATM   17  C   UNL     1      25.387  46.624  52.786  1.00  0.00     0.069 A 
HETATM   18  C   UNL     1      26.285  46.244  53.790  1.00  0.00     0.104 A 
HETATM   19  C   UNL     1      26.834  44.961  53.794  1.00  0.00     0.102 A 
HETATM   20  O   UNL     1      26.503  47.148  54.795  1.00  0.00    -0.348 OA
HETATM   21  O   UNL     1      27.631  44.488  54.799  1.00  0.00    -0.348 OA
HETATM   22  C   UNL     1      26.486  44.058  52.793  1.00  0.00     0.042 A 
HETATM   23  C   UNL     1      28.855  45.216  54.904  1.00  0.00     0.178 C 
HETATM   24  C   UNL     1      28.688  46.513  55.679  1.00  0.00     0.053 C 
HETATM   25  C   UNL     1      27.876  47.526  54.887  1.00  0.00     0.178 C 
HETATM   26  C   UNL     1      25.617  44.450  51.771  1.00  0.00     0.032 A 
ENDBRANCH   2  16
TORSDOF 2
ENDMDL
MODEL 10
REMARK VINA RESULT:      -8.3      3.444      9.188
REMARK  2 active torsions:
REMARK  status: ('A' for Active; 'I' for Inactive)
REMARK    1  A    between atoms: C_9  and  C_10 
REMARK       I    between atoms: C_10  and  N_11 
REMARK    2  A    between atoms: N_11  and  C_12 
ROOT
HETATM    1  C   UNL     1      23.327  47.561  49.220  1.00  0.00     0.277 C 
HETATM    2  N   UNL     1      23.623  46.218  49.377  1.00  0.00    -0.322 N 
HETATM    3  O   UNL     1      23.895  48.499  49.767  1.00  0.00    -0.266 OA
HETATM    4  H   UNL     1      23.013  45.612  48.833  1.00  0.00     0.169 HD
ENDROOT
BRANCH   1   5
HETATM    5  C   UNL     1      22.201  47.760  48.288  1.00  0.00     0.157 A 
HETATM    6  C   UNL     1      21.190  48.765  48.346  1.00  0.00     0.029 A 
HETATM    7  C   UNL     1      20.875  49.839  49.203  1.00  0.00     0.023 A 
HETATM    8  C   UNL     1      20.375  48.523  47.249  1.00  0.00     0.063 A 
HETATM    9  C   UNL     1      19.747  50.633  48.932  1.00  0.00    -0.061 A 
HETATM   10  C   UNL     1      19.387  51.775  49.837  1.00  0.00     0.048 C 
HETATM   11  C   UNL     1      18.955  50.358  47.810  1.00  0.00     0.009 A 
HETATM   12  C   UNL     1      19.253  49.299  46.945  1.00  0.00     0.032 A 
HETATM   13  N   UNL     1      20.921  47.436  46.625  1.00  0.00    -0.277 N 
HETATM   14  H   UNL     1      20.585  46.982  45.784  1.00  0.00     0.189 HD
HETATM   15  N   UNL     1      22.015  46.938  47.228  1.00  0.00    -0.168 NA
ENDBRANCH   1   5
BRANCH   2  16
HETATM   16  C   UNL     1      24.613  45.623  50.174  1.00  0.00     0.037 A 
HETATM   17  C   UNL     1      24.365  45.029  51.413  1.00  0.00     0.069 A 
HETATM   18  C   UNL     1      25.416  44.477  52.154  1.00  0.00     0.104 A 
HETATM   19  C   UNL     1      26.716  44.485  51.645  1.00  0.00     0.102 A 
HETATM   20  O   UNL     1      25.080  43.854  53.326  1.00  0.00    -0.348 OA
HETATM   21  O   UNL     1      27.768  43.870  52.266  1.00  0.00    -0.348 OA
HETATM   22  C   UNL     1      26.965  45.046  50.397  1.00  0.00     0.042 A 
HETATM   23  C   UNL     1      28.060  44.453  53.536  1.00  0.00     0.178 C 
HETATM   24  C   UNL     1      27.142  43.933  54.632  1.00  0.00     0.053 C 
HETATM   25  C   UNL     1      25.724  44.451  54.453  1.00  0.00     0.178 C 
HETATM   26  C   UNL     1      25.922  45.629  49.673  1.00  0.00     0.032 A 
ENDBRANCH   2  16
TORSDOF 2
ENDMDL
