MODEL 1
REMARK VINA RESULT:     -10.7      0.000      0.000
REMARK  5 active torsions:
REMARK  status: ('A' for Active; 'I' for Inactive)
REMARK    1  A    between atoms: C_2  and  N_3 
REMARK    2  A    between atoms: C_10  and  C_11 
REMARK    3  A    between atoms: C_11  and  C_12 
REMARK    4  A    between atoms: C_12  and  C_13 
REMARK       I    between atoms: C_13  and  N_14 
REMARK    5  A    between atoms: N_14  and  C_15 
ROOT
HETATM    1  C   UNL     1      26.913  44.313  50.379  1.00  0.00     0.222 C 
HETATM    2  N   UNL     1      25.538  44.303  50.498  1.00  0.00    -0.327 N 
HETATM    3  O   UNL     1      27.553  45.056  49.638  1.00  0.00    -0.273 OA
HETATM    4  H   UNL     1      25.132  43.698  51.196  1.00  0.00     0.169 HD
ENDROOT
BRANCH   2   5
HETATM    5  C   UNL     1      24.601  45.072  49.772  1.00  0.00     0.035 A 
HETATM    6  C   UNL     1      24.401  46.442  49.933  1.00  0.00     0.049 A 
HETATM    7  C   UNL     1      23.415  47.136  49.193  1.00  0.00     0.061 A 
HETATM    8  C   UNL     1      22.618  46.436  48.276  1.00  0.00     0.050 A 
HETATM    9  C   UNL     1      23.418  48.615  49.347  1.00  0.00     0.256 C 
HETATM   10  N   UNL     1      21.564  46.964  47.512  1.00  0.00    -0.324 N 
HETATM   11  C   UNL     1      22.870  45.073  48.070  1.00  0.00     0.033 A 
HETATM   12  C   UNL     1      20.720  47.997  47.816  1.00  0.00     0.245 C 
HETATM   13  H   UNL     1      21.223  46.425  46.724  1.00  0.00     0.169 HD
HETATM   14  O   UNL     1      19.745  48.179  47.085  1.00  0.00    -0.271 OA
HETATM   15  C   UNL     1      20.909  48.721  49.147  1.00  0.00     0.180 C 
HETATM   16  N   UNL     1      22.237  49.306  49.229  1.00  0.00    -0.334 N 
HETATM   17  C   UNL     1      19.955  49.913  49.301  1.00  0.00     0.037 C 
HETATM   18  C   UNL     1      22.173  50.733  49.496  1.00  0.00     0.127 C 
HETATM   19  C   UNL     1      20.780  50.935  50.068  1.00  0.00     0.022 C 
HETATM   20  C   UNL     1      23.838  44.396  48.818  1.00  0.00     0.032 A 
HETATM   21  O   UNL     1      24.483  49.184  49.574  1.00  0.00    -0.267 OA
ENDBRANCH   2   5
BRANCH   1  22
HETATM   22  C   UNL     1      27.676  43.364  51.298  1.00  0.00     0.108 C 
BRANCH  22  23
HETATM   23  C   UNL     1      27.188  43.249  52.738  1.00  0.00     0.050 C 
BRANCH  23  24
HETATM   24  C   UNL     1      27.779  44.236  53.701  1.00  0.00    -0.030 A 
HETATM   25  C   UNL     1      27.236  45.529  53.996  1.00  0.00    -0.002 A 
HETATM   26  C   UNL     1      28.059  46.135  54.952  1.00  0.00     0.045 A 
HETATM   27  C   UNL     1      26.104  46.233  53.530  1.00  0.00     0.014 A 
HETATM   28  N   UNL     1      29.073  45.240  55.232  1.00  0.00    -0.352 N 
HETATM   29  C   UNL     1      27.783  47.420  55.452  1.00  0.00     0.030 A 
HETATM   30  C   UNL     1      28.911  44.102  54.478  1.00  0.00     0.099 A 
HETATM   31  C   UNL     1      26.657  48.094  54.973  1.00  0.00     0.002 A 
HETATM   32  C   UNL     1      25.826  47.511  54.023  1.00  0.00     0.001 A 
BRANCH  28  33
HETATM   33  C   UNL     1      30.158  45.445  56.194  1.00  0.00     0.081 C 
HETATM   34  C   UNL     1      31.115  44.252  56.229  1.00  0.00     0.032 C 
HETATM   35  C   UNL     1      29.620  45.774  57.587  1.00  0.00     0.032 C 
ENDBRANCH  28  33
ENDBRANCH  23  24
ENDBRANCH  22  23
ENDBRANCH   1  22
TORSDOF 5
ENDMDL
MODEL 2
REMARK VINA RESULT:     -10.4      0.829      2.528
REMARK  5 active torsions:
REMARK  status: ('A' for Active; 'I' for Inactive)
REMARK    1  A    between atoms: C_2  and  N_3 
REMARK    2  A    between atoms: C_10  and  C_11 
REMARK    3  A    between atoms: C_11  and  C_12 
REMARK    4  A    between atoms: C_12  and  C_13 
REMARK       I    between atoms: C_13  and  N_14 
REMARK    5  A    between atoms: N_14  and  C_15 
ROOT
HETATM    1  C   UNL     1      26.384  43.313  50.347  1.00  0.00     0.222 C 
HETATM    2  N   UNL     1      25.071  43.685  50.553  1.00  0.00    -0.327 N 
HETATM    3  O   UNL     1      27.117  43.764  49.469  1.00  0.00    -0.273 OA
HETATM    4  H   UNL     1      24.594  43.299  51.353  1.00  0.00     0.169 HD
ENDROOT
BRANCH   2   5
HETATM    5  C   UNL     1      24.295  44.582  49.785  1.00  0.00     0.035 A 
HETATM    6  C   UNL     1      24.239  45.961  49.990  1.00  0.00     0.049 A 
HETATM    7  C   UNL     1      23.407  46.790  49.201  1.00  0.00     0.061 A 
HETATM    8  C   UNL     1      22.621  46.221  48.190  1.00  0.00     0.050 A 
HETATM    9  C   UNL     1      23.564  48.252  49.421  1.00  0.00     0.256 C 
HETATM   10  N   UNL     1      21.706  46.894  47.364  1.00  0.00    -0.324 N 
HETATM   11  C   UNL     1      22.735  44.845  47.944  1.00  0.00     0.033 A 
HETATM   12  C   UNL     1      20.961  48.007  47.642  1.00  0.00     0.245 C 
HETATM   13  H   UNL     1      21.378  46.426  46.526  1.00  0.00     0.169 HD
HETATM   14  O   UNL     1      20.082  48.328  46.839  1.00  0.00    -0.271 OA
HETATM   15  C   UNL     1      21.111  48.657  49.014  1.00  0.00     0.180 C 
HETATM   16  N   UNL     1      22.484  49.081  49.235  1.00  0.00    -0.334 N 
HETATM   17  C   UNL     1      20.288  49.946  49.140  1.00  0.00     0.037 C 
HETATM   18  C   UNL     1      22.558  50.495  49.559  1.00  0.00     0.127 C 
HETATM   19  C   UNL     1      21.153  50.838  50.019  1.00  0.00     0.022 C 
HETATM   20  C   UNL     1      23.549  44.035  48.741  1.00  0.00     0.032 A 
HETATM   21  O   UNL     1      24.663  48.685  49.763  1.00  0.00    -0.267 OA
ENDBRANCH   2   5
BRANCH   1  22
HETATM   22  C   UNL     1      26.965  42.313  51.342  1.00  0.00     0.108 C 
BRANCH  22  23
HETATM   23  C   UNL     1      28.305  42.665  51.979  1.00  0.00     0.050 C 
BRANCH  23  24
HETATM   24  C   UNL     1      28.257  43.722  53.041  1.00  0.00    -0.030 A 
HETATM   25  C   UNL     1      29.173  43.833  54.138  1.00  0.00    -0.002 A 
HETATM   26  C   UNL     1      28.809  44.954  54.893  1.00  0.00     0.045 A 
HETATM   27  C   UNL     1      30.290  43.072  54.548  1.00  0.00     0.014 A 
HETATM   28  N   UNL     1      27.705  45.510  54.277  1.00  0.00    -0.352 N 
HETATM   29  C   UNL     1      29.527  45.332  56.042  1.00  0.00     0.030 A 
HETATM   30  C   UNL     1      27.368  44.769  53.169  1.00  0.00     0.099 A 
HETATM   31  C   UNL     1      30.627  44.560  56.424  1.00  0.00     0.002 A 
HETATM   32  C   UNL     1      31.006  43.443  55.689  1.00  0.00     0.001 A 
BRANCH  28  33
HETATM   33  C   UNL     1      26.994  46.714  54.712  1.00  0.00     0.081 C 
HETATM   34  C   UNL     1      25.771  46.995  53.838  1.00  0.00     0.032 C 
HETATM   35  C   UNL     1      27.927  47.925  54.777  1.00  0.00     0.032 C 
ENDBRANCH  28  33
ENDBRANCH  23  24
ENDBRANCH  22  23
ENDBRANCH   1  22
TORSDOF 5
ENDMDL
MODEL 3
REMARK VINA RESULT:     -10.4      2.211      9.522
REMARK  5 active torsions:
REMARK  status: ('A' for Active; 'I' for Inactive)
REMARK    1  A    between atoms: C_2  and  N_3 
REMARK    2  A    between atoms: C_10  and  C_11 
REMARK    3  A    between atoms: C_11  and  C_12 
REMARK    4  A    between atoms: C_12  and  C_13 
REMARK       I    between atoms: C_13  and  N_14 
REMARK    5  A    between atoms: N_14  and  C_15 
ROOT
HETATM    1  C   UNL     1      25.029  48.748  49.138  1.00  0.00     0.222 C 
HETATM    2  N   UNL     1      24.278  47.886  49.912  1.00  0.00    -0.327 N 
HETATM    3  O   UNL     1      26.255  48.743  49.062  1.00  0.00    -0.273 OA
HETATM    4  H   UNL     1      23.274  47.940  49.834  1.00  0.00     0.169 HD
ENDROOT
BRANCH   2   5
HETATM    5  C   UNL     1      24.745  46.892  50.800  1.00  0.00     0.035 A 
HETATM    6  C   UNL     1      25.412  47.145  51.999  1.00  0.00     0.049 A 
HETATM    7  C   UNL     1      25.882  46.092  52.817  1.00  0.00     0.061 A 
HETATM    8  C   UNL     1      25.677  44.763  52.422  1.00  0.00     0.050 A 
HETATM    9  C   UNL     1      26.431  46.501  54.138  1.00  0.00     0.256 C 
HETATM   10  N   UNL     1      26.130  43.613  53.090  1.00  0.00    -0.324 N 
HETATM   11  C   UNL     1      24.945  44.515  51.252  1.00  0.00     0.033 A 
HETATM   12  C   UNL     1      27.247  43.457  53.863  1.00  0.00     0.245 C 
HETATM   13  H   UNL     1      25.723  42.719  52.839  1.00  0.00     0.169 HD
HETATM   14  O   UNL     1      27.556  42.315  54.206  1.00  0.00    -0.271 OA
HETATM   15  C   UNL     1      28.155  44.665  54.078  1.00  0.00     0.180 C 
HETATM   16  N   UNL     1      27.427  45.750  54.714  1.00  0.00    -0.334 N 
HETATM   17  C   UNL     1      29.309  44.361  55.044  1.00  0.00     0.037 C 
HETATM   18  C   UNL     1      28.078  46.181  55.939  1.00  0.00     0.127 C 
HETATM   19  C   UNL     1      29.501  45.670  55.796  1.00  0.00     0.022 C 
HETATM   20  C   UNL     1      24.499  45.565  50.444  1.00  0.00     0.032 A 
HETATM   21  O   UNL     1      25.977  47.504  54.682  1.00  0.00    -0.267 OA
ENDBRANCH   2   5
BRANCH   1  22
HETATM   22  C   UNL     1      24.246  49.730  48.270  1.00  0.00     0.108 C 
BRANCH  22  23
HETATM   23  C   UNL     1      22.982  50.333  48.872  1.00  0.00     0.050 C 
BRANCH  23  24
HETATM   24  C   UNL     1      21.691  49.839  48.292  1.00  0.00    -0.030 A 
HETATM   25  C   UNL     1      20.490  50.613  48.169  1.00  0.00    -0.002 A 
HETATM   26  C   UNL     1      19.518  49.808  47.564  1.00  0.00     0.045 A 
HETATM   27  C   UNL     1      20.153  51.938  48.519  1.00  0.00     0.014 A 
HETATM   28  N   UNL     1      20.106  48.581  47.326  1.00  0.00    -0.352 N 
HETATM   29  C   UNL     1      18.223  50.289  47.302  1.00  0.00     0.030 A 
HETATM   30  C   UNL     1      21.408  48.595  47.767  1.00  0.00     0.099 A 
HETATM   31  C   UNL     1      17.917  51.605  47.660  1.00  0.00     0.002 A 
HETATM   32  C   UNL     1      18.868  52.422  48.261  1.00  0.00     0.001 A 
BRANCH  28  33
HETATM   33  C   UNL     1      19.463  47.430  46.687  1.00  0.00     0.081 C 
HETATM   34  C   UNL     1      18.698  46.577  47.700  1.00  0.00     0.032 C 
HETATM   35  C   UNL     1      20.469  46.593  45.895  1.00  0.00     0.032 C 
ENDBRANCH  28  33
ENDBRANCH  23  24
ENDBRANCH  22  23
ENDBRANCH   1  22
TORSDOF 5
ENDMDL
MODEL 4
REMARK VINA RESULT:      -9.8      2.209      9.618
REMARK  5 active torsions:
REMARK  status: ('A' for Active; 'I' for Inactive)
REMARK    1  A    between atoms: C_2  and  N_3 
REMARK    2  A    between atoms: C_10  and  C_11 
REMARK    3  A    between atoms: C_11  and  C_12 
REMARK    4  A    between atoms: C_12  and  C_13 
REMARK       I    between atoms: C_13  and  N_14 
REMARK    5  A    between atoms: N_14  and  C_15 
ROOT
HETATM    1  C   UNL     1      25.024  48.657  49.170  1.00  0.00     0.222 C 
HETATM    2  N   UNL     1      24.308  47.871  50.050  1.00  0.00    -0.327 N 
HETATM    3  O   UNL     1      26.223  48.536  48.930  1.00  0.00    -0.273 OA
HETATM    4  H   UNL     1      23.311  48.020  50.108  1.00  0.00     0.169 HD
ENDROOT
BRANCH   2   5
HETATM    5  C   UNL     1      24.795  46.837  50.880  1.00  0.00     0.035 A 
HETATM    6  C   UNL     1      25.469  47.035  52.085  1.00  0.00     0.049 A 
HETATM    7  C   UNL     1      25.959  45.946  52.843  1.00  0.00     0.061 A 
HETATM    8  C   UNL     1      25.768  44.637  52.379  1.00  0.00     0.050 A 
HETATM    9  C   UNL     1      26.514  46.291  54.179  1.00  0.00     0.256 C 
HETATM   10  N   UNL     1      26.242  43.460  52.981  1.00  0.00    -0.324 N 
HETATM   11  C   UNL     1      25.030  44.443  51.203  1.00  0.00     0.033 A 
HETATM   12  C   UNL     1      27.367  43.278  53.736  1.00  0.00     0.245 C 
HETATM   13  H   UNL     1      25.845  42.575  52.686  1.00  0.00     0.169 HD
HETATM   14  O   UNL     1      27.695  42.123  54.015  1.00  0.00    -0.271 OA
HETATM   15  C   UNL     1      28.262  44.485  54.008  1.00  0.00     0.180 C 
HETATM   16  N   UNL     1      27.524  45.524  54.707  1.00  0.00    -0.334 N 
HETATM   17  C   UNL     1      29.427  44.145  54.947  1.00  0.00     0.037 C 
HETATM   18  C   UNL     1      28.180  45.899  55.948  1.00  0.00     0.127 C 
HETATM   19  C   UNL     1      29.609  45.415  55.766  1.00  0.00     0.022 C 
HETATM   20  C   UNL     1      24.563  45.528  50.456  1.00  0.00     0.032 A 
HETATM   21  O   UNL     1      26.052  47.259  54.780  1.00  0.00    -0.267 OA
ENDBRANCH   2   5
BRANCH   1  22
HETATM   22  C   UNL     1      24.227  49.709  48.403  1.00  0.00     0.108 C 
BRANCH  22  23
HETATM   23  C   UNL     1      23.198  50.511  49.191  1.00  0.00     0.050 C 
BRANCH  23  24
HETATM   24  C   UNL     1      21.781  50.386  48.717  1.00  0.00    -0.030 A 
HETATM   25  C   UNL     1      21.238  49.254  48.025  1.00  0.00    -0.002 A 
HETATM   26  C   UNL     1      19.886  49.510  47.772  1.00  0.00     0.045 A 
HETATM   27  C   UNL     1      21.788  48.025  47.598  1.00  0.00     0.014 A 
HETATM   28  N   UNL     1      19.612  50.759  48.292  1.00  0.00    -0.352 N 
HETATM   29  C   UNL     1      19.072  48.576  47.106  1.00  0.00     0.030 A 
HETATM   30  C   UNL     1      20.748  51.290  48.854  1.00  0.00     0.099 A 
HETATM   31  C   UNL     1      19.643  47.369  46.694  1.00  0.00     0.002 A 
HETATM   32  C   UNL     1      20.984  47.094  46.935  1.00  0.00     0.001 A 
BRANCH  28  33
HETATM   33  C   UNL     1      18.310  51.431  48.273  1.00  0.00     0.081 C 
HETATM   34  C   UNL     1      18.056  52.133  46.938  1.00  0.00     0.032 C 
HETATM   35  C   UNL     1      18.156  52.394  49.451  1.00  0.00     0.032 C 
ENDBRANCH  28  33
ENDBRANCH  23  24
ENDBRANCH  22  23
ENDBRANCH   1  22
TORSDOF 5
ENDMDL
MODEL 5
REMARK VINA RESULT:      -9.8      2.083      3.353
REMARK  5 active torsions:
REMARK  status: ('A' for Active; 'I' for Inactive)
REMARK    1  A    between atoms: C_2  and  N_3 
REMARK    2  A    between atoms: C_10  and  C_11 
REMARK    3  A    between atoms: C_11  and  C_12 
REMARK    4  A    between atoms: C_12  and  C_13 
REMARK       I    between atoms: C_13  and  N_14 
REMARK    5  A    between atoms: N_14  and  C_15 
ROOT
HETATM    1  C   UNL     1      24.798  47.621  49.779  1.00  0.00     0.222 C 
HETATM    2  N   UNL     1      23.612  46.973  49.497  1.00  0.00    -0.327 N 
HETATM    3  O   UNL     1      25.030  48.805  49.543  1.00  0.00    -0.273 OA
HETATM    4  H   UNL     1      23.514  46.018  49.806  1.00  0.00     0.169 HD
ENDROOT
BRANCH   2   5
HETATM    5  C   UNL     1      22.475  47.497  48.842  1.00  0.00     0.035 A 
HETATM    6  C   UNL     1      21.941  48.766  49.065  1.00  0.00     0.049 A 
HETATM    7  C   UNL     1      20.775  49.204  48.395  1.00  0.00     0.061 A 
HETATM    8  C   UNL     1      20.137  48.349  47.485  1.00  0.00     0.050 A 
HETATM    9  C   UNL     1      20.410  50.630  48.607  1.00  0.00     0.256 C 
HETATM   10  N   UNL     1      18.947  48.611  46.787  1.00  0.00    -0.324 N 
HETATM   11  C   UNL     1      20.717  47.102  47.214  1.00  0.00     0.033 A 
HETATM   12  C   UNL     1      17.885  49.384  47.167  1.00  0.00     0.245 C 
HETATM   13  H   UNL     1      18.715  48.024  45.993  1.00  0.00     0.169 HD
HETATM   14  O   UNL     1      16.860  49.332  46.484  1.00  0.00    -0.271 OA
HETATM   15  C   UNL     1      17.950  50.096  48.516  1.00  0.00     0.180 C 
HETATM   16  N   UNL     1      19.087  50.999  48.566  1.00  0.00    -0.334 N 
HETATM   17  C   UNL     1      16.732  50.999  48.756  1.00  0.00     0.037 C 
HETATM   18  C   UNL     1      18.676  52.354  48.891  1.00  0.00     0.127 C 
HETATM   19  C   UNL     1      17.308  52.177  49.528  1.00  0.00     0.022 C 
HETATM   20  C   UNL     1      21.861  46.675  47.894  1.00  0.00     0.032 A 
HETATM   21  O   UNL     1      21.306  51.446  48.812  1.00  0.00    -0.267 OA
ENDBRANCH   2   5
BRANCH   1  22
HETATM   22  C   UNL     1      25.862  46.797  50.498  1.00  0.00     0.108 C 
BRANCH  22  23
HETATM   23  C   UNL     1      25.372  45.703  51.441  1.00  0.00     0.050 C 
BRANCH  23  24
HETATM   24  C   UNL     1      26.401  45.158  52.387  1.00  0.00    -0.030 A 
HETATM   25  C   UNL     1      26.922  45.851  53.529  1.00  0.00    -0.002 A 
HETATM   26  C   UNL     1      27.840  45.006  54.164  1.00  0.00     0.045 A 
HETATM   27  C   UNL     1      26.683  47.130  54.077  1.00  0.00     0.014 A 
HETATM   28  N   UNL     1      27.877  43.835  53.433  1.00  0.00    -0.352 N 
HETATM   29  C   UNL     1      28.523  45.404  55.327  1.00  0.00     0.030 A 
HETATM   30  C   UNL     1      27.019  43.926  52.363  1.00  0.00     0.099 A 
HETATM   31  C   UNL     1      28.267  46.675  55.848  1.00  0.00     0.002 A 
HETATM   32  C   UNL     1      27.359  47.530  55.233  1.00  0.00     0.001 A 
BRANCH  28  33
HETATM   33  C   UNL     1      28.690  42.656  53.742  1.00  0.00     0.081 C 
HETATM   34  C   UNL     1      30.106  42.782  53.178  1.00  0.00     0.032 C 
HETATM   35  C   UNL     1      28.012  41.368  53.274  1.00  0.00     0.032 C 
ENDBRANCH  28  33
ENDBRANCH  23  24
ENDBRANCH  22  23
ENDBRANCH   1  22
TORSDOF 5
ENDMDL
MODEL 6
REMARK VINA RESULT:      -9.8      1.704      3.032
REMARK  5 active torsions:
REMARK  status: ('A' for Active; 'I' for Inactive)
REMARK    1  A    between atoms: C_2  and  N_3 
REMARK    2  A    between atoms: C_10  and  C_11 
REMARK    3  A    between atoms: C_11  and  C_12 
REMARK    4  A    between atoms: C_12  and  C_13 
REMARK       I    between atoms: C_13  and  N_14 
REMARK    5  A    between atoms: N_14  and  C_15 
ROOT
HETATM    1  C   UNL     1      24.603  43.520  50.287  1.00  0.00     0.222 C 
HETATM    2  N   UNL     1      24.288  44.204  49.131  1.00  0.00    -0.327 N 
HETATM    3  O   UNL     1      23.875  43.426  51.274  1.00  0.00    -0.273 OA
HETATM    4  H   UNL     1      24.937  44.148  48.361  1.00  0.00     0.169 HD
ENDROOT
BRANCH   2   5
HETATM    5  C   UNL     1      23.131  44.971  48.867  1.00  0.00     0.035 A 
HETATM    6  C   UNL     1      23.101  46.362  48.780  1.00  0.00     0.049 A 
HETATM    7  C   UNL     1      21.893  47.061  48.548  1.00  0.00     0.061 A 
HETATM    8  C   UNL     1      20.696  46.345  48.403  1.00  0.00     0.050 A 
HETATM    9  C   UNL     1      22.030  48.524  48.320  1.00  0.00     0.256 C 
HETATM   10  N   UNL     1      19.413  46.889  48.228  1.00  0.00    -0.324 N 
HETATM   11  C   UNL     1      20.745  44.944  48.423  1.00  0.00     0.033 A 
HETATM   12  C   UNL     1      18.920  48.081  48.684  1.00  0.00     0.245 C 
HETATM   13  H   UNL     1      18.672  46.280  47.903  1.00  0.00     0.169 HD
HETATM   14  O   UNL     1      17.709  48.283  48.574  1.00  0.00    -0.271 OA
HETATM   15  C   UNL     1      19.846  48.991  49.486  1.00  0.00     0.180 C 
HETATM   16  N   UNL     1      21.010  49.363  48.698  1.00  0.00    -0.334 N 
HETATM   17  C   UNL     1      19.182  50.328  49.842  1.00  0.00     0.037 C 
HETATM   18  C   UNL     1      21.153  50.805  48.610  1.00  0.00     0.127 C 
HETATM   19  C   UNL     1      20.329  51.327  49.774  1.00  0.00     0.022 C 
HETATM   20  C   UNL     1      21.942  44.267  48.667  1.00  0.00     0.032 A 
HETATM   21  O   UNL     1      23.058  48.947  47.795  1.00  0.00    -0.267 OA
ENDBRANCH   2   5
BRANCH   1  22
HETATM   22  C   UNL     1      25.936  42.777  50.290  1.00  0.00     0.108 C 
BRANCH  22  23
HETATM   23  C   UNL     1      27.200  43.620  50.421  1.00  0.00     0.050 C 
BRANCH  23  24
HETATM   24  C   UNL     1      27.455  44.193  51.783  1.00  0.00    -0.030 A 
HETATM   25  C   UNL     1      28.481  43.755  52.684  1.00  0.00    -0.002 A 
HETATM   26  C   UNL     1      28.409  44.545  53.837  1.00  0.00     0.045 A 
HETATM   27  C   UNL     1      29.472  42.752  52.609  1.00  0.00     0.014 A 
HETATM   28  N   UNL     1      27.371  45.437  53.646  1.00  0.00    -0.352 N 
HETATM   29  C   UNL     1      29.295  44.360  54.913  1.00  0.00     0.030 A 
HETATM   30  C   UNL     1      26.793  45.223  52.417  1.00  0.00     0.099 A 
HETATM   31  C   UNL     1      30.265  43.360  54.812  1.00  0.00     0.002 A 
HETATM   32  C   UNL     1      30.355  42.563  53.676  1.00  0.00     0.001 A 
BRANCH  28  33
HETATM   33  C   UNL     1      26.943  46.471  54.591  1.00  0.00     0.081 C 
HETATM   34  C   UNL     1      25.790  47.305  54.031  1.00  0.00     0.032 C 
HETATM   35  C   UNL     1      28.115  47.354  55.026  1.00  0.00     0.032 C 
ENDBRANCH  28  33
ENDBRANCH  23  24
ENDBRANCH  22  23
ENDBRANCH   1  22
TORSDOF 5
ENDMDL
MODEL 7
REMARK VINA RESULT:      -9.7      2.358      3.885
REMARK  5 active torsions:
REMARK  status: ('A' for Active; 'I' for Inactive)
REMARK    1  A    between atoms: C_2  and  N_3 
REMARK    2  A    between atoms: C_10  and  C_11 
REMARK    3  A    between atoms: C_11  and  C_12 
REMARK    4  A    between atoms: C_12  and  C_13 
REMARK       I    between atoms: C_13  and  N_14 
REMARK    5  A    between atoms: N_14  and  C_15 
ROOT
HETATM    1  C   UNL     1      25.935  46.945  52.115  1.00  0.00     0.222 C 
HETATM    2  N   UNL     1      25.186  45.810  51.878  1.00  0.00    -0.327 N 
HETATM    3  O   UNL     1      26.306  47.739  51.254  1.00  0.00    -0.273 OA
HETATM    4  H   UNL     1      24.878  45.275  52.676  1.00  0.00     0.169 HD
ENDROOT
BRANCH   2   5
HETATM    5  C   UNL     1      24.755  45.302  50.631  1.00  0.00     0.035 A 
HETATM    6  C   UNL     1      23.801  45.906  49.813  1.00  0.00     0.049 A 
HETATM    7  C   UNL     1      23.396  45.315  48.593  1.00  0.00     0.061 A 
HETATM    8  C   UNL     1      23.960  44.096  48.193  1.00  0.00     0.050 A 
HETATM    9  C   UNL     1      22.493  46.141  47.748  1.00  0.00     0.256 C 
HETATM   10  N   UNL     1      23.625  43.356  47.047  1.00  0.00    -0.324 N 
HETATM   11  C   UNL     1      24.968  43.530  48.986  1.00  0.00     0.033 A 
HETATM   12  C   UNL     1      22.423  43.282  46.398  1.00  0.00     0.245 C 
HETATM   13  H   UNL     1      24.257  42.624  46.744  1.00  0.00     0.169 HD
HETATM   14  O   UNL     1      22.295  42.429  45.518  1.00  0.00    -0.271 OA
HETATM   15  C   UNL     1      21.255  44.103  46.937  1.00  0.00     0.180 C 
HETATM   16  N   UNL     1      21.577  45.520  46.934  1.00  0.00    -0.334 N 
HETATM   17  C   UNL     1      20.007  43.992  46.050  1.00  0.00     0.037 C 
HETATM   18  C   UNL     1      20.594  46.287  46.188  1.00  0.00     0.127 C 
HETATM   19  C   UNL     1      19.380  45.375  46.140  1.00  0.00     0.022 C 
HETATM   20  C   UNL     1      25.350  44.117  50.196  1.00  0.00     0.032 A 
HETATM   21  O   UNL     1      22.592  47.365  47.798  1.00  0.00    -0.267 OA
ENDBRANCH   2   5
BRANCH   1  22
HETATM   22  C   UNL     1      26.257  47.246  53.576  1.00  0.00     0.108 C 
BRANCH  22  23
HETATM   23  C   UNL     1      26.238  46.072  54.547  1.00  0.00     0.050 C 
BRANCH  23  24
HETATM   24  C   UNL     1      27.580  45.497  54.893  1.00  0.00    -0.030 A 
HETATM   25  C   UNL     1      28.272  44.500  54.131  1.00  0.00    -0.002 A 
HETATM   26  C   UNL     1      29.494  44.243  54.764  1.00  0.00     0.045 A 
HETATM   27  C   UNL     1      27.960  43.796  52.947  1.00  0.00     0.014 A 
HETATM   28  N   UNL     1      29.545  45.059  55.878  1.00  0.00    -0.352 N 
HETATM   29  C   UNL     1      30.407  43.306  54.250  1.00  0.00     0.030 A 
HETATM   30  C   UNL     1      28.396  45.808  55.961  1.00  0.00     0.099 A 
HETATM   31  C   UNL     1      30.072  42.624  53.077  1.00  0.00     0.002 A 
HETATM   32  C   UNL     1      28.864  42.863  52.432  1.00  0.00     0.001 A 
BRANCH  28  33
HETATM   33  C   UNL     1      30.654  45.140  56.832  1.00  0.00     0.081 C 
HETATM   34  C   UNL     1      31.162  43.753  57.228  1.00  0.00     0.032 C 
HETATM   35  C   UNL     1      30.280  45.972  58.059  1.00  0.00     0.032 C 
ENDBRANCH  28  33
ENDBRANCH  23  24
ENDBRANCH  22  23
ENDBRANCH   1  22
TORSDOF 5
ENDMDL
MODEL 8
REMARK VINA RESULT:      -9.4      2.597      9.031
REMARK  5 active torsions:
REMARK  status: ('A' for Active; 'I' for Inactive)
REMARK    1  A    between atoms: C_2  and  N_3 
REMARK    2  A    between atoms: C_10  and  C_11 
REMARK    3  A    between atoms: C_11  and  C_12 
REMARK    4  A    between atoms: C_12  and  C_13 
REMARK       I    between atoms: C_13  and  N_14 
REMARK    5  A    between atoms: N_14  and  C_15 
ROOT
HETATM    1  C   UNL     1      22.266  44.207  48.435  1.00  0.00     0.222 C 
HETATM    2  N   UNL     1      23.611  43.906  48.361  1.00  0.00    -0.327 N 
HETATM    3  O   UNL     1      21.550  44.008  49.415  1.00  0.00    -0.273 OA
HETATM    4  H   UNL     1      24.109  44.184  47.528  1.00  0.00     0.169 HD
ENDROOT
BRANCH   2   5
HETATM    5  C   UNL     1      24.410  43.269  49.336  1.00  0.00     0.035 A 
HETATM    6  C   UNL     1      24.803  43.846  50.544  1.00  0.00     0.049 A 
HETATM    7  C   UNL     1      25.637  43.155  51.454  1.00  0.00     0.061 A 
HETATM    8  C   UNL     1      26.082  41.864  51.142  1.00  0.00     0.050 A 
HETATM    9  C   UNL     1      25.845  43.822  52.767  1.00  0.00     0.256 C 
HETATM   10  N   UNL     1      26.955  41.074  51.907  1.00  0.00    -0.324 N 
HETATM   11  C   UNL     1      25.628  41.264  49.959  1.00  0.00     0.033 A 
HETATM   12  C   UNL     1      27.963  41.474  52.741  1.00  0.00     0.245 C 
HETATM   13  H   UNL     1      27.015  40.083  51.701  1.00  0.00     0.169 HD
HETATM   14  O   UNL     1      28.729  40.611  53.175  1.00  0.00    -0.271 OA
HETATM   15  C   UNL     1      28.211  42.970  52.914  1.00  0.00     0.180 C 
HETATM   16  N   UNL     1      27.028  43.630  53.439  1.00  0.00    -0.334 N 
HETATM   17  C   UNL     1      29.305  43.262  53.950  1.00  0.00     0.037 C 
HETATM   18  C   UNL     1      27.324  44.359  54.660  1.00  0.00     0.127 C 
HETATM   19  C   UNL     1      28.831  44.545  54.618  1.00  0.00     0.022 C 
HETATM   20  C   UNL     1      24.816  41.962  49.061  1.00  0.00     0.032 A 
HETATM   21  O   UNL     1      24.949  44.531  53.219  1.00  0.00    -0.267 OA
ENDBRANCH   2   5
BRANCH   1  22
HETATM   22  C   UNL     1      21.661  44.899  47.216  1.00  0.00     0.108 C 
BRANCH  22  23
HETATM   23  C   UNL     1      22.050  46.354  46.980  1.00  0.00     0.050 C 
BRANCH  23  24
HETATM   24  C   UNL     1      21.313  47.362  47.810  1.00  0.00    -0.030 A 
HETATM   25  C   UNL     1      21.819  48.648  48.190  1.00  0.00    -0.002 A 
HETATM   26  C   UNL     1      20.832  49.296  48.941  1.00  0.00     0.045 A 
HETATM   27  C   UNL     1      23.039  49.317  47.951  1.00  0.00     0.014 A 
HETATM   28  N   UNL     1      19.756  48.433  49.017  1.00  0.00    -0.352 N 
HETATM   29  C   UNL     1      21.031  50.589  49.458  1.00  0.00     0.030 A 
HETATM   30  C   UNL     1      20.044  47.269  48.345  1.00  0.00     0.099 A 
HETATM   31  C   UNL     1      22.248  51.227  49.206  1.00  0.00     0.002 A 
HETATM   32  C   UNL     1      23.243  50.602  48.463  1.00  0.00     0.001 A 
BRANCH  28  33
HETATM   33  C   UNL     1      18.486  48.703  49.694  1.00  0.00     0.081 C 
HETATM   34  C   UNL     1      18.617  48.577  51.213  1.00  0.00     0.032 C 
HETATM   35  C   UNL     1      17.362  47.818  49.152  1.00  0.00     0.032 C 
ENDBRANCH  28  33
ENDBRANCH  23  24
ENDBRANCH  22  23
ENDBRANCH   1  22
TORSDOF 5
ENDMDL
MODEL 9
REMARK VINA RESULT:      -9.4      2.623      4.720
REMARK  5 active torsions:
REMARK  status: ('A' for Active; 'I' for Inactive)
REMARK    1  A    between atoms: C_2  and  N_3 
REMARK    2  A    between atoms: C_10  and  C_11 
REMARK    3  A    between atoms: C_11  and  C_12 
REMARK    4  A    between atoms: C_12  and  C_13 
REMARK       I    between atoms: C_13  and  N_14 
REMARK    5  A    between atoms: N_14  and  C_15 
ROOT
HETATM    1  C   UNL     1      23.468  47.144  49.271  1.00  0.00     0.222 C 
HETATM    2  N   UNL     1      23.042  48.378  49.718  1.00  0.00    -0.327 N 
HETATM    3  O   UNL     1      22.953  46.508  48.354  1.00  0.00    -0.273 OA
HETATM    4  H   UNL     1      23.591  48.835  50.430  1.00  0.00     0.169 HD
ENDROOT
BRANCH   2   5
HETATM    5  C   UNL     1      21.923  49.120  49.276  1.00  0.00     0.035 A 
HETATM    6  C   UNL     1      20.610  48.649  49.266  1.00  0.00     0.049 A 
HETATM    7  C   UNL     1      19.547  49.441  48.773  1.00  0.00     0.061 A 
HETATM    8  C   UNL     1      19.811  50.726  48.281  1.00  0.00     0.050 A 
HETATM    9  C   UNL     1      18.184  48.879  48.968  1.00  0.00     0.256 C 
HETATM   10  N   UNL     1      18.881  51.608  47.706  1.00  0.00    -0.324 N 
HETATM   11  C   UNL     1      21.122  51.219  48.357  1.00  0.00     0.033 A 
HETATM   12  C   UNL     1      17.748  51.316  47.000  1.00  0.00     0.245 C 
HETATM   13  H   UNL     1      19.140  52.584  47.607  1.00  0.00     0.169 HD
HETATM   14  O   UNL     1      17.171  52.242  46.426  1.00  0.00    -0.271 OA
HETATM   15  C   UNL     1      17.384  49.849  46.785  1.00  0.00     0.180 C 
HETATM   16  N   UNL     1      17.197  49.174  48.059  1.00  0.00    -0.334 N 
HETATM   17  C   UNL     1      16.041  49.682  46.062  1.00  0.00     0.037 C 
HETATM   18  C   UNL     1      15.889  48.548  48.141  1.00  0.00     0.127 C 
HETATM   19  C   UNL     1      15.448  48.430  46.692  1.00  0.00     0.022 C 
HETATM   20  C   UNL     1      22.166  50.421  48.834  1.00  0.00     0.032 A 
HETATM   21  O   UNL     1      17.973  48.164  49.945  1.00  0.00    -0.267 OA
ENDBRANCH   2   5
BRANCH   1  22
HETATM   22  C   UNL     1      24.717  46.578  49.942  1.00  0.00     0.108 C 
BRANCH  22  23
HETATM   23  C   UNL     1      24.963  46.973  51.393  1.00  0.00     0.050 C 
BRANCH  23  24
HETATM   24  C   UNL     1      25.924  46.101  52.146  1.00  0.00    -0.030 A 
HETATM   25  C   UNL     1      26.544  46.439  53.393  1.00  0.00    -0.002 A 
HETATM   26  C   UNL     1      27.352  45.364  53.779  1.00  0.00     0.045 A 
HETATM   27  C   UNL     1      26.479  47.575  54.230  1.00  0.00     0.014 A 
HETATM   28  N   UNL     1      27.229  44.399  52.798  1.00  0.00    -0.352 N 
HETATM   29  C   UNL     1      28.095  45.393  54.973  1.00  0.00     0.030 A 
HETATM   30  C   UNL     1      26.377  44.841  51.814  1.00  0.00     0.099 A 
HETATM   31  C   UNL     1      28.012  46.530  55.782  1.00  0.00     0.002 A 
HETATM   32  C   UNL     1      27.215  47.609  55.417  1.00  0.00     0.001 A 
BRANCH  28  33
HETATM   33  C   UNL     1      27.886  43.090  52.795  1.00  0.00     0.081 C 
HETATM   34  C   UNL     1      29.389  43.213  52.537  1.00  0.00     0.032 C 
HETATM   35  C   UNL     1      27.224  42.131  51.804  1.00  0.00     0.032 C 
ENDBRANCH  28  33
ENDBRANCH  23  24
ENDBRANCH  22  23
ENDBRANCH   1  22
TORSDOF 5
ENDMDL
MODEL 10
REMARK VINA RESULT:      -9.0      2.641      9.091
REMARK  5 active torsions:
REMARK  status: ('A' for Active; 'I' for Inactive)
REMARK    1  A    between atoms: C_2  and  N_3 
REMARK    2  A    between atoms: C_10  and  C_11 
REMARK    3  A    between atoms: C_11  and  C_12 
REMARK    4  A    between atoms: C_12  and  C_13 
REMARK       I    between atoms: C_13  and  N_14 
REMARK    5  A    between atoms: N_14  and  C_15 
ROOT
HETATM    1  C   UNL     1      22.344  44.905  47.698  1.00  0.00     0.222 C 
HETATM    2  N   UNL     1      22.431  44.646  49.051  1.00  0.00    -0.327 N 
HETATM    3  O   UNL     1      23.110  44.466  46.843  1.00  0.00    -0.273 OA
HETATM    4  H   UNL     1      21.699  45.005  49.645  1.00  0.00     0.169 HD
ENDROOT
BRANCH   2   5
HETATM    5  C   UNL     1      23.422  43.899  49.726  1.00  0.00     0.035 A 
HETATM    6  C   UNL     1      24.032  44.283  50.920  1.00  0.00     0.049 A 
HETATM    7  C   UNL     1      25.044  43.496  51.517  1.00  0.00     0.061 A 
HETATM    8  C   UNL     1      25.449  42.304  50.901  1.00  0.00     0.050 A 
HETATM    9  C   UNL     1      25.493  43.941  52.864  1.00  0.00     0.256 C 
HETATM   10  N   UNL     1      26.473  41.446  51.333  1.00  0.00    -0.324 N 
HETATM   11  C   UNL     1      24.783  41.890  49.739  1.00  0.00     0.033 A 
HETATM   12  C   UNL     1      27.616  41.755  52.017  1.00  0.00     0.245 C 
HETATM   13  H   UNL     1      26.513  40.510  50.945  1.00  0.00     0.169 HD
HETATM   14  O   UNL     1      28.472  40.877  52.137  1.00  0.00    -0.271 OA
HETATM   15  C   UNL     1      27.860  43.212  52.403  1.00  0.00     0.180 C 
HETATM   16  N   UNL     1      26.789  43.704  53.254  1.00  0.00    -0.334 N 
HETATM   17  C   UNL     1      29.130  43.385  53.248  1.00  0.00     0.037 C 
HETATM   18  C   UNL     1      27.304  44.230  54.506  1.00  0.00     0.127 C 
HETATM   19  C   UNL     1      28.768  44.506  54.212  1.00  0.00     0.022 C 
HETATM   20  C   UNL     1      23.794  42.683  49.151  1.00  0.00     0.032 A 
HETATM   21  O   UNL     1      24.688  44.510  53.598  1.00  0.00    -0.267 OA
ENDBRANCH   2   5
BRANCH   1  22
HETATM   22  C   UNL     1      21.158  45.754  47.249  1.00  0.00     0.108 C 
BRANCH  22  23
HETATM   23  C   UNL     1      20.386  46.497  48.333  1.00  0.00     0.050 C 
BRANCH  23  24
HETATM   24  C   UNL     1      20.553  47.988  48.339  1.00  0.00    -0.030 A 
HETATM   25  C   UNL     1      21.799  48.678  48.503  1.00  0.00    -0.002 A 
HETATM   26  C   UNL     1      21.543  50.053  48.431  1.00  0.00     0.045 A 
HETATM   27  C   UNL     1      23.127  48.244  48.702  1.00  0.00     0.014 A 
HETATM   28  N   UNL     1      20.184  50.196  48.229  1.00  0.00    -0.352 N 
HETATM   29  C   UNL     1      22.575  51.000  48.553  1.00  0.00     0.030 A 
HETATM   30  C   UNL     1      19.587  48.959  48.180  1.00  0.00     0.099 A 
HETATM   31  C   UNL     1      23.880  50.542  48.749  1.00  0.00     0.002 A 
HETATM   32  C   UNL     1      24.157  49.182  48.824  1.00  0.00     0.001 A 
BRANCH  28  33
HETATM   33  C   UNL     1      19.469  51.465  48.074  1.00  0.00     0.081 C 
HETATM   34  C   UNL     1      18.987  52.010  49.420  1.00  0.00     0.032 C 
HETATM   35  C   UNL     1      18.318  51.342  47.074  1.00  0.00     0.032 C 
ENDBRANCH  28  33
ENDBRANCH  23  24
ENDBRANCH  22  23
ENDBRANCH   1  22
TORSDOF 5
ENDMDL
