MODEL 1
REMARK VINA RESULT:      -9.2      0.000      0.000
REMARK  5 active torsions:
REMARK  status: ('A' for Active; 'I' for Inactive)
REMARK    1  A    between atoms: C_6  and  C_7 
REMARK    2  A    between atoms: C_7  and  C_8 
REMARK    3  A    between atoms: C_8  and  C_9 
REMARK    4  A    between atoms: C_9  and  N_10 
REMARK       I    between atoms: N_10  and  C_11 
REMARK    5  A    between atoms: C_11  and  C_12 
ROOT
HETATM    1  N   UNL     1      26.120  44.811  52.077  1.00  0.00    -0.356 N 
HETATM    2  C   UNL     1      26.038  44.255  53.337  1.00  0.00     0.272 C 
HETATM    3  O   UNL     1      24.998  44.225  53.989  1.00  0.00    -0.266 OA
HETATM    4  H   UNL     1      27.025  44.713  51.622  1.00  0.00     0.162 HD
ENDROOT
BRANCH   1   5
HETATM    5  C   UNL     1      24.989  45.372  51.383  1.00  0.00     0.123 C 
BRANCH   5   6
HETATM    6  C   UNL     1      25.035  46.897  51.363  1.00  0.00     0.027 C 
BRANCH   6   7
HETATM    7  C   UNL     1      25.161  47.416  49.934  1.00  0.00     0.080 C 
BRANCH   7   8
HETATM    8  C   UNL     1      24.005  48.275  49.556  1.00  0.00     0.105 A 
HETATM    9  N   UNL     1      24.051  49.550  49.229  1.00  0.00    -0.233 NA
HETATM   10  C   UNL     1      22.749  49.917  48.989  1.00  0.00     0.085 A 
HETATM   11  C   UNL     1      21.888  48.841  49.170  1.00  0.00     0.062 A 
HETATM   12  C   UNL     1      22.222  51.161  48.612  1.00  0.00     0.034 A 
HETATM   13  C   UNL     1      20.505  48.929  49.000  1.00  0.00     0.032 A 
HETATM   14  N   UNL     1      22.714  47.806  49.524  1.00  0.00    -0.343 N 
HETATM   15  C   UNL     1      19.996  50.179  48.628  1.00  0.00     0.002 A 
HETATM   16  C   UNL     1      20.837  51.278  48.435  1.00  0.00     0.002 A 
HETATM   17  H   UNL     1      22.424  46.861  49.731  1.00  0.00     0.167 HD
ENDBRANCH   7   8
ENDBRANCH   6   7
ENDBRANCH   5   6
ENDBRANCH   1   5
BRANCH   2  18
HETATM   18  C   UNL     1      27.324  43.694  53.800  1.00  0.00     0.152 A 
HETATM   19  N   UNL     1      27.596  42.380  53.634  1.00  0.00    -0.169 NA
HETATM   20  N   UNL     1      28.813  42.220  54.168  1.00  0.00    -0.281 N 
HETATM   21  H   UNL     1      29.223  41.291  54.161  1.00  0.00     0.189 HD
HETATM   22  C   UNL     1      29.346  43.365  54.682  1.00  0.00     0.036 A 
HETATM   23  C   UNL     1      28.410  44.357  54.451  1.00  0.00     0.002 A 
HETATM   24  C   UNL     1      30.670  43.378  55.365  1.00  0.00     0.059 C 
HETATM   25  C   UNL     1      28.561  45.792  54.816  1.00  0.00     0.043 C 
HETATM   26  C   UNL     1      28.786  46.025  56.312  1.00  0.00     0.005 C 
HETATM   27  C   UNL     1      29.883  45.192  56.998  1.00  0.00     0.001 C 
HETATM   28  C   UNL     1      31.003  44.693  56.081  1.00  0.00     0.006 C 
ENDBRANCH   2  18
TORSDOF 5
ENDMDL
MODEL 2
REMARK VINA RESULT:      -9.2      1.345      2.000
REMARK  5 active torsions:
REMARK  status: ('A' for Active; 'I' for Inactive)
REMARK    1  A    between atoms: C_6  and  C_7 
REMARK    2  A    between atoms: C_7  and  C_8 
REMARK    3  A    between atoms: C_8  and  C_9 
REMARK    4  A    between atoms: C_9  and  N_10 
REMARK       I    between atoms: N_10  and  C_11 
REMARK    5  A    between atoms: C_11  and  C_12 
ROOT
HETATM    1  N   UNL     1      25.926  44.894  51.688  1.00  0.00    -0.356 N 
HETATM    2  C   UNL     1      25.686  44.784  53.042  1.00  0.00     0.272 C 
HETATM    3  O   UNL     1      24.594  44.461  53.504  1.00  0.00    -0.266 OA
HETATM    4  H   UNL     1      26.890  45.107  51.439  1.00  0.00     0.162 HD
ENDROOT
BRANCH   1   5
HETATM    5  C   UNL     1      24.939  44.602  50.681  1.00  0.00     0.123 C 
BRANCH   5   6
HETATM    6  C   UNL     1      24.963  45.624  49.548  1.00  0.00     0.027 C 
BRANCH   6   7
HETATM    7  C   UNL     1      25.213  47.028  50.092  1.00  0.00     0.080 C 
BRANCH   7   8
HETATM    8  C   UNL     1      24.155  47.982  49.659  1.00  0.00     0.105 A 
HETATM    9  N   UNL     1      24.321  49.253  49.359  1.00  0.00    -0.233 NA
HETATM   10  C   UNL     1      23.070  49.726  49.045  1.00  0.00     0.085 A 
HETATM   11  C   UNL     1      22.117  48.718  49.150  1.00  0.00     0.062 A 
HETATM   12  C   UNL     1      22.667  51.013  48.660  1.00  0.00     0.034 A 
HETATM   13  C   UNL     1      20.759  48.918  48.894  1.00  0.00     0.032 A 
HETATM   14  N   UNL     1      22.836  47.616  49.535  1.00  0.00    -0.343 N 
HETATM   15  C   UNL     1      20.374  50.210  48.514  1.00  0.00     0.002 A 
HETATM   16  C   UNL     1      21.310  51.241  48.397  1.00  0.00     0.002 A 
HETATM   17  H   UNL     1      22.460  46.694  49.705  1.00  0.00     0.167 HD
ENDBRANCH   7   8
ENDBRANCH   6   7
ENDBRANCH   5   6
ENDBRANCH   1   5
BRANCH   2  18
HETATM   18  C   UNL     1      26.878  45.080  53.862  1.00  0.00     0.152 A 
HETATM   19  N   UNL     1      27.125  46.344  54.276  1.00  0.00    -0.169 NA
HETATM   20  N   UNL     1      28.267  46.251  54.970  1.00  0.00    -0.281 N 
HETATM   21  H   UNL     1      28.652  47.098  55.375  1.00  0.00     0.189 HD
HETATM   22  C   UNL     1      28.781  44.989  55.023  1.00  0.00     0.036 A 
HETATM   23  C   UNL     1      27.897  44.189  54.322  1.00  0.00     0.002 A 
HETATM   24  C   UNL     1      30.072  44.695  55.704  1.00  0.00     0.059 C 
HETATM   25  C   UNL     1      28.026  42.719  54.128  1.00  0.00     0.043 C 
HETATM   26  C   UNL     1      29.323  42.303  53.431  1.00  0.00     0.005 C 
HETATM   27  C   UNL     1      30.638  42.875  53.989  1.00  0.00     0.001 C 
HETATM   28  C   UNL     1      30.609  43.278  55.466  1.00  0.00     0.006 C 
ENDBRANCH   2  18
TORSDOF 5
ENDMDL
MODEL 3
REMARK VINA RESULT:      -8.9      2.422      3.574
REMARK  5 active torsions:
REMARK  status: ('A' for Active; 'I' for Inactive)
REMARK    1  A    between atoms: C_6  and  C_7 
REMARK    2  A    between atoms: C_7  and  C_8 
REMARK    3  A    between atoms: C_8  and  C_9 
REMARK    4  A    between atoms: C_9  and  N_10 
REMARK       I    between atoms: N_10  and  C_11 
REMARK    5  A    between atoms: C_11  and  C_12 
ROOT
HETATM    1  N   UNL     1      25.752  43.524  52.305  1.00  0.00    -0.356 N 
HETATM    2  C   UNL     1      27.047  43.991  52.211  1.00  0.00     0.272 C 
HETATM    3  O   UNL     1      27.771  43.766  51.244  1.00  0.00    -0.266 OA
HETATM    4  H   UNL     1      25.243  43.836  53.129  1.00  0.00     0.162 HD
ENDROOT
BRANCH   1   5
HETATM    5  C   UNL     1      25.105  42.767  51.264  1.00  0.00     0.123 C 
BRANCH   5   6
HETATM    6  C   UNL     1      24.540  43.671  50.172  1.00  0.00     0.027 C 
BRANCH   6   7
HETATM    7  C   UNL     1      23.934  44.935  50.776  1.00  0.00     0.080 C 
BRANCH   7   8
HETATM    8  C   UNL     1      24.587  46.164  50.246  1.00  0.00     0.105 A 
HETATM    9  N   UNL     1      23.981  47.211  49.726  1.00  0.00    -0.233 NA
HETATM   10  C   UNL     1      24.984  48.073  49.357  1.00  0.00     0.085 A 
HETATM   11  C   UNL     1      26.233  47.544  49.664  1.00  0.00     0.062 A 
HETATM   12  C   UNL     1      24.905  49.335  48.749  1.00  0.00     0.034 A 
HETATM   13  C   UNL     1      27.433  48.205  49.394  1.00  0.00     0.032 A 
HETATM   14  N   UNL     1      25.951  46.331  50.236  1.00  0.00    -0.343 N 
HETATM   15  C   UNL     1      27.335  49.461  48.783  1.00  0.00     0.002 A 
HETATM   16  C   UNL     1      26.094  50.020  48.466  1.00  0.00     0.002 A 
HETATM   17  H   UNL     1      26.630  45.669  50.585  1.00  0.00     0.167 HD
ENDBRANCH   7   8
ENDBRANCH   6   7
ENDBRANCH   5   6
ENDBRANCH   1   5
BRANCH   2  18
HETATM   18  C   UNL     1      27.455  44.791  53.384  1.00  0.00     0.152 A 
HETATM   19  N   UNL     1      26.991  46.051  53.545  1.00  0.00    -0.169 NA
HETATM   20  N   UNL     1      27.560  46.474  54.681  1.00  0.00    -0.281 N 
HETATM   21  H   UNL     1      27.355  47.416  54.999  1.00  0.00     0.189 HD
HETATM   22  C   UNL     1      28.378  45.554  55.265  1.00  0.00     0.036 A 
HETATM   23  C   UNL     1      28.329  44.433  54.456  1.00  0.00     0.002 A 
HETATM   24  C   UNL     1      29.141  45.857  56.508  1.00  0.00     0.059 C 
HETATM   25  C   UNL     1      29.046  43.152  54.705  1.00  0.00     0.043 C 
HETATM   26  C   UNL     1      30.565  43.308  54.798  1.00  0.00     0.005 C 
HETATM   27  C   UNL     1      31.106  44.401  55.735  1.00  0.00     0.001 C 
HETATM   28  C   UNL     1      30.182  44.797  56.891  1.00  0.00     0.006 C 
ENDBRANCH   2  18
TORSDOF 5
ENDMDL
MODEL 4
REMARK VINA RESULT:      -8.8      4.754      8.557
REMARK  5 active torsions:
REMARK  status: ('A' for Active; 'I' for Inactive)
REMARK    1  A    between atoms: C_6  and  C_7 
REMARK    2  A    between atoms: C_7  and  C_8 
REMARK    3  A    between atoms: C_8  and  C_9 
REMARK    4  A    between atoms: C_9  and  N_10 
REMARK       I    between atoms: N_10  and  C_11 
REMARK    5  A    between atoms: C_11  and  C_12 
ROOT
HETATM    1  N   UNL     1      26.038  42.981  51.989  1.00  0.00    -0.356 N 
HETATM    2  C   UNL     1      26.953  42.845  50.965  1.00  0.00     0.272 C 
HETATM    3  O   UNL     1      27.122  43.699  50.099  1.00  0.00    -0.266 OA
HETATM    4  H   UNL     1      26.044  42.229  52.674  1.00  0.00     0.162 HD
ENDROOT
BRANCH   1   5
HETATM    5  C   UNL     1      25.222  44.154  52.171  1.00  0.00     0.123 C 
BRANCH   5   6
HETATM    6  C   UNL     1      25.300  44.684  53.600  1.00  0.00     0.027 C 
BRANCH   6   7
HETATM    7  C   UNL     1      26.351  45.784  53.712  1.00  0.00     0.080 C 
BRANCH   7   8
HETATM    8  C   UNL     1      27.590  45.294  54.377  1.00  0.00     0.105 A 
HETATM    9  N   UNL     1      28.292  44.232  54.040  1.00  0.00    -0.233 NA
HETATM   10  C   UNL     1      29.322  44.167  54.946  1.00  0.00     0.085 A 
HETATM   11  C   UNL     1      29.251  45.217  55.856  1.00  0.00     0.062 A 
HETATM   12  C   UNL     1      30.363  43.233  55.058  1.00  0.00     0.034 A 
HETATM   13  C   UNL     1      30.169  45.396  56.893  1.00  0.00     0.032 A 
HETATM   14  N   UNL     1      28.143  45.924  55.466  1.00  0.00    -0.343 N 
HETATM   15  C   UNL     1      31.198  44.452  56.991  1.00  0.00     0.002 A 
HETATM   16  C   UNL     1      31.297  43.388  56.090  1.00  0.00     0.002 A 
HETATM   17  H   UNL     1      27.790  46.761  55.907  1.00  0.00     0.167 HD
ENDBRANCH   7   8
ENDBRANCH   6   7
ENDBRANCH   5   6
ENDBRANCH   1   5
BRANCH   2  18
HETATM   18  C   UNL     1      27.706  41.576  51.036  1.00  0.00     0.152 A 
HETATM   19  N   UNL     1      28.640  41.388  51.997  1.00  0.00    -0.169 NA
HETATM   20  N   UNL     1      29.121  40.161  51.760  1.00  0.00    -0.281 N 
HETATM   21  H   UNL     1      29.854  39.808  52.367  1.00  0.00     0.189 HD
HETATM   22  C   UNL     1      28.552  39.542  50.687  1.00  0.00     0.036 A 
HETATM   23  C   UNL     1      27.612  40.426  50.191  1.00  0.00     0.002 A 
HETATM   24  C   UNL     1      28.993  38.192  50.234  1.00  0.00     0.059 C 
HETATM   25  C   UNL     1      26.716  40.177  49.029  1.00  0.00     0.043 C 
HETATM   26  C   UNL     1      27.464  39.877  47.729  1.00  0.00     0.005 C 
HETATM   27  C   UNL     1      28.566  38.805  47.781  1.00  0.00     0.001 C 
HETATM   28  C   UNL     1      28.412  37.753  48.884  1.00  0.00     0.006 C 
ENDBRANCH   2  18
TORSDOF 5
ENDMDL
MODEL 5
REMARK VINA RESULT:      -8.8      2.208     10.294
REMARK  5 active torsions:
REMARK  status: ('A' for Active; 'I' for Inactive)
REMARK    1  A    between atoms: C_6  and  C_7 
REMARK    2  A    between atoms: C_7  and  C_8 
REMARK    3  A    between atoms: C_8  and  C_9 
REMARK    4  A    between atoms: C_9  and  N_10 
REMARK       I    between atoms: N_10  and  C_11 
REMARK    5  A    between atoms: C_11  and  C_12 
ROOT
HETATM    1  N   UNL     1      23.348  47.627  49.787  1.00  0.00    -0.356 N 
HETATM    2  C   UNL     1      22.718  48.350  48.796  1.00  0.00     0.272 C 
HETATM    3  O   UNL     1      23.320  48.867  47.859  1.00  0.00    -0.266 OA
HETATM    4  H   UNL     1      22.725  47.200  50.470  1.00  0.00     0.162 HD
ENDROOT
BRANCH   1   5
HETATM    5  C   UNL     1      24.765  47.368  49.801  1.00  0.00     0.123 C 
BRANCH   5   6
HETATM    6  C   UNL     1      25.248  46.924  51.178  1.00  0.00     0.027 C 
BRANCH   6   7
HETATM    7  C   UNL     1      25.206  45.403  51.302  1.00  0.00     0.080 C 
BRANCH   7   8
HETATM    8  C   UNL     1      26.417  44.874  51.987  1.00  0.00     0.105 A 
HETATM    9  N   UNL     1      27.303  44.042  51.480  1.00  0.00    -0.233 NA
HETATM   10  C   UNL     1      28.218  43.820  52.481  1.00  0.00     0.085 A 
HETATM   11  C   UNL     1      27.886  44.537  53.625  1.00  0.00     0.062 A 
HETATM   12  C   UNL     1      29.364  43.013  52.487  1.00  0.00     0.034 A 
HETATM   13  C   UNL     1      28.638  44.496  54.801  1.00  0.00     0.032 A 
HETATM   14  N   UNL     1      26.739  45.205  53.281  1.00  0.00    -0.343 N 
HETATM   15  C   UNL     1      29.777  43.682  54.789  1.00  0.00     0.002 A 
HETATM   16  C   UNL     1      30.138  42.952  53.653  1.00  0.00     0.002 A 
HETATM   17  H   UNL     1      26.217  45.830  53.878  1.00  0.00     0.167 HD
ENDBRANCH   7   8
ENDBRANCH   6   7
ENDBRANCH   5   6
ENDBRANCH   1   5
BRANCH   2  18
HETATM   18  C   UNL     1      21.254  48.420  48.981  1.00  0.00     0.152 A 
HETATM   19  N   UNL     1      20.495  47.308  48.854  1.00  0.00    -0.169 NA
HETATM   20  N   UNL     1      19.243  47.731  49.071  1.00  0.00    -0.281 N 
HETATM   21  H   UNL     1      18.491  47.051  49.017  1.00  0.00     0.189 HD
HETATM   22  C   UNL     1      19.147  49.067  49.326  1.00  0.00     0.036 A 
HETATM   23  C   UNL     1      20.440  49.555  49.289  1.00  0.00     0.002 A 
HETATM   24  C   UNL     1      17.832  49.733  49.540  1.00  0.00     0.059 C 
HETATM   25  C   UNL     1      20.841  50.967  49.536  1.00  0.00     0.043 C 
HETATM   26  C   UNL     1      20.185  51.967  48.580  1.00  0.00     0.005 C 
HETATM   27  C   UNL     1      18.660  51.877  48.404  1.00  0.00     0.001 C 
HETATM   28  C   UNL     1      17.894  51.265  49.580  1.00  0.00     0.006 C 
ENDBRANCH   2  18
TORSDOF 5
ENDMDL
MODEL 6
REMARK VINA RESULT:      -8.7      2.182      3.019
REMARK  5 active torsions:
REMARK  status: ('A' for Active; 'I' for Inactive)
REMARK    1  A    between atoms: C_6  and  C_7 
REMARK    2  A    between atoms: C_7  and  C_8 
REMARK    3  A    between atoms: C_8  and  C_9 
REMARK    4  A    between atoms: C_9  and  N_10 
REMARK       I    between atoms: N_10  and  C_11 
REMARK    5  A    between atoms: C_11  and  C_12 
ROOT
HETATM    1  N   UNL     1      24.132  45.725  50.539  1.00  0.00    -0.356 N 
HETATM    2  C   UNL     1      24.583  45.028  51.641  1.00  0.00     0.272 C 
HETATM    3  O   UNL     1      24.315  43.846  51.842  1.00  0.00    -0.266 OA
HETATM    4  H   UNL     1      24.479  46.678  50.462  1.00  0.00     0.162 HD
ENDROOT
BRANCH   1   5
HETATM    5  C   UNL     1      23.340  45.128  49.494  1.00  0.00     0.123 C 
BRANCH   5   6
HETATM    6  C   UNL     1      22.691  46.183  48.602  1.00  0.00     0.027 C 
BRANCH   6   7
HETATM    7  C   UNL     1      23.240  47.571  48.918  1.00  0.00     0.080 C 
BRANCH   7   8
HETATM    8  C   UNL     1      22.153  48.586  49.001  1.00  0.00     0.105 A 
HETATM    9  N   UNL     1      22.181  49.806  48.507  1.00  0.00    -0.233 NA
HETATM   10  C   UNL     1      20.978  50.372  48.849  1.00  0.00     0.085 A 
HETATM   11  C   UNL     1      20.193  49.475  49.566  1.00  0.00     0.062 A 
HETATM   12  C   UNL     1      20.482  51.656  48.583  1.00  0.00     0.034 A 
HETATM   13  C   UNL     1      18.920  49.786  50.047  1.00  0.00     0.032 A 
HETATM   14  N   UNL     1      20.962  48.343  49.642  1.00  0.00    -0.343 N 
HETATM   15  C   UNL     1      18.442  51.074  49.776  1.00  0.00     0.002 A 
HETATM   16  C   UNL     1      19.207  51.996  49.056  1.00  0.00     0.002 A 
HETATM   17  H   UNL     1      20.701  47.479  50.096  1.00  0.00     0.167 HD
ENDBRANCH   7   8
ENDBRANCH   6   7
ENDBRANCH   5   6
ENDBRANCH   1   5
BRANCH   2  18
HETATM   18  C   UNL     1      25.425  45.851  52.534  1.00  0.00     0.152 A 
HETATM   19  N   UNL     1      25.493  47.191  52.364  1.00  0.00    -0.169 NA
HETATM   20  N   UNL     1      26.337  47.605  53.318  1.00  0.00    -0.281 N 
HETATM   21  H   UNL     1      26.547  48.597  53.375  1.00  0.00     0.189 HD
HETATM   22  C   UNL     1      26.829  46.600  54.096  1.00  0.00     0.036 A 
HETATM   23  C   UNL     1      26.248  45.436  53.626  1.00  0.00     0.002 A 
HETATM   24  C   UNL     1      27.822  46.857  55.176  1.00  0.00     0.059 C 
HETATM   25  C   UNL     1      26.465  44.073  54.184  1.00  0.00     0.043 C 
HETATM   26  C   UNL     1      27.929  43.628  54.169  1.00  0.00     0.005 C 
HETATM   27  C   UNL     1      28.968  44.603  54.748  1.00  0.00     0.001 C 
HETATM   28  C   UNL     1      28.436  45.592  55.790  1.00  0.00     0.006 C 
ENDBRANCH   2  18
TORSDOF 5
ENDMDL
MODEL 7
REMARK VINA RESULT:      -8.7      2.512      9.571
REMARK  5 active torsions:
REMARK  status: ('A' for Active; 'I' for Inactive)
REMARK    1  A    between atoms: C_6  and  C_7 
REMARK    2  A    between atoms: C_7  and  C_8 
REMARK    3  A    between atoms: C_8  and  C_9 
REMARK    4  A    between atoms: C_9  and  N_10 
REMARK       I    between atoms: N_10  and  C_11 
REMARK    5  A    between atoms: C_11  and  C_12 
ROOT
HETATM    1  N   UNL     1      22.676  46.312  49.367  1.00  0.00    -0.356 N 
HETATM    2  C   UNL     1      21.969  46.956  48.374  1.00  0.00     0.272 C 
HETATM    3  O   UNL     1      22.316  46.956  47.196  1.00  0.00    -0.266 OA
HETATM    4  H   UNL     1      22.245  46.338  50.289  1.00  0.00     0.162 HD
ENDROOT
BRANCH   1   5
HETATM    5  C   UNL     1      23.866  45.539  49.118  1.00  0.00     0.123 C 
BRANCH   5   6
HETATM    6  C   UNL     1      25.103  46.186  49.735  1.00  0.00     0.027 C 
BRANCH   6   7
HETATM    7  C   UNL     1      24.723  47.041  50.939  1.00  0.00     0.080 C 
BRANCH   7   8
HETATM    8  C   UNL     1      25.597  46.760  52.112  1.00  0.00     0.105 A 
HETATM    9  N   UNL     1      25.814  47.558  53.136  1.00  0.00    -0.233 NA
HETATM   10  C   UNL     1      26.700  46.889  53.945  1.00  0.00     0.085 A 
HETATM   11  C   UNL     1      27.029  45.651  53.404  1.00  0.00     0.062 A 
HETATM   12  C   UNL     1      27.274  47.279  55.164  1.00  0.00     0.034 A 
HETATM   13  C   UNL     1      27.916  44.760  54.012  1.00  0.00     0.032 A 
HETATM   14  N   UNL     1      26.307  45.591  52.240  1.00  0.00    -0.343 N 
HETATM   15  C   UNL     1      28.482  45.168  55.226  1.00  0.00     0.002 A 
HETATM   16  C   UNL     1      28.168  46.405  55.796  1.00  0.00     0.002 A 
HETATM   17  H   UNL     1      26.302  44.821  51.586  1.00  0.00     0.167 HD
ENDBRANCH   7   8
ENDBRANCH   6   7
ENDBRANCH   5   6
ENDBRANCH   1   5
BRANCH   2  18
HETATM   18  C   UNL     1      20.754  47.628  48.881  1.00  0.00     0.152 A 
HETATM   19  N   UNL     1      19.605  46.932  49.038  1.00  0.00    -0.169 NA
HETATM   20  N   UNL     1      18.727  47.836  49.492  1.00  0.00    -0.281 N 
HETATM   21  H   UNL     1      17.776  47.531  49.677  1.00  0.00     0.189 HD
HETATM   22  C   UNL     1      19.245  49.089  49.632  1.00  0.00     0.036 A 
HETATM   23  C   UNL     1      20.572  48.995  49.254  1.00  0.00     0.002 A 
HETATM   24  C   UNL     1      18.410  50.240  50.075  1.00  0.00     0.059 C 
HETATM   25  C   UNL     1      21.557  50.112  49.265  1.00  0.00     0.043 C 
HETATM   26  C   UNL     1      21.148  51.300  48.392  1.00  0.00     0.005 C 
HETATM   27  C   UNL     1      19.725  51.854  48.577  1.00  0.00     0.001 C 
HETATM   28  C   UNL     1      19.094  51.607  49.951  1.00  0.00     0.006 C 
ENDBRANCH   2  18
TORSDOF 5
ENDMDL
MODEL 8
REMARK VINA RESULT:      -8.7      1.729      9.518
REMARK  5 active torsions:
REMARK  status: ('A' for Active; 'I' for Inactive)
REMARK    1  A    between atoms: C_6  and  C_7 
REMARK    2  A    between atoms: C_7  and  C_8 
REMARK    3  A    between atoms: C_8  and  C_9 
REMARK    4  A    between atoms: C_9  and  N_10 
REMARK       I    between atoms: N_10  and  C_11 
REMARK    5  A    between atoms: C_11  and  C_12 
ROOT
HETATM    1  N   UNL     1      24.184  45.651  50.618  1.00  0.00    -0.356 N 
HETATM    2  C   UNL     1      23.591  46.049  49.438  1.00  0.00     0.272 C 
HETATM    3  O   UNL     1      23.016  45.271  48.681  1.00  0.00    -0.266 OA
HETATM    4  H   UNL     1      24.569  46.406  51.181  1.00  0.00     0.162 HD
ENDROOT
BRANCH   1   5
HETATM    5  C   UNL     1      24.152  44.295  51.102  1.00  0.00     0.123 C 
BRANCH   5   6
HETATM    6  C   UNL     1      25.203  44.053  52.182  1.00  0.00     0.027 C 
BRANCH   6   7
HETATM    7  C   UNL     1      25.981  45.333  52.475  1.00  0.00     0.080 C 
BRANCH   7   8
HETATM    8  C   UNL     1      27.144  45.076  53.370  1.00  0.00     0.105 A 
HETATM    9  N   UNL     1      27.576  45.859  54.337  1.00  0.00    -0.233 NA
HETATM   10  C   UNL     1      28.676  45.226  54.862  1.00  0.00     0.085 A 
HETATM   11  C   UNL     1      28.920  44.026  54.204  1.00  0.00     0.062 A 
HETATM   12  C   UNL     1      29.525  45.619  55.907  1.00  0.00     0.034 A 
HETATM   13  C   UNL     1      29.980  43.176  54.526  1.00  0.00     0.032 A 
HETATM   14  N   UNL     1      27.925  43.951  53.264  1.00  0.00    -0.343 N 
HETATM   15  C   UNL     1      30.819  43.587  55.569  1.00  0.00     0.002 A 
HETATM   16  C   UNL     1      30.597  44.787  56.251  1.00  0.00     0.002 A 
HETATM   17  H   UNL     1      27.791  43.199  52.602  1.00  0.00     0.167 HD
ENDBRANCH   7   8
ENDBRANCH   6   7
ENDBRANCH   5   6
ENDBRANCH   1   5
BRANCH   2  18
HETATM   18  C   UNL     1      23.712  47.502  49.197  1.00  0.00     0.152 A 
HETATM   19  N   UNL     1      24.913  48.115  49.308  1.00  0.00    -0.169 NA
HETATM   20  N   UNL     1      24.657  49.402  49.040  1.00  0.00    -0.281 N 
HETATM   21  H   UNL     1      25.428  50.061  49.073  1.00  0.00     0.189 HD
HETATM   22  C   UNL     1      23.346  49.660  48.769  1.00  0.00     0.036 A 
HETATM   23  C   UNL     1      22.695  48.443  48.848  1.00  0.00     0.002 A 
HETATM   24  C   UNL     1      22.858  51.041  48.499  1.00  0.00     0.059 C 
HETATM   25  C   UNL     1      21.243  48.220  48.602  1.00  0.00     0.043 C 
HETATM   26  C   UNL     1      20.332  49.035  49.522  1.00  0.00     0.005 C 
HETATM   27  C   UNL     1      20.617  50.542  49.642  1.00  0.00     0.001 C 
HETATM   28  C   UNL     1      21.331  51.176  48.445  1.00  0.00     0.006 C 
ENDBRANCH   2  18
TORSDOF 5
ENDMDL
MODEL 9
REMARK VINA RESULT:      -8.7      3.445      6.508
REMARK  5 active torsions:
REMARK  status: ('A' for Active; 'I' for Inactive)
REMARK    1  A    between atoms: C_6  and  C_7 
REMARK    2  A    between atoms: C_7  and  C_8 
REMARK    3  A    between atoms: C_8  and  C_9 
REMARK    4  A    between atoms: C_9  and  N_10 
REMARK       I    between atoms: N_10  and  C_11 
REMARK    5  A    between atoms: C_11  and  C_12 
ROOT
HETATM    1  N   UNL     1      25.765  46.109  51.933  1.00  0.00    -0.356 N 
HETATM    2  C   UNL     1      25.773  45.257  53.018  1.00  0.00     0.272 C 
HETATM    3  O   UNL     1      24.887  44.433  53.229  1.00  0.00    -0.266 OA
HETATM    4  H   UNL     1      26.590  46.698  51.842  1.00  0.00     0.162 HD
ENDROOT
BRANCH   1   5
HETATM    5  C   UNL     1      24.743  46.090  50.917  1.00  0.00     0.123 C 
BRANCH   5   6
HETATM    6  C   UNL     1      25.269  45.544  49.593  1.00  0.00     0.027 C 
BRANCH   6   7
HETATM    7  C   UNL     1      24.624  44.199  49.268  1.00  0.00     0.080 C 
BRANCH   7   8
HETATM    8  C   UNL     1      25.594  43.077  49.407  1.00  0.00     0.105 A 
HETATM    9  N   UNL     1      25.931  42.467  50.524  1.00  0.00    -0.233 NA
HETATM   10  C   UNL     1      26.866  41.527  50.164  1.00  0.00     0.085 A 
HETATM   11  C   UNL     1      27.102  41.560  48.794  1.00  0.00     0.062 A 
HETATM   12  C   UNL     1      27.563  40.604  50.957  1.00  0.00     0.034 A 
HETATM   13  C   UNL     1      28.011  40.717  48.152  1.00  0.00     0.032 A 
HETATM   14  N   UNL     1      26.274  42.551  48.335  1.00  0.00    -0.343 N 
HETATM   15  C   UNL     1      28.701  39.805  48.961  1.00  0.00     0.002 A 
HETATM   16  C   UNL     1      28.482  39.746  50.340  1.00  0.00     0.002 A 
HETATM   17  H   UNL     1      26.182  42.848  47.374  1.00  0.00     0.167 HD
ENDBRANCH   7   8
ENDBRANCH   6   7
ENDBRANCH   5   6
ENDBRANCH   1   5
BRANCH   2  18
HETATM   18  C   UNL     1      26.960  45.437  53.878  1.00  0.00     0.152 A 
HETATM   19  N   UNL     1      27.282  46.664  54.350  1.00  0.00    -0.169 NA
HETATM   20  N   UNL     1      28.395  46.464  55.068  1.00  0.00    -0.281 N 
HETATM   21  H   UNL     1      28.826  47.265  55.518  1.00  0.00     0.189 HD
HETATM   22  C   UNL     1      28.820  45.168  55.081  1.00  0.00     0.036 A 
HETATM   23  C   UNL     1      27.903  44.460  54.326  1.00  0.00     0.002 A 
HETATM   24  C   UNL     1      30.068  44.758  55.782  1.00  0.00     0.059 C 
HETATM   25  C   UNL     1      27.936  42.993  54.074  1.00  0.00     0.043 C 
HETATM   26  C   UNL     1      29.220  42.516  53.393  1.00  0.00     0.005 C 
HETATM   27  C   UNL     1      30.555  42.973  54.006  1.00  0.00     0.001 C 
HETATM   28  C   UNL     1      30.513  43.318  55.498  1.00  0.00     0.006 C 
ENDBRANCH   2  18
TORSDOF 5
ENDMDL
MODEL 10
REMARK VINA RESULT:      -8.7      1.944      9.983
REMARK  5 active torsions:
REMARK  status: ('A' for Active; 'I' for Inactive)
REMARK    1  A    between atoms: C_6  and  C_7 
REMARK    2  A    between atoms: C_7  and  C_8 
REMARK    3  A    between atoms: C_8  and  C_9 
REMARK    4  A    between atoms: C_9  and  N_10 
REMARK       I    between atoms: N_10  and  C_11 
REMARK    5  A    between atoms: C_11  and  C_12 
ROOT
HETATM    1  N   UNL     1      24.430  47.373  49.955  1.00  0.00    -0.356 N 
HETATM    2  C   UNL     1      23.311  47.494  49.158  1.00  0.00     0.272 C 
HETATM    3  O   UNL     1      22.882  46.578  48.461  1.00  0.00    -0.266 OA
HETATM    4  H   UNL     1      24.639  48.187  50.530  1.00  0.00     0.162 HD
ENDROOT
BRANCH   1   5
HETATM    5  C   UNL     1      25.182  46.151  50.085  1.00  0.00     0.123 C 
BRANCH   5   6
HETATM    6  C   UNL     1      24.833  45.403  51.369  1.00  0.00     0.027 C 
BRANCH   6   7
HETATM    7  C   UNL     1      25.533  46.035  52.569  1.00  0.00     0.080 C 
BRANCH   7   8
HETATM    8  C   UNL     1      26.763  45.285  52.946  1.00  0.00     0.105 A 
HETATM    9  N   UNL     1      27.374  44.369  52.224  1.00  0.00    -0.233 NA
HETATM   10  C   UNL     1      28.435  43.945  52.985  1.00  0.00     0.085 A 
HETATM   11  C   UNL     1      28.478  44.621  54.199  1.00  0.00     0.062 A 
HETATM   12  C   UNL     1      29.412  42.978  52.705  1.00  0.00     0.034 A 
HETATM   13  C   UNL     1      29.450  44.387  55.174  1.00  0.00     0.032 A 
HETATM   14  N   UNL     1      27.406  45.474  54.145  1.00  0.00    -0.343 N 
HETATM   15  C   UNL     1      30.415  43.416  54.878  1.00  0.00     0.002 A 
HETATM   16  C   UNL     1      30.399  42.722  53.665  1.00  0.00     0.002 A 
HETATM   17  H   UNL     1      27.131  46.126  54.866  1.00  0.00     0.167 HD
ENDBRANCH   7   8
ENDBRANCH   6   7
ENDBRANCH   5   6
ENDBRANCH   1   5
BRANCH   2  18
HETATM   18  C   UNL     1      22.686  48.830  49.247  1.00  0.00     0.152 A 
HETATM   19  N   UNL     1      23.449  49.927  49.459  1.00  0.00    -0.169 NA
HETATM   20  N   UNL     1      22.573  50.940  49.494  1.00  0.00    -0.281 N 
HETATM   21  H   UNL     1      22.930  51.877  49.654  1.00  0.00     0.189 HD
HETATM   22  C   UNL     1      21.276  50.557  49.324  1.00  0.00     0.036 A 
HETATM   23  C   UNL     1      21.306  49.186  49.146  1.00  0.00     0.002 A 
HETATM   24  C   UNL     1      20.154  51.534  49.384  1.00  0.00     0.059 C 
HETATM   25  C   UNL     1      20.122  48.319  48.896  1.00  0.00     0.043 C 
HETATM   26  C   UNL     1      19.064  48.390  50.000  1.00  0.00     0.005 C 
HETATM   27  C   UNL     1      18.605  49.788  50.448  1.00  0.00     0.001 C 
HETATM   28  C   UNL     1      18.757  50.898  49.404  1.00  0.00     0.006 C 
ENDBRANCH   2  18
TORSDOF 5
ENDMDL
