MODEL 1
REMARK VINA RESULT:      -8.4      0.000      0.000
REMARK  8 active torsions:
REMARK  status: ('A' for Active; 'I' for Inactive)
REMARK    1  A    between atoms: C_2  and  C_3 
REMARK    2  A    between atoms: C_3  and  O_4 
REMARK    3  A    between atoms: O_4  and  C_5 
REMARK    4  A    between atoms: C_7  and  C_8 
REMARK    5  A    between atoms: N_9  and  C_10 
REMARK    6  A    between atoms: C_10  and  C_11 
REMARK    7  A    between atoms: C_24  and  C_25 
REMARK    8  A    between atoms: C_26  and  O_27 
ROOT
HETATM    1  C   UNL     1      24.672  43.662  50.363  1.00  0.00     0.159 A 
HETATM    2  N   UNL     1      23.657  43.573  49.275  1.00  0.00    -0.329 N 
HETATM    3  C   UNL     1      24.104  42.908  48.128  1.00  0.00     0.273 A 
HETATM    4  O   UNL     1      23.502  42.687  47.094  1.00  0.00    -0.266 OA
HETATM    5  C   UNL     1      25.410  42.500  48.477  1.00  0.00     0.129 A 
HETATM    6  C   UNL     1      25.761  42.869  49.743  1.00  0.00     0.034 A 
HETATM    7  N   UNL     1      26.428  41.808  47.947  1.00  0.00    -0.272 N 
HETATM    8  H   UNL     1      26.509  41.387  47.026  1.00  0.00     0.189 HD
HETATM    9  N   UNL     1      27.453  41.682  48.829  1.00  0.00    -0.173 NA
HETATM   10  C   UNL     1      27.015  42.278  49.971  1.00  0.00     0.101 A 
ENDROOT
BRANCH   1  11
HETATM   11  C   UNL     1      25.221  45.060  50.571  1.00  0.00    -0.028 A 
HETATM   12  C   UNL     1      25.990  45.723  49.589  1.00  0.00     0.046 A 
HETATM   13  C   UNL     1      26.506  47.001  49.813  1.00  0.00     0.069 A 
HETATM   14  C   UNL     1      26.259  47.630  51.034  1.00  0.00     0.037 A 
HETATM   15  C   UNL     1      25.503  46.996  52.017  1.00  0.00     0.003 A 
HETATM   16  C   UNL     1      24.983  45.722  51.786  1.00  0.00     0.010 A 
BRANCH  13  17
HETATM   17  O   UNL     1      27.258  47.733  48.935  1.00  0.00    -0.348 OA
BRANCH  17  18
HETATM   18  C   UNL     1      27.238  49.151  49.083  1.00  0.00     0.202 C 
BRANCH  18  19
HETATM   19  C   UNL     1      26.280  49.698  48.067  1.00  0.00    -0.011 C 
HETATM   20  C   UNL     1      24.983  49.941  48.297  1.00  0.00     0.009 C 
ENDBRANCH  18  19
ENDBRANCH  17  18
ENDBRANCH  13  17
ENDBRANCH   1  11
BRANCH   2  21
HETATM   21  C   UNL     1      22.286  44.003  49.456  1.00  0.00     0.167 C 
BRANCH  21  22
HETATM   22  C   UNL     1      21.895  45.188  48.612  1.00  0.00    -0.023 A 
HETATM   23  C   UNL     1      20.770  45.107  47.795  1.00  0.00     0.125 A 
HETATM   24  N   UNL     1      20.305  46.121  47.029  1.00  0.00    -0.273 NA
HETATM   25  C   UNL     1      20.981  47.286  47.089  1.00  0.00     0.116 A 
HETATM   26  C   UNL     1      22.099  47.483  47.879  1.00  0.00     0.020 A 
HETATM   27  C   UNL     1      22.553  46.422  48.657  1.00  0.00     0.012 A 
ENDBRANCH  21  22
ENDBRANCH   2  21
BRANCH  10  28
HETATM   28  C   UNL     1      27.829  42.240  51.187  1.00  0.00     0.028 A 
HETATM   29  C   UNL     1      28.267  41.023  51.738  1.00  0.00     0.078 A 
HETATM   30  C   UNL     1      29.053  40.991  52.888  1.00  0.00     0.037 A 
HETATM   31  C   UNL     1      29.395  42.181  53.528  1.00  0.00     0.003 A 
HETATM   32  C   UNL     1      28.945  43.397  53.018  1.00  0.00     0.001 A 
HETATM   33  C   UNL     1      28.165  43.427  51.857  1.00  0.00     0.017 A 
BRANCH  29  34
HETATM   34  O   UNL     1      27.938  39.809  51.192  1.00  0.00    -0.360 OA
HETATM   35  H   UNL     1      27.061  39.933  50.763  1.00  0.00     0.217 HD
ENDBRANCH  29  34
ENDBRANCH  10  28
TORSDOF 8
ENDMDL
MODEL 2
REMARK VINA RESULT:      -8.2      2.448      6.897
REMARK  8 active torsions:
REMARK  status: ('A' for Active; 'I' for Inactive)
REMARK    1  A    between atoms: C_2  and  C_3 
REMARK    2  A    between atoms: C_3  and  O_4 
REMARK    3  A    between atoms: O_4  and  C_5 
REMARK    4  A    between atoms: C_7  and  C_8 
REMARK    5  A    between atoms: N_9  and  C_10 
REMARK    6  A    between atoms: C_10  and  C_11 
REMARK    7  A    between atoms: C_24  and  C_25 
REMARK    8  A    between atoms: C_26  and  O_27 
ROOT
HETATM    1  C   UNL     1      26.261  44.877  51.033  1.00  0.00     0.159 A 
HETATM    2  N   UNL     1      25.620  43.548  51.247  1.00  0.00    -0.329 N 
HETATM    3  C   UNL     1      24.276  43.492  50.861  1.00  0.00     0.273 A 
HETATM    4  O   UNL     1      23.507  42.550  50.918  1.00  0.00    -0.266 OA
HETATM    5  C   UNL     1      24.035  44.779  50.332  1.00  0.00     0.129 A 
HETATM    6  C   UNL     1      25.136  45.583  50.372  1.00  0.00     0.034 A 
HETATM    7  N   UNL     1      23.040  45.463  49.751  1.00  0.00    -0.272 N 
HETATM    8  H   UNL     1      22.085  45.172  49.561  1.00  0.00     0.189 HD
HETATM    9  N   UNL     1      23.445  46.704  49.377  1.00  0.00    -0.173 NA
HETATM   10  C   UNL     1      24.766  46.758  49.697  1.00  0.00     0.101 A 
ENDROOT
BRANCH   1  11
HETATM   11  C   UNL     1      26.547  45.628  52.317  1.00  0.00    -0.028 A 
HETATM   12  C   UNL     1      27.649  45.315  53.145  1.00  0.00     0.046 A 
HETATM   13  C   UNL     1      27.878  46.006  54.338  1.00  0.00     0.069 A 
HETATM   14  C   UNL     1      26.999  47.019  54.717  1.00  0.00     0.037 A 
HETATM   15  C   UNL     1      25.906  47.345  53.917  1.00  0.00     0.003 A 
HETATM   16  C   UNL     1      25.685  46.659  52.724  1.00  0.00     0.010 A 
BRANCH  13  17
HETATM   17  O   UNL     1      28.910  45.787  55.210  1.00  0.00    -0.348 OA
BRANCH  17  18
HETATM   18  C   UNL     1      29.461  44.473  55.253  1.00  0.00     0.202 C 
BRANCH  18  19
HETATM   19  C   UNL     1      30.570  44.480  56.262  1.00  0.00    -0.011 C 
HETATM   20  C   UNL     1      31.409  43.458  56.479  1.00  0.00     0.009 C 
ENDBRANCH  18  19
ENDBRANCH  17  18
ENDBRANCH  13  17
ENDBRANCH   1  11
BRANCH   2  21
HETATM   21  C   UNL     1      26.370  42.384  51.671  1.00  0.00     0.167 C 
BRANCH  21  22
HETATM   22  C   UNL     1      27.046  41.644  50.547  1.00  0.00    -0.023 A 
HETATM   23  C   UNL     1      26.984  42.156  49.253  1.00  0.00     0.125 A 
HETATM   24  N   UNL     1      27.587  41.598  48.178  1.00  0.00    -0.273 NA
HETATM   25  C   UNL     1      28.308  40.480  48.400  1.00  0.00     0.116 A 
HETATM   26  C   UNL     1      28.453  39.896  49.645  1.00  0.00     0.020 A 
HETATM   27  C   UNL     1      27.821  40.494  50.732  1.00  0.00     0.012 A 
ENDBRANCH  21  22
ENDBRANCH   2  21
BRANCH  10  28
HETATM   28  C   UNL     1      25.569  47.929  49.337  1.00  0.00     0.028 A 
HETATM   29  C   UNL     1      24.982  49.072  48.766  1.00  0.00     0.078 A 
HETATM   30  C   UNL     1      25.747  50.189  48.436  1.00  0.00     0.037 A 
HETATM   31  C   UNL     1      27.124  50.174  48.646  1.00  0.00     0.003 A 
HETATM   32  C   UNL     1      27.732  49.039  49.180  1.00  0.00     0.001 A 
HETATM   33  C   UNL     1      26.960  47.923  49.521  1.00  0.00     0.017 A 
BRANCH  29  34
HETATM   34  O   UNL     1      23.641  49.149  48.489  1.00  0.00    -0.360 OA
HETATM   35  H   UNL     1      23.573  49.492  47.569  1.00  0.00     0.217 HD
ENDBRANCH  29  34
ENDBRANCH  10  28
TORSDOF 8
ENDMDL
MODEL 3
REMARK VINA RESULT:      -8.0      1.270      2.455
REMARK  8 active torsions:
REMARK  status: ('A' for Active; 'I' for Inactive)
REMARK    1  A    between atoms: C_2  and  C_3 
REMARK    2  A    between atoms: C_3  and  O_4 
REMARK    3  A    between atoms: O_4  and  C_5 
REMARK    4  A    between atoms: C_7  and  C_8 
REMARK    5  A    between atoms: N_9  and  C_10 
REMARK    6  A    between atoms: C_10  and  C_11 
REMARK    7  A    between atoms: C_24  and  C_25 
REMARK    8  A    between atoms: C_26  and  O_27 
ROOT
HETATM    1  C   UNL     1      24.638  43.581  50.361  1.00  0.00     0.159 A 
HETATM    2  N   UNL     1      23.627  43.549  49.266  1.00  0.00    -0.329 N 
HETATM    3  C   UNL     1      24.080  42.951  48.085  1.00  0.00     0.273 A 
HETATM    4  O   UNL     1      23.482  42.788  47.037  1.00  0.00    -0.266 OA
HETATM    5  C   UNL     1      25.387  42.530  48.415  1.00  0.00     0.129 A 
HETATM    6  C   UNL     1      25.732  42.828  49.701  1.00  0.00     0.034 A 
HETATM    7  N   UNL     1      26.410  41.873  47.850  1.00  0.00    -0.272 N 
HETATM    8  H   UNL     1      26.495  41.505  46.907  1.00  0.00     0.189 HD
HETATM    9  N   UNL     1      27.432  41.701  48.728  1.00  0.00    -0.173 NA
HETATM   10  C   UNL     1      26.987  42.230  49.900  1.00  0.00     0.101 A 
ENDROOT
BRANCH   1  11
HETATM   11  C   UNL     1      25.180  44.966  50.650  1.00  0.00    -0.028 A 
HETATM   12  C   UNL     1      25.033  45.587  51.911  1.00  0.00     0.046 A 
HETATM   13  C   UNL     1      25.519  46.875  52.146  1.00  0.00     0.069 A 
HETATM   14  C   UNL     1      26.156  47.560  51.112  1.00  0.00     0.037 A 
HETATM   15  C   UNL     1      26.313  46.969  49.860  1.00  0.00     0.003 A 
HETATM   16  C   UNL     1      25.833  45.680  49.632  1.00  0.00     0.010 A 
BRANCH  13  17
HETATM   17  O   UNL     1      25.434  47.566  53.323  1.00  0.00    -0.348 OA
BRANCH  17  18
HETATM   18  C   UNL     1      26.644  47.773  54.048  1.00  0.00     0.202 C 
BRANCH  18  19
HETATM   19  C   UNL     1      27.054  46.452  54.629  1.00  0.00    -0.011 C 
HETATM   20  C   UNL     1      28.281  46.170  55.088  1.00  0.00     0.009 C 
ENDBRANCH  18  19
ENDBRANCH  17  18
ENDBRANCH  13  17
ENDBRANCH   1  11
BRANCH   2  21
HETATM   21  C   UNL     1      22.253  43.963  49.466  1.00  0.00     0.167 C 
BRANCH  21  22
HETATM   22  C   UNL     1      21.832  45.132  48.616  1.00  0.00    -0.023 A 
HETATM   23  C   UNL     1      20.650  45.057  47.883  1.00  0.00     0.125 A 
HETATM   24  N   UNL     1      20.156  46.060  47.120  1.00  0.00    -0.273 NA
HETATM   25  C   UNL     1      20.862  47.209  47.097  1.00  0.00     0.116 A 
HETATM   26  C   UNL     1      22.038  47.400  47.801  1.00  0.00     0.020 A 
HETATM   27  C   UNL     1      22.521  46.350  48.577  1.00  0.00     0.012 A 
ENDBRANCH  21  22
ENDBRANCH   2  21
BRANCH  10  28
HETATM   28  C   UNL     1      27.798  42.126  51.114  1.00  0.00     0.028 A 
HETATM   29  C   UNL     1      28.217  40.880  51.612  1.00  0.00     0.078 A 
HETATM   30  C   UNL     1      28.999  40.786  52.761  1.00  0.00     0.037 A 
HETATM   31  C   UNL     1      29.356  41.940  53.454  1.00  0.00     0.003 A 
HETATM   32  C   UNL     1      28.924  43.185  52.998  1.00  0.00     0.001 A 
HETATM   33  C   UNL     1      28.148  43.278  51.838  1.00  0.00     0.017 A 
BRANCH  29  34
HETATM   34  O   UNL     1      27.872  39.696  51.011  1.00  0.00    -0.360 OA
HETATM   35  H   UNL     1      28.668  39.121  51.069  1.00  0.00     0.217 HD
ENDBRANCH  29  34
ENDBRANCH  10  28
TORSDOF 8
ENDMDL
MODEL 4
REMARK VINA RESULT:      -7.8      3.393      8.358
REMARK  8 active torsions:
REMARK  status: ('A' for Active; 'I' for Inactive)
REMARK    1  A    between atoms: C_2  and  C_3 
REMARK    2  A    between atoms: C_3  and  O_4 
REMARK    3  A    between atoms: O_4  and  C_5 
REMARK    4  A    between atoms: C_7  and  C_8 
REMARK    5  A    between atoms: N_9  and  C_10 
REMARK    6  A    between atoms: C_10  and  C_11 
REMARK    7  A    between atoms: C_24  and  C_25 
REMARK    8  A    between atoms: C_26  and  O_27 
ROOT
HETATM    1  C   UNL     1      23.722  47.460  49.772  1.00  0.00     0.159 A 
HETATM    2  N   UNL     1      25.115  46.953  49.931  1.00  0.00    -0.329 N 
HETATM    3  C   UNL     1      26.084  47.731  49.289  1.00  0.00     0.273 A 
HETATM    4  O   UNL     1      27.289  47.562  49.246  1.00  0.00    -0.266 OA
HETATM    5  C   UNL     1      25.337  48.798  48.745  1.00  0.00     0.129 A 
HETATM    6  C   UNL     1      24.004  48.709  49.024  1.00  0.00     0.034 A 
HETATM    7  N   UNL     1      25.543  49.925  48.049  1.00  0.00    -0.272 N 
HETATM    8  H   UNL     1      26.410  50.303  47.679  1.00  0.00     0.189 HD
HETATM    9  N   UNL     1      24.386  50.614  47.868  1.00  0.00    -0.173 NA
HETATM   10  C   UNL     1      23.439  49.898  48.533  1.00  0.00     0.101 A 
ENDROOT
BRANCH   1  11
HETATM   11  C   UNL     1      22.861  46.601  48.868  1.00  0.00    -0.028 A 
HETATM   12  C   UNL     1      21.561  46.988  48.473  1.00  0.00     0.046 A 
HETATM   13  C   UNL     1      20.776  46.168  47.659  1.00  0.00     0.069 A 
HETATM   14  C   UNL     1      21.287  44.941  47.236  1.00  0.00     0.037 A 
HETATM   15  C   UNL     1      22.566  44.538  47.613  1.00  0.00     0.003 A 
HETATM   16  C   UNL     1      23.349  45.363  48.419  1.00  0.00     0.010 A 
BRANCH  13  17
HETATM   17  O   UNL     1      19.511  46.443  47.217  1.00  0.00    -0.348 OA
BRANCH  17  18
HETATM   18  C   UNL     1      18.441  46.260  48.142  1.00  0.00     0.202 C 
BRANCH  18  19
HETATM   19  C   UNL     1      18.026  47.616  48.629  1.00  0.00    -0.011 C 
HETATM   20  C   UNL     1      18.299  48.106  49.845  1.00  0.00     0.009 C 
ENDBRANCH  18  19
ENDBRANCH  17  18
ENDBRANCH  13  17
ENDBRANCH   1  11
BRANCH   2  21
HETATM   21  C   UNL     1      25.441  45.843  50.802  1.00  0.00     0.167 C 
BRANCH  21  22
HETATM   22  C   UNL     1      25.899  46.252  52.177  1.00  0.00    -0.023 A 
HETATM   23  C   UNL     1      25.345  47.381  52.776  1.00  0.00     0.125 A 
HETATM   24  N   UNL     1      25.651  47.817  54.020  1.00  0.00    -0.273 NA
HETATM   25  C   UNL     1      26.540  47.082  54.719  1.00  0.00     0.116 A 
HETATM   26  C   UNL     1      27.138  45.934  54.229  1.00  0.00     0.020 A 
HETATM   27  C   UNL     1      26.803  45.511  52.946  1.00  0.00     0.012 A 
ENDBRANCH  21  22
ENDBRANCH   2  21
BRANCH  10  28
HETATM   28  C   UNL     1      22.069  50.403  48.642  1.00  0.00     0.028 A 
HETATM   29  C   UNL     1      21.545  50.840  49.872  1.00  0.00     0.078 A 
HETATM   30  C   UNL     1      20.245  51.332  49.970  1.00  0.00     0.037 A 
HETATM   31  C   UNL     1      19.431  51.371  48.840  1.00  0.00     0.003 A 
HETATM   32  C   UNL     1      19.918  50.913  47.618  1.00  0.00     0.001 A 
HETATM   33  C   UNL     1      21.227  50.429  47.519  1.00  0.00     0.017 A 
BRANCH  29  34
HETATM   34  O   UNL     1      22.268  50.793  51.036  1.00  0.00    -0.360 OA
HETATM   35  H   UNL     1      22.798  49.965  50.993  1.00  0.00     0.217 HD
ENDBRANCH  29  34
ENDBRANCH  10  28
TORSDOF 8
ENDMDL
MODEL 5
REMARK VINA RESULT:      -7.7      3.177      6.668
REMARK  8 active torsions:
REMARK  status: ('A' for Active; 'I' for Inactive)
REMARK    1  A    between atoms: C_2  and  C_3 
REMARK    2  A    between atoms: C_3  and  O_4 
REMARK    3  A    between atoms: O_4  and  C_5 
REMARK    4  A    between atoms: C_7  and  C_8 
REMARK    5  A    between atoms: N_9  and  C_10 
REMARK    6  A    between atoms: C_10  and  C_11 
REMARK    7  A    between atoms: C_24  and  C_25 
REMARK    8  A    between atoms: C_26  and  O_27 
ROOT
HETATM    1  C   UNL     1      26.903  42.929  49.912  1.00  0.00     0.159 A 
HETATM    2  N   UNL     1      26.557  41.953  48.839  1.00  0.00    -0.329 N 
HETATM    3  C   UNL     1      25.198  41.626  48.780  1.00  0.00     0.273 A 
HETATM    4  O   UNL     1      24.631  40.866  48.016  1.00  0.00    -0.266 OA
HETATM    5  C   UNL     1      24.625  42.435  49.785  1.00  0.00     0.129 A 
HETATM    6  C   UNL     1      25.542  43.216  50.425  1.00  0.00     0.034 A 
HETATM    7  N   UNL     1      23.416  42.708  50.296  1.00  0.00    -0.272 N 
HETATM    8  H   UNL     1      22.512  42.311  50.056  1.00  0.00     0.189 HD
HETATM    9  N   UNL     1      23.489  43.670  51.252  1.00  0.00    -0.173 NA
HETATM   10  C   UNL     1      24.797  44.039  51.286  1.00  0.00     0.101 A 
ENDROOT
BRANCH   1  11
HETATM   11  C   UNL     1      27.680  42.319  51.061  1.00  0.00    -0.028 A 
HETATM   12  C   UNL     1      28.706  43.018  51.735  1.00  0.00     0.046 A 
HETATM   13  C   UNL     1      29.424  42.426  52.776  1.00  0.00     0.069 A 
HETATM   14  C   UNL     1      29.124  41.117  53.151  1.00  0.00     0.037 A 
HETATM   15  C   UNL     1      28.117  40.407  52.502  1.00  0.00     0.003 A 
HETATM   16  C   UNL     1      27.396  41.005  51.468  1.00  0.00     0.010 A 
BRANCH  13  17
HETATM   17  O   UNL     1      30.432  43.010  53.495  1.00  0.00    -0.348 OA
BRANCH  17  18
HETATM   18  C   UNL     1      30.149  43.363  54.847  1.00  0.00     0.202 C 
BRANCH  18  19
HETATM   19  C   UNL     1      29.143  44.475  54.824  1.00  0.00    -0.011 C 
HETATM   20  C   UNL     1      29.192  45.563  55.605  1.00  0.00     0.009 C 
ENDBRANCH  18  19
ENDBRANCH  17  18
ENDBRANCH  13  17
ENDBRANCH   1  11
BRANCH   2  21
HETATM   21  C   UNL     1      27.521  41.509  47.853  1.00  0.00     0.167 C 
BRANCH  21  22
HETATM   22  C   UNL     1      27.985  40.089  48.042  1.00  0.00    -0.023 A 
HETATM   23  C   UNL     1      27.351  39.062  47.347  1.00  0.00     0.125 A 
HETATM   24  N   UNL     1      27.710  37.758  47.409  1.00  0.00    -0.273 NA
HETATM   25  C   UNL     1      28.768  37.457  48.189  1.00  0.00     0.116 A 
HETATM   26  C   UNL     1      29.482  38.398  48.908  1.00  0.00     0.020 A 
HETATM   27  C   UNL     1      29.089  39.731  48.824  1.00  0.00     0.012 A 
ENDBRANCH  21  22
ENDBRANCH   2  21
BRANCH  10  28
HETATM   28  C   UNL     1      25.234  45.145  52.141  1.00  0.00     0.028 A 
HETATM   29  C   UNL     1      25.340  44.996  53.535  1.00  0.00     0.078 A 
HETATM   30  C   UNL     1      25.768  46.047  54.344  1.00  0.00     0.037 A 
HETATM   31  C   UNL     1      26.073  47.281  53.775  1.00  0.00     0.003 A 
HETATM   32  C   UNL     1      25.943  47.461  52.399  1.00  0.00     0.001 A 
HETATM   33  C   UNL     1      25.524  46.402  51.587  1.00  0.00     0.017 A 
BRANCH  29  34
HETATM   34  O   UNL     1      25.018  43.827  54.175  1.00  0.00    -0.360 OA
HETATM   35  H   UNL     1      24.655  44.088  55.051  1.00  0.00     0.217 HD
ENDBRANCH  29  34
ENDBRANCH  10  28
TORSDOF 8
ENDMDL
MODEL 6
REMARK VINA RESULT:      -7.7      1.931      6.487
REMARK  8 active torsions:
REMARK  status: ('A' for Active; 'I' for Inactive)
REMARK    1  A    between atoms: C_2  and  C_3 
REMARK    2  A    between atoms: C_3  and  O_4 
REMARK    3  A    between atoms: O_4  and  C_5 
REMARK    4  A    between atoms: C_7  and  C_8 
REMARK    5  A    between atoms: N_9  and  C_10 
REMARK    6  A    between atoms: C_10  and  C_11 
REMARK    7  A    between atoms: C_24  and  C_25 
REMARK    8  A    between atoms: C_26  and  O_27 
ROOT
HETATM    1  C   UNL     1      24.816  44.673  49.254  1.00  0.00     0.159 A 
HETATM    2  N   UNL     1      23.669  43.740  49.072  1.00  0.00    -0.329 N 
HETATM    3  C   UNL     1      22.420  44.369  49.024  1.00  0.00     0.273 A 
HETATM    4  O   UNL     1      21.320  43.867  48.886  1.00  0.00    -0.266 OA
HETATM    5  C   UNL     1      22.744  45.740  49.118  1.00  0.00     0.129 A 
HETATM    6  C   UNL     1      24.087  45.964  49.210  1.00  0.00     0.034 A 
HETATM    7  N   UNL     1      22.124  46.929  49.106  1.00  0.00    -0.272 N 
HETATM    8  H   UNL     1      21.131  47.135  49.048  1.00  0.00     0.189 HD
HETATM    9  N   UNL     1      23.014  47.952  49.167  1.00  0.00    -0.173 NA
HETATM   10  C   UNL     1      24.238  47.360  49.160  1.00  0.00     0.101 A 
ENDROOT
BRANCH   1  11
HETATM   11  C   UNL     1      25.460  44.587  50.624  1.00  0.00    -0.028 A 
HETATM   12  C   UNL     1      26.844  44.360  50.794  1.00  0.00     0.046 A 
HETATM   13  C   UNL     1      27.410  44.260  52.067  1.00  0.00     0.069 A 
HETATM   14  C   UNL     1      26.590  44.381  53.188  1.00  0.00     0.037 A 
HETATM   15  C   UNL     1      25.223  44.606  53.045  1.00  0.00     0.003 A 
HETATM   16  C   UNL     1      24.662  44.713  51.772  1.00  0.00     0.010 A 
BRANCH  13  17
HETATM   17  O   UNL     1      28.732  44.044  52.347  1.00  0.00    -0.348 OA
BRANCH  17  18
HETATM   18  C   UNL     1      29.145  42.694  52.550  1.00  0.00     0.202 C 
BRANCH  18  19
HETATM   19  C   UNL     1      29.495  42.542  54.000  1.00  0.00    -0.011 C 
HETATM   20  C   UNL     1      30.215  43.423  54.707  1.00  0.00     0.009 C 
ENDBRANCH  18  19
ENDBRANCH  17  18
ENDBRANCH  13  17
ENDBRANCH   1  11
BRANCH   2  21
HETATM   21  C   UNL     1      23.852  42.326  48.814  1.00  0.00     0.167 C 
BRANCH  21  22
HETATM   22  C   UNL     1      25.226  41.812  49.154  1.00  0.00    -0.023 A 
HETATM   23  C   UNL     1      25.447  41.210  50.391  1.00  0.00     0.125 A 
HETATM   24  N   UNL     1      26.627  40.678  50.784  1.00  0.00    -0.273 NA
HETATM   25  C   UNL     1      27.641  40.726  49.896  1.00  0.00     0.116 A 
HETATM   26  C   UNL     1      27.528  41.282  48.634  1.00  0.00     0.020 A 
HETATM   27  C   UNL     1      26.301  41.821  48.258  1.00  0.00     0.012 A 
ENDBRANCH  21  22
ENDBRANCH   2  21
BRANCH  10  28
HETATM   28  C   UNL     1      25.455  48.172  49.112  1.00  0.00     0.028 A 
HETATM   29  C   UNL     1      25.511  49.365  48.370  1.00  0.00     0.078 A 
HETATM   30  C   UNL     1      26.667  50.143  48.336  1.00  0.00     0.037 A 
HETATM   31  C   UNL     1      27.804  49.726  49.025  1.00  0.00     0.003 A 
HETATM   32  C   UNL     1      27.782  48.530  49.740  1.00  0.00     0.001 A 
HETATM   33  C   UNL     1      26.617  47.756  49.781  1.00  0.00     0.017 A 
BRANCH  29  34
HETATM   34  O   UNL     1      24.449  49.821  47.632  1.00  0.00    -0.360 OA
HETATM   35  H   UNL     1      24.834  50.219  46.819  1.00  0.00     0.217 HD
ENDBRANCH  29  34
ENDBRANCH  10  28
TORSDOF 8
ENDMDL
MODEL 7
REMARK VINA RESULT:      -7.5      2.550      6.078
REMARK  8 active torsions:
REMARK  status: ('A' for Active; 'I' for Inactive)
REMARK    1  A    between atoms: C_2  and  C_3 
REMARK    2  A    between atoms: C_3  and  O_4 
REMARK    3  A    between atoms: O_4  and  C_5 
REMARK    4  A    between atoms: C_7  and  C_8 
REMARK    5  A    between atoms: N_9  and  C_10 
REMARK    6  A    between atoms: C_10  and  C_11 
REMARK    7  A    between atoms: C_24  and  C_25 
REMARK    8  A    between atoms: C_26  and  O_27 
ROOT
HETATM    1  C   UNL     1      23.827  45.094  48.466  1.00  0.00     0.159 A 
HETATM    2  N   UNL     1      22.542  44.362  48.278  1.00  0.00    -0.329 N 
HETATM    3  C   UNL     1      21.403  45.116  48.581  1.00  0.00     0.273 A 
HETATM    4  O   UNL     1      20.234  44.785  48.523  1.00  0.00    -0.266 OA
HETATM    5  C   UNL     1      21.932  46.381  48.919  1.00  0.00     0.129 A 
HETATM    6  C   UNL     1      23.292  46.428  48.831  1.00  0.00     0.034 A 
HETATM    7  N   UNL     1      21.495  47.597  49.274  1.00  0.00    -0.272 N 
HETATM    8  H   UNL     1      20.544  47.918  49.431  1.00  0.00     0.189 HD
HETATM    9  N   UNL     1      22.524  48.473  49.409  1.00  0.00    -0.173 NA
HETATM   10  C   UNL     1      23.636  47.770  49.066  1.00  0.00     0.101 A 
ENDROOT
BRANCH   1  11
HETATM   11  C   UNL     1      24.634  44.612  49.655  1.00  0.00    -0.028 A 
HETATM   12  C   UNL     1      24.275  44.919  50.986  1.00  0.00     0.046 A 
HETATM   13  C   UNL     1      25.049  44.483  52.064  1.00  0.00     0.069 A 
HETATM   14  C   UNL     1      26.201  43.737  51.817  1.00  0.00     0.037 A 
HETATM   15  C   UNL     1      26.575  43.422  50.513  1.00  0.00     0.003 A 
HETATM   16  C   UNL     1      25.795  43.852  49.440  1.00  0.00     0.010 A 
BRANCH  13  17
HETATM   17  O   UNL     1      24.794  44.720  53.387  1.00  0.00    -0.348 OA
BRANCH  17  18
HETATM   18  C   UNL     1      25.914  44.764  54.270  1.00  0.00     0.202 C 
BRANCH  18  19
HETATM   19  C   UNL     1      26.335  46.198  54.396  1.00  0.00    -0.011 C 
HETATM   20  C   UNL     1      25.782  47.216  53.724  1.00  0.00     0.009 C 
ENDBRANCH  18  19
ENDBRANCH  17  18
ENDBRANCH  13  17
ENDBRANCH   1  11
BRANCH   2  21
HETATM   21  C   UNL     1      22.481  43.040  47.688  1.00  0.00     0.167 C 
BRANCH  21  22
HETATM   22  C   UNL     1      23.176  42.929  46.356  1.00  0.00    -0.023 A 
HETATM   23  C   UNL     1      23.972  41.818  46.088  1.00  0.00     0.125 A 
HETATM   24  N   UNL     1      24.607  41.596  44.914  1.00  0.00    -0.273 NA
HETATM   25  C   UNL     1      24.429  42.516  43.944  1.00  0.00     0.116 A 
HETATM   26  C   UNL     1      23.646  43.646  44.094  1.00  0.00     0.020 A 
HETATM   27  C   UNL     1      23.004  43.847  45.313  1.00  0.00     0.012 A 
ENDBRANCH  21  22
ENDBRANCH   2  21
BRANCH  10  28
HETATM   28  C   UNL     1      24.940  48.433  48.994  1.00  0.00     0.028 A 
HETATM   29  C   UNL     1      25.141  49.569  48.190  1.00  0.00     0.078 A 
HETATM   30  C   UNL     1      26.379  50.206  48.133  1.00  0.00     0.037 A 
HETATM   31  C   UNL     1      27.453  49.700  48.863  1.00  0.00     0.003 A 
HETATM   32  C   UNL     1      27.286  48.556  49.641  1.00  0.00     0.001 A 
HETATM   33  C   UNL     1      26.038  47.925  49.705  1.00  0.00     0.017 A 
BRANCH  29  34
HETATM   34  O   UNL     1      24.146  50.102  47.410  1.00  0.00    -0.360 OA
HETATM   35  H   UNL     1      23.615  50.678  48.005  1.00  0.00     0.217 HD
ENDBRANCH  29  34
ENDBRANCH  10  28
TORSDOF 8
ENDMDL
MODEL 8
REMARK VINA RESULT:      -7.5      3.242      6.092
REMARK  8 active torsions:
REMARK  status: ('A' for Active; 'I' for Inactive)
REMARK    1  A    between atoms: C_2  and  C_3 
REMARK    2  A    between atoms: C_3  and  O_4 
REMARK    3  A    between atoms: O_4  and  C_5 
REMARK    4  A    between atoms: C_7  and  C_8 
REMARK    5  A    between atoms: N_9  and  C_10 
REMARK    6  A    between atoms: C_10  and  C_11 
REMARK    7  A    between atoms: C_24  and  C_25 
REMARK    8  A    between atoms: C_26  and  O_27 
ROOT
HETATM    1  C   UNL     1      27.228  45.208  51.568  1.00  0.00     0.159 A 
HETATM    2  N   UNL     1      26.217  46.129  50.976  1.00  0.00    -0.329 N 
HETATM    3  C   UNL     1      25.436  46.805  51.919  1.00  0.00     0.273 A 
HETATM    4  O   UNL     1      24.542  47.609  51.730  1.00  0.00    -0.266 OA
HETATM    5  C   UNL     1      25.970  46.373  53.153  1.00  0.00     0.129 A 
HETATM    6  C   UNL     1      27.009  45.501  53.005  1.00  0.00     0.034 A 
HETATM    7  N   UNL     1      25.791  46.591  54.463  1.00  0.00    -0.272 N 
HETATM    8  H   UNL     1      25.108  47.181  54.929  1.00  0.00     0.189 HD
HETATM    9  N   UNL     1      26.696  45.904  55.207  1.00  0.00    -0.173 NA
HETATM   10  C   UNL     1      27.500  45.281  54.303  1.00  0.00     0.101 A 
ENDROOT
BRANCH   1  11
HETATM   11  C   UNL     1      26.904  43.740  51.372  1.00  0.00    -0.028 A 
HETATM   12  C   UNL     1      27.909  42.754  51.255  1.00  0.00     0.046 A 
HETATM   13  C   UNL     1      27.586  41.411  51.050  1.00  0.00     0.069 A 
HETATM   14  C   UNL     1      26.245  41.041  50.955  1.00  0.00     0.037 A 
HETATM   15  C   UNL     1      25.236  41.995  51.068  1.00  0.00     0.003 A 
HETATM   16  C   UNL     1      25.563  43.334  51.280  1.00  0.00     0.010 A 
BRANCH  13  17
HETATM   17  O   UNL     1      28.474  40.378  50.924  1.00  0.00    -0.348 OA
BRANCH  17  18
HETATM   18  C   UNL     1      28.316  39.514  49.801  1.00  0.00     0.202 C 
BRANCH  18  19
HETATM   19  C   UNL     1      28.836  40.239  48.595  1.00  0.00    -0.011 C 
HETATM   20  C   UNL     1      28.112  40.516  47.502  1.00  0.00     0.009 C 
ENDBRANCH  18  19
ENDBRANCH  17  18
ENDBRANCH  13  17
ENDBRANCH   1  11
BRANCH   2  21
HETATM   21  C   UNL     1      26.160  46.408  49.555  1.00  0.00     0.167 C 
BRANCH  21  22
HETATM   22  C   UNL     1      26.407  47.851  49.201  1.00  0.00    -0.023 A 
HETATM   23  C   UNL     1      27.705  48.354  49.240  1.00  0.00     0.125 A 
HETATM   24  N   UNL     1      28.047  49.620  48.904  1.00  0.00    -0.273 NA
HETATM   25  C   UNL     1      27.050  50.427  48.487  1.00  0.00     0.116 A 
HETATM   26  C   UNL     1      25.729  50.027  48.393  1.00  0.00     0.020 A 
HETATM   27  C   UNL     1      25.408  48.719  48.745  1.00  0.00     0.012 A 
ENDBRANCH  21  22
ENDBRANCH   2  21
BRANCH  10  28
HETATM   28  C   UNL     1      28.670  44.523  54.750  1.00  0.00     0.028 A 
HETATM   29  C   UNL     1      29.604  45.075  55.643  1.00  0.00     0.078 A 
HETATM   30  C   UNL     1      30.710  44.346  56.076  1.00  0.00     0.037 A 
HETATM   31  C   UNL     1      30.917  43.053  55.601  1.00  0.00     0.003 A 
HETATM   32  C   UNL     1      30.022  42.497  54.689  1.00  0.00     0.001 A 
HETATM   33  C   UNL     1      28.907  43.227  54.264  1.00  0.00     0.017 A 
BRANCH  29  34
HETATM   34  O   UNL     1      29.493  46.355  56.123  1.00  0.00    -0.360 OA
HETATM   35  H   UNL     1      30.045  46.916  55.531  1.00  0.00     0.217 HD
ENDBRANCH  29  34
ENDBRANCH  10  28
TORSDOF 8
ENDMDL
MODEL 9
REMARK VINA RESULT:      -7.4      4.464      7.775
REMARK  8 active torsions:
REMARK  status: ('A' for Active; 'I' for Inactive)
REMARK    1  A    between atoms: C_2  and  C_3 
REMARK    2  A    between atoms: C_3  and  O_4 
REMARK    3  A    between atoms: O_4  and  C_5 
REMARK    4  A    between atoms: C_7  and  C_8 
REMARK    5  A    between atoms: N_9  and  C_10 
REMARK    6  A    between atoms: C_10  and  C_11 
REMARK    7  A    between atoms: C_24  and  C_25 
REMARK    8  A    between atoms: C_26  and  O_27 
ROOT
HETATM    1  C   UNL     1      21.072  46.721  46.996  1.00  0.00     0.159 A 
HETATM    2  N   UNL     1      20.883  45.308  46.559  1.00  0.00    -0.329 N 
HETATM    3  C   UNL     1      19.732  44.700  47.071  1.00  0.00     0.273 A 
HETATM    4  O   UNL     1      19.325  43.567  46.889  1.00  0.00    -0.266 OA
HETATM    5  C   UNL     1      19.118  45.735  47.809  1.00  0.00     0.129 A 
HETATM    6  C   UNL     1      19.817  46.905  47.764  1.00  0.00     0.034 A 
HETATM    7  N   UNL     1      18.008  45.940  48.532  1.00  0.00    -0.272 N 
HETATM    8  H   UNL     1      17.265  45.289  48.768  1.00  0.00     0.189 HD
HETATM    9  N   UNL     1      17.927  47.226  48.960  1.00  0.00    -0.173 NA
HETATM   10  C   UNL     1      19.013  47.848  48.427  1.00  0.00     0.101 A 
ENDROOT
BRANCH   1  11
HETATM   11  C   UNL     1      22.212  46.908  47.977  1.00  0.00    -0.028 A 
HETATM   12  C   UNL     1      22.882  48.142  48.129  1.00  0.00     0.046 A 
HETATM   13  C   UNL     1      23.947  48.283  49.023  1.00  0.00     0.069 A 
HETATM   14  C   UNL     1      24.356  47.181  49.773  1.00  0.00     0.037 A 
HETATM   15  C   UNL     1      23.710  45.954  49.640  1.00  0.00     0.003 A 
HETATM   16  C   UNL     1      22.642  45.819  48.752  1.00  0.00     0.010 A 
BRANCH  13  17
HETATM   17  O   UNL     1      24.662  49.427  49.250  1.00  0.00    -0.348 OA
BRANCH  17  18
HETATM   18  C   UNL     1      25.418  49.952  48.160  1.00  0.00     0.202 C 
BRANCH  18  19
HETATM   19  C   UNL     1      26.858  49.975  48.577  1.00  0.00    -0.011 C 
HETATM   20  C   UNL     1      27.530  48.918  49.054  1.00  0.00     0.009 C 
ENDBRANCH  18  19
ENDBRANCH  17  18
ENDBRANCH  13  17
ENDBRANCH   1  11
BRANCH   2  21
HETATM   21  C   UNL     1      21.737  44.680  45.571  1.00  0.00     0.167 C 
BRANCH  21  22
HETATM   22  C   UNL     1      21.684  45.327  44.212  1.00  0.00    -0.023 A 
HETATM   23  C   UNL     1      22.806  45.286  43.389  1.00  0.00     0.125 A 
HETATM   24  N   UNL     1      22.858  45.797  42.137  1.00  0.00    -0.273 NA
HETATM   25  C   UNL     1      21.728  46.363  41.666  1.00  0.00     0.116 A 
HETATM   26  C   UNL     1      20.551  46.442  42.389  1.00  0.00     0.020 A 
HETATM   27  C   UNL     1      20.529  45.907  43.674  1.00  0.00     0.012 A 
ENDBRANCH  21  22
ENDBRANCH   2  21
BRANCH  10  28
HETATM   28  C   UNL     1      19.199  49.290  48.595  1.00  0.00     0.028 A 
HETATM   29  C   UNL     1      19.309  49.871  49.871  1.00  0.00     0.078 A 
HETATM   30  C   UNL     1      19.499  51.242  50.028  1.00  0.00     0.037 A 
HETATM   31  C   UNL     1      19.555  52.067  48.907  1.00  0.00     0.003 A 
HETATM   32  C   UNL     1      19.415  51.518  47.633  1.00  0.00     0.001 A 
HETATM   33  C   UNL     1      19.236  50.139  47.478  1.00  0.00     0.017 A 
BRANCH  29  34
HETATM   34  O   UNL     1      19.222  49.133  51.024  1.00  0.00    -0.360 OA
HETATM   35  H   UNL     1      19.198  48.191  50.742  1.00  0.00     0.217 HD
ENDBRANCH  29  34
ENDBRANCH  10  28
TORSDOF 8
ENDMDL
MODEL 10
REMARK VINA RESULT:      -7.4      2.816      7.892
REMARK  8 active torsions:
REMARK  status: ('A' for Active; 'I' for Inactive)
REMARK    1  A    between atoms: C_2  and  C_3 
REMARK    2  A    between atoms: C_3  and  O_4 
REMARK    3  A    between atoms: O_4  and  C_5 
REMARK    4  A    between atoms: C_7  and  C_8 
REMARK    5  A    between atoms: N_9  and  C_10 
REMARK    6  A    between atoms: C_10  and  C_11 
REMARK    7  A    between atoms: C_24  and  C_25 
REMARK    8  A    between atoms: C_26  and  O_27 
ROOT
HETATM    1  C   UNL     1      24.615  44.640  51.690  1.00  0.00     0.159 A 
HETATM    2  N   UNL     1      25.266  45.437  52.768  1.00  0.00    -0.329 N 
HETATM    3  C   UNL     1      25.483  46.779  52.437  1.00  0.00     0.273 A 
HETATM    4  O   UNL     1      25.989  47.656  53.111  1.00  0.00    -0.266 OA
HETATM    5  C   UNL     1      24.920  46.890  51.147  1.00  0.00     0.129 A 
HETATM    6  C   UNL     1      24.383  45.719  50.699  1.00  0.00     0.034 A 
HETATM    7  N   UNL     1      24.710  47.829  50.213  1.00  0.00    -0.272 N 
HETATM    8  H   UNL     1      24.976  48.809  50.216  1.00  0.00     0.189 HD
HETATM    9  N   UNL     1      24.026  47.327  49.153  1.00  0.00    -0.173 NA
HETATM   10  C   UNL     1      23.759  46.034  49.481  1.00  0.00     0.101 A 
ENDROOT
BRANCH   1  11
HETATM   11  C   UNL     1      25.542  43.639  51.029  1.00  0.00    -0.028 A 
HETATM   12  C   UNL     1      25.173  42.291  50.821  1.00  0.00     0.046 A 
HETATM   13  C   UNL     1      26.053  41.381  50.232  1.00  0.00     0.069 A 
HETATM   14  C   UNL     1      27.323  41.812  49.850  1.00  0.00     0.037 A 
HETATM   15  C   UNL     1      27.710  43.137  50.045  1.00  0.00     0.003 A 
HETATM   16  C   UNL     1      26.824  44.044  50.626  1.00  0.00     0.010 A 
BRANCH  13  17
HETATM   17  O   UNL     1      25.800  40.059  49.983  1.00  0.00    -0.348 OA
BRANCH  17  18
HETATM   18  C   UNL     1      26.544  39.438  48.936  1.00  0.00     0.202 C 
BRANCH  18  19
HETATM   19  C   UNL     1      27.227  38.237  49.518  1.00  0.00    -0.011 C 
HETATM   20  C   UNL     1      26.738  36.991  49.483  1.00  0.00     0.009 C 
ENDBRANCH  18  19
ENDBRANCH  17  18
ENDBRANCH  13  17
ENDBRANCH   1  11
BRANCH   2  21
HETATM   21  C   UNL     1      25.506  44.900  54.092  1.00  0.00     0.167 C 
BRANCH  21  22
HETATM   22  C   UNL     1      26.929  44.469  54.332  1.00  0.00    -0.023 A 
HETATM   23  C   UNL     1      27.818  45.348  54.947  1.00  0.00     0.125 A 
HETATM   24  N   UNL     1      29.104  45.053  55.247  1.00  0.00    -0.273 NA
HETATM   25  C   UNL     1      29.529  43.810  54.940  1.00  0.00     0.116 A 
HETATM   26  C   UNL     1      28.727  42.852  54.346  1.00  0.00     0.020 A 
HETATM   27  C   UNL     1      27.409  43.185  54.049  1.00  0.00     0.012 A 
ENDBRANCH  21  22
ENDBRANCH   2  21
BRANCH  10  28
HETATM   28  C   UNL     1      22.933  45.202  48.604  1.00  0.00     0.028 A 
HETATM   29  C   UNL     1      21.572  45.484  48.394  1.00  0.00     0.078 A 
HETATM   30  C   UNL     1      20.792  44.698  47.549  1.00  0.00     0.037 A 
HETATM   31  C   UNL     1      21.354  43.592  46.915  1.00  0.00     0.003 A 
HETATM   32  C   UNL     1      22.693  43.274  47.134  1.00  0.00     0.001 A 
HETATM   33  C   UNL     1      23.477  44.071  47.975  1.00  0.00     0.017 A 
BRANCH  29  34
HETATM   34  O   UNL     1      20.935  46.529  49.014  1.00  0.00    -0.360 OA
HETATM   35  H   UNL     1      20.696  46.206  49.912  1.00  0.00     0.217 HD
ENDBRANCH  29  34
ENDBRANCH  10  28
TORSDOF 8
ENDMDL
