MODEL 1
REMARK VINA RESULT:     -10.6      0.000      0.000
REMARK  7 active torsions:
REMARK  status: ('A' for Active; 'I' for Inactive)
REMARK    1  A    between atoms: C_2  and  O_3 
REMARK    2  A    between atoms: O_3  and  C_4 
REMARK    3  A    between atoms: C_5  and  O_6 
REMARK    4  A    between atoms: C_9  and  C_10 
REMARK    5  A    between atoms: N_11  and  N_12 
REMARK       I    between atoms: N_12  and  C_13 
REMARK    6  A    between atoms: C_13  and  C_14 
REMARK    7  A    between atoms: C_18  and  C_19 
ROOT
HETATM    1  C   UNL     1      24.796  46.732  50.529  1.00  0.00     0.121 A 
HETATM    2  N   UNL     1      24.104  45.647  50.988  1.00  0.00    -0.272 N 
HETATM    3  H   UNL     1      23.111  45.466  50.870  1.00  0.00     0.189 HD
HETATM    4  N   UNL     1      24.836  44.793  51.713  1.00  0.00    -0.174 NA
HETATM    5  C   UNL     1      26.074  45.312  51.718  1.00  0.00     0.090 A 
HETATM    6  C   UNL     1      26.096  46.513  50.943  1.00  0.00     0.071 A 
ENDROOT
BRANCH   1   7
HETATM    7  C   UNL     1      24.132  47.814  49.846  1.00  0.00     0.289 C 
HETATM    8  N   UNL     1      22.795  47.574  49.556  1.00  0.00    -0.242 N 
HETATM    9  H   UNL     1      22.303  46.870  50.094  1.00  0.00     0.192 HD
HETATM   10  O   UNL     1      24.742  48.834  49.540  1.00  0.00    -0.264 OA
BRANCH   8  11
HETATM   11  N   UNL     1      21.969  48.359  48.786  1.00  0.00    -0.184 NA
HETATM   12  C   UNL     1      21.179  49.180  49.404  1.00  0.00     0.150 C 
BRANCH  12  13
HETATM   13  C   UNL     1      20.265  50.090  48.683  1.00  0.00    -0.014 A 
HETATM   14  C   UNL     1      20.087  49.890  47.308  1.00  0.00     0.016 A 
HETATM   15  C   UNL     1      19.194  50.693  46.603  1.00  0.00     0.040 A 
HETATM   16  C   UNL     1      18.495  51.683  47.281  1.00  0.00     0.099 A 
HETATM   17  C   UNL     1      18.674  51.907  48.653  1.00  0.00     0.102 A 
HETATM   18  C   UNL     1      19.565  51.100  49.359  1.00  0.00     0.052 A 
BRANCH  16  19
HETATM   19  O   UNL     1      17.613  52.449  46.569  1.00  0.00    -0.358 OA
HETATM   20  H   UNL     1      17.136  52.975  47.239  1.00  0.00     0.218 HD
ENDBRANCH  16  19
BRANCH  17  21
HETATM   21  O   UNL     1      17.912  52.922  49.172  1.00  0.00    -0.349 OA
BRANCH  21  22
HETATM   22  C   UNL     1      16.800  52.541  49.981  1.00  0.00     0.171 C 
HETATM   23  C   UNL     1      15.546  53.112  49.343  1.00  0.00     0.034 C 
ENDBRANCH  21  22
ENDBRANCH  17  21
ENDBRANCH  12  13
ENDBRANCH   8  11
ENDBRANCH   1   7
BRANCH   5  24
HETATM   24  C   UNL     1      27.180  44.731  52.499  1.00  0.00     0.005 A 
HETATM   25  C   UNL     1      27.641  45.288  53.733  1.00  0.00    -0.012 A 
HETATM   26  C   UNL     1      28.720  44.658  54.312  1.00  0.00    -0.012 A 
HETATM   27  C   UNL     1      27.154  46.404  54.465  1.00  0.00     0.013 A 
HETATM   28  C   UNL     1      29.324  45.058  55.491  1.00  0.00    -0.046 A 
HETATM   29  C   UNL     1      29.350  43.546  53.788  1.00  0.00    -0.046 A 
HETATM   30  C   UNL     1      28.866  46.155  56.204  1.00  0.00     0.008 A 
HETATM   31  C   UNL     1      30.472  44.169  55.818  1.00  0.00     0.044 A 
HETATM   32  C   UNL     1      27.759  46.824  55.668  1.00  0.00     0.001 A 
HETATM   33  C   UNL     1      30.482  43.127  54.659  1.00  0.00     0.044 A 
HETATM   34  C   UNL     1      28.928  42.969  52.603  1.00  0.00     0.009 A 
HETATM   35  C   UNL     1      27.837  43.584  51.969  1.00  0.00     0.015 A 
ENDBRANCH   5  24
TORSDOF 7
ENDMDL
MODEL 2
REMARK VINA RESULT:     -10.4      1.318      2.560
REMARK  7 active torsions:
REMARK  status: ('A' for Active; 'I' for Inactive)
REMARK    1  A    between atoms: C_2  and  O_3 
REMARK    2  A    between atoms: O_3  and  C_4 
REMARK    3  A    between atoms: C_5  and  O_6 
REMARK    4  A    between atoms: C_9  and  C_10 
REMARK    5  A    between atoms: N_11  and  N_12 
REMARK       I    between atoms: N_12  and  C_13 
REMARK    6  A    between atoms: C_13  and  C_14 
REMARK    7  A    between atoms: C_18  and  C_19 
ROOT
HETATM    1  C   UNL     1      24.592  46.323  50.642  1.00  0.00     0.121 A 
HETATM    2  N   UNL     1      24.195  45.143  51.204  1.00  0.00    -0.272 N 
HETATM    3  H   UNL     1      23.363  44.608  50.971  1.00  0.00     0.189 HD
HETATM    4  N   UNL     1      24.981  44.717  52.200  1.00  0.00    -0.174 NA
HETATM    5  C   UNL     1      25.957  45.634  52.292  1.00  0.00     0.090 A 
HETATM    6  C   UNL     1      25.768  46.638  51.293  1.00  0.00     0.071 A 
ENDROOT
BRANCH   1   7
HETATM    7  C   UNL     1      23.788  46.990  49.648  1.00  0.00     0.289 C 
HETATM    8  N   UNL     1      23.558  48.336  49.905  1.00  0.00    -0.242 N 
HETATM    9  H   UNL     1      24.192  48.824  50.528  1.00  0.00     0.192 HD
HETATM   10  O   UNL     1      23.341  46.376  48.685  1.00  0.00    -0.264 OA
BRANCH   8  11
HETATM   11  N   UNL     1      22.709  49.170  49.215  1.00  0.00    -0.184 NA
HETATM   12  C   UNL     1      21.444  49.091  49.487  1.00  0.00     0.150 C 
BRANCH  12  13
HETATM   13  C   UNL     1      20.440  49.952  48.829  1.00  0.00    -0.014 A 
HETATM   14  C   UNL     1      20.507  51.333  49.056  1.00  0.00     0.016 A 
HETATM   15  C   UNL     1      19.612  52.182  48.412  1.00  0.00     0.040 A 
HETATM   16  C   UNL     1      18.663  51.641  47.554  1.00  0.00     0.099 A 
HETATM   17  C   UNL     1      18.572  50.261  47.329  1.00  0.00     0.102 A 
HETATM   18  C   UNL     1      19.472  49.411  47.971  1.00  0.00     0.052 A 
BRANCH  16  19
HETATM   19  O   UNL     1      17.805  52.499  46.922  1.00  0.00    -0.358 OA
HETATM   20  H   UNL     1      17.836  52.240  45.981  1.00  0.00     0.218 HD
ENDBRANCH  16  19
BRANCH  17  21
HETATM   21  O   UNL     1      17.583  49.887  46.457  1.00  0.00    -0.349 OA
BRANCH  21  22
HETATM   22  C   UNL     1      16.683  48.872  46.903  1.00  0.00     0.171 C 
HETATM   23  C   UNL     1      15.650  49.532  47.800  1.00  0.00     0.034 C 
ENDBRANCH  21  22
ENDBRANCH  17  21
ENDBRANCH  12  13
ENDBRANCH   8  11
ENDBRANCH   1   7
BRANCH   5  24
HETATM   24  C   UNL     1      26.988  45.600  53.344  1.00  0.00     0.005 A 
HETATM   25  C   UNL     1      28.041  44.632  53.374  1.00  0.00    -0.012 A 
HETATM   26  C   UNL     1      28.892  44.701  54.454  1.00  0.00    -0.012 A 
HETATM   27  C   UNL     1      28.350  43.596  52.452  1.00  0.00     0.013 A 
HETATM   28  C   UNL     1      29.954  43.842  54.674  1.00  0.00    -0.046 A 
HETATM   29  C   UNL     1      28.793  45.634  55.468  1.00  0.00    -0.046 A 
HETATM   30  C   UNL     1      30.254  42.819  53.788  1.00  0.00     0.008 A 
HETATM   31  C   UNL     1      30.651  44.187  55.943  1.00  0.00     0.044 A 
HETATM   32  C   UNL     1      29.429  42.713  52.662  1.00  0.00     0.001 A 
HETATM   33  C   UNL     1      29.865  45.421  56.480  1.00  0.00     0.044 A 
HETATM   34  C   UNL     1      27.798  46.595  55.470  1.00  0.00     0.009 A 
HETATM   35  C   UNL     1      26.897  46.556  54.394  1.00  0.00     0.015 A 
ENDBRANCH   5  24
TORSDOF 7
ENDMDL
MODEL 3
REMARK VINA RESULT:     -10.4      0.869      2.069
REMARK  7 active torsions:
REMARK  status: ('A' for Active; 'I' for Inactive)
REMARK    1  A    between atoms: C_2  and  O_3 
REMARK    2  A    between atoms: O_3  and  C_4 
REMARK    3  A    between atoms: C_5  and  O_6 
REMARK    4  A    between atoms: C_9  and  C_10 
REMARK    5  A    between atoms: N_11  and  N_12 
REMARK       I    between atoms: N_12  and  C_13 
REMARK    6  A    between atoms: C_13  and  C_14 
REMARK    7  A    between atoms: C_18  and  C_19 
ROOT
HETATM    1  C   UNL     1      24.322  46.052  50.436  1.00  0.00     0.121 A 
HETATM    2  N   UNL     1      23.917  44.933  51.107  1.00  0.00    -0.272 N 
HETATM    3  H   UNL     1      23.080  44.386  50.926  1.00  0.00     0.189 HD
HETATM    4  N   UNL     1      24.700  44.596  52.138  1.00  0.00    -0.174 NA
HETATM    5  C   UNL     1      25.683  45.509  52.143  1.00  0.00     0.090 A 
HETATM    6  C   UNL     1      25.502  46.418  51.055  1.00  0.00     0.071 A 
ENDROOT
BRANCH   1   7
HETATM    7  C   UNL     1      23.522  46.630  49.385  1.00  0.00     0.289 C 
HETATM    8  N   UNL     1      23.168  47.957  49.597  1.00  0.00    -0.242 N 
HETATM    9  H   UNL     1      23.724  48.508  50.240  1.00  0.00     0.192 HD
HETATM   10  O   UNL     1      23.180  45.961  48.414  1.00  0.00    -0.264 OA
BRANCH   8  11
HETATM   11  N   UNL     1      22.293  48.702  48.842  1.00  0.00    -0.184 NA
HETATM   12  C   UNL     1      21.394  49.389  49.475  1.00  0.00     0.150 C 
BRANCH  12  13
HETATM   13  C   UNL     1      20.416  50.246  48.774  1.00  0.00    -0.014 A 
HETATM   14  C   UNL     1      20.228  50.042  47.401  1.00  0.00     0.016 A 
HETATM   15  C   UNL     1      19.278  50.793  46.715  1.00  0.00     0.040 A 
HETATM   16  C   UNL     1      18.531  51.737  47.409  1.00  0.00     0.099 A 
HETATM   17  C   UNL     1      18.718  51.965  48.779  1.00  0.00     0.102 A 
HETATM   18  C   UNL     1      19.667  51.209  49.466  1.00  0.00     0.052 A 
BRANCH  16  19
HETATM   19  O   UNL     1      17.594  52.451  46.715  1.00  0.00    -0.358 OA
HETATM   20  H   UNL     1      17.101  52.950  47.396  1.00  0.00     0.218 HD
ENDBRANCH  16  19
BRANCH  17  21
HETATM   21  O   UNL     1      17.906  52.929  49.316  1.00  0.00    -0.349 OA
BRANCH  21  22
HETATM   22  C   UNL     1      16.751  52.477  50.022  1.00  0.00     0.171 C 
HETATM   23  C   UNL     1      15.607  53.419  49.688  1.00  0.00     0.034 C 
ENDBRANCH  21  22
ENDBRANCH  17  21
ENDBRANCH  12  13
ENDBRANCH   8  11
ENDBRANCH   1   7
BRANCH   5  24
HETATM   24  C   UNL     1      26.716  45.566  53.193  1.00  0.00     0.005 A 
HETATM   25  C   UNL     1      27.789  44.624  53.283  1.00  0.00    -0.012 A 
HETATM   26  C   UNL     1      28.639  44.782  54.355  1.00  0.00    -0.012 A 
HETATM   27  C   UNL     1      28.119  43.538  52.430  1.00  0.00     0.013 A 
HETATM   28  C   UNL     1      29.719  43.962  54.628  1.00  0.00    -0.046 A 
HETATM   29  C   UNL     1      28.522  45.777  55.306  1.00  0.00    -0.046 A 
HETATM   30  C   UNL     1      30.041  42.890  53.811  1.00  0.00     0.008 A 
HETATM   31  C   UNL     1      30.410  44.404  55.870  1.00  0.00     0.044 A 
HETATM   32  C   UNL     1      29.217  42.693  52.695  1.00  0.00     0.001 A 
HETATM   33  C   UNL     1      29.598  45.653  56.328  1.00  0.00     0.044 A 
HETATM   34  C   UNL     1      27.506  46.715  55.248  1.00  0.00     0.009 A 
HETATM   35  C   UNL     1      26.606  46.587  54.179  1.00  0.00     0.015 A 
ENDBRANCH   5  24
TORSDOF 7
ENDMDL
MODEL 4
REMARK VINA RESULT:     -10.0      1.975      2.650
REMARK  7 active torsions:
REMARK  status: ('A' for Active; 'I' for Inactive)
REMARK    1  A    between atoms: C_2  and  O_3 
REMARK    2  A    between atoms: O_3  and  C_4 
REMARK    3  A    between atoms: C_5  and  O_6 
REMARK    4  A    between atoms: C_9  and  C_10 
REMARK    5  A    between atoms: N_11  and  N_12 
REMARK       I    between atoms: N_12  and  C_13 
REMARK    6  A    between atoms: C_13  and  C_14 
REMARK    7  A    between atoms: C_18  and  C_19 
ROOT
HETATM    1  C   UNL     1      25.748  44.677  51.022  1.00  0.00     0.121 A 
HETATM    2  N   UNL     1      26.596  43.873  50.313  1.00  0.00    -0.272 N 
HETATM    3  H   UNL     1      26.442  43.500  49.381  1.00  0.00     0.189 HD
HETATM    4  N   UNL     1      27.701  43.518  50.979  1.00  0.00    -0.174 NA
HETATM    5  C   UNL     1      27.603  44.128  52.170  1.00  0.00     0.090 A 
HETATM    6  C   UNL     1      26.405  44.905  52.216  1.00  0.00     0.071 A 
ENDROOT
BRANCH   1   7
HETATM    7  C   UNL     1      24.453  45.043  50.506  1.00  0.00     0.289 C 
HETATM    8  N   UNL     1      24.428  46.256  49.828  1.00  0.00    -0.242 N 
HETATM    9  H   UNL     1      25.298  46.620  49.458  1.00  0.00     0.192 HD
HETATM   10  O   UNL     1      23.474  44.328  50.696  1.00  0.00    -0.264 OA
BRANCH   8  11
HETATM   11  N   UNL     1      23.312  46.917  49.370  1.00  0.00    -0.184 NA
HETATM   12  C   UNL     1      23.272  48.202  49.531  1.00  0.00     0.150 C 
BRANCH  12  13
HETATM   13  C   UNL     1      22.137  49.022  49.059  1.00  0.00    -0.014 A 
HETATM   14  C   UNL     1      22.378  50.369  48.760  1.00  0.00     0.016 A 
HETATM   15  C   UNL     1      21.348  51.161  48.261  1.00  0.00     0.040 A 
HETATM   16  C   UNL     1      20.092  50.598  48.071  1.00  0.00     0.099 A 
HETATM   17  C   UNL     1      19.830  49.256  48.381  1.00  0.00     0.102 A 
HETATM   18  C   UNL     1      20.864  48.463  48.876  1.00  0.00     0.052 A 
BRANCH  16  19
HETATM   19  O   UNL     1      19.101  51.393  47.567  1.00  0.00    -0.358 OA
HETATM   20  H   UNL     1      19.554  52.205  47.269  1.00  0.00     0.218 HD
ENDBRANCH  16  19
BRANCH  17  21
HETATM   21  O   UNL     1      18.543  48.853  48.139  1.00  0.00    -0.349 OA
BRANCH  21  22
HETATM   22  C   UNL     1      17.819  48.313  49.244  1.00  0.00     0.171 C 
HETATM   23  C   UNL     1      16.664  47.499  48.687  1.00  0.00     0.034 C 
ENDBRANCH  21  22
ENDBRANCH  17  21
ENDBRANCH  12  13
ENDBRANCH   8  11
ENDBRANCH   1   7
BRANCH   5  24
HETATM   24  C   UNL     1      28.575  43.917  53.258  1.00  0.00     0.005 A 
HETATM   25  C   UNL     1      28.627  44.738  54.428  1.00  0.00    -0.012 A 
HETATM   26  C   UNL     1      29.629  44.444  55.325  1.00  0.00    -0.012 A 
HETATM   27  C   UNL     1      27.797  45.824  54.814  1.00  0.00     0.013 A 
HETATM   28  C   UNL     1      29.859  45.136  56.501  1.00  0.00    -0.046 A 
HETATM   29  C   UNL     1      30.546  43.423  55.166  1.00  0.00    -0.046 A 
HETATM   30  C   UNL     1      29.064  46.207  56.880  1.00  0.00     0.008 A 
HETATM   31  C   UNL     1      31.030  44.567  57.222  1.00  0.00     0.044 A 
HETATM   32  C   UNL     1      28.018  46.538  56.010  1.00  0.00     0.001 A 
HETATM   33  C   UNL     1      31.493  43.388  56.315  1.00  0.00     0.044 A 
HETATM   34  C   UNL     1      30.522  42.598  54.056  1.00  0.00     0.009 A 
HETATM   35  C   UNL     1      29.525  42.868  53.106  1.00  0.00     0.015 A 
ENDBRANCH   5  24
TORSDOF 7
ENDMDL
MODEL 5
REMARK VINA RESULT:      -9.7      1.414      2.109
REMARK  7 active torsions:
REMARK  status: ('A' for Active; 'I' for Inactive)
REMARK    1  A    between atoms: C_2  and  O_3 
REMARK    2  A    between atoms: O_3  and  C_4 
REMARK    3  A    between atoms: C_5  and  O_6 
REMARK    4  A    between atoms: C_9  and  C_10 
REMARK    5  A    between atoms: N_11  and  N_12 
REMARK       I    between atoms: N_12  and  C_13 
REMARK    6  A    between atoms: C_13  and  C_14 
REMARK    7  A    between atoms: C_18  and  C_19 
ROOT
HETATM    1  C   UNL     1      24.946  46.765  50.645  1.00  0.00     0.121 A 
HETATM    2  N   UNL     1      24.202  45.751  51.179  1.00  0.00    -0.272 N 
HETATM    3  H   UNL     1      23.196  45.633  51.107  1.00  0.00     0.189 HD
HETATM    4  N   UNL     1      24.905  44.883  51.917  1.00  0.00    -0.174 NA
HETATM    5  C   UNL     1      26.173  45.316  51.852  1.00  0.00     0.090 A 
HETATM    6  C   UNL     1      26.244  46.476  51.020  1.00  0.00     0.071 A 
ENDROOT
BRANCH   1   7
HETATM    7  C   UNL     1      24.329  47.857  49.935  1.00  0.00     0.289 C 
HETATM    8  N   UNL     1      22.981  47.670  49.655  1.00  0.00    -0.242 N 
HETATM    9  H   UNL     1      22.460  47.003  50.213  1.00  0.00     0.192 HD
HETATM   10  O   UNL     1      24.983  48.840  49.601  1.00  0.00    -0.264 OA
BRANCH   8  11
HETATM   11  N   UNL     1      22.188  48.471  48.867  1.00  0.00    -0.184 NA
HETATM   12  C   UNL     1      20.904  48.385  49.030  1.00  0.00     0.150 C 
BRANCH  12  13
HETATM   13  C   UNL     1      19.954  49.213  48.258  1.00  0.00    -0.014 A 
HETATM   14  C   UNL     1      20.003  50.602  48.429  1.00  0.00     0.016 A 
HETATM   15  C   UNL     1      19.160  51.420  47.680  1.00  0.00     0.040 A 
HETATM   16  C   UNL     1      18.280  50.838  46.777  1.00  0.00     0.099 A 
HETATM   17  C   UNL     1      18.207  49.449  46.607  1.00  0.00     0.102 A 
HETATM   18  C   UNL     1      19.055  48.631  47.353  1.00  0.00     0.052 A 
BRANCH  16  19
HETATM   19  O   UNL     1      17.473  51.663  46.044  1.00  0.00    -0.358 OA
HETATM   20  H   UNL     1      17.497  51.301  45.137  1.00  0.00     0.218 HD
ENDBRANCH  16  19
BRANCH  17  21
HETATM   21  O   UNL     1      17.288  49.033  45.679  1.00  0.00    -0.349 OA
BRANCH  21  22
HETATM   22  C   UNL     1      16.190  48.259  46.164  1.00  0.00     0.171 C 
HETATM   23  C   UNL     1      15.812  47.264  45.081  1.00  0.00     0.034 C 
ENDBRANCH  21  22
ENDBRANCH  17  21
ENDBRANCH  12  13
ENDBRANCH   8  11
ENDBRANCH   1   7
BRANCH   5  24
HETATM   24  C   UNL     1      27.269  44.697  52.619  1.00  0.00     0.005 A 
HETATM   25  C   UNL     1      27.768  45.240  53.845  1.00  0.00    -0.012 A 
HETATM   26  C   UNL     1      28.831  44.573  54.410  1.00  0.00    -0.012 A 
HETATM   27  C   UNL     1      27.332  46.375  54.579  1.00  0.00     0.013 A 
HETATM   28  C   UNL     1      29.467  44.954  55.578  1.00  0.00    -0.046 A 
HETATM   29  C   UNL     1      29.412  43.437  53.880  1.00  0.00    -0.046 A 
HETATM   30  C   UNL     1      29.059  46.069  56.295  1.00  0.00     0.008 A 
HETATM   31  C   UNL     1      30.586  44.024  55.892  1.00  0.00     0.044 A 
HETATM   32  C   UNL     1      27.969  46.776  55.773  1.00  0.00     0.001 A 
HETATM   33  C   UNL     1      30.541  42.980  54.736  1.00  0.00     0.044 A 
HETATM   34  C   UNL     1      28.952  42.873  52.704  1.00  0.00     0.009 A 
HETATM   35  C   UNL     1      27.876  43.526  52.083  1.00  0.00     0.015 A 
ENDBRANCH   5  24
TORSDOF 7
ENDMDL
MODEL 6
REMARK VINA RESULT:      -9.5      2.128      2.973
REMARK  7 active torsions:
REMARK  status: ('A' for Active; 'I' for Inactive)
REMARK    1  A    between atoms: C_2  and  O_3 
REMARK    2  A    between atoms: O_3  and  C_4 
REMARK    3  A    between atoms: C_5  and  O_6 
REMARK    4  A    between atoms: C_9  and  C_10 
REMARK    5  A    between atoms: N_11  and  N_12 
REMARK       I    between atoms: N_12  and  C_13 
REMARK    6  A    between atoms: C_13  and  C_14 
REMARK    7  A    between atoms: C_18  and  C_19 
ROOT
HETATM    1  C   UNL     1      26.004  43.422  50.243  1.00  0.00     0.121 A 
HETATM    2  N   UNL     1      26.345  42.119  50.470  1.00  0.00    -0.272 N 
HETATM    3  H   UNL     1      25.949  41.300  50.017  1.00  0.00     0.189 HD
HETATM    4  N   UNL     1      27.253  41.948  51.438  1.00  0.00    -0.174 NA
HETATM    5  C   UNL     1      27.552  43.186  51.859  1.00  0.00     0.090 A 
HETATM    6  C   UNL     1      26.817  44.145  51.095  1.00  0.00     0.071 A 
ENDROOT
BRANCH   1   7
HETATM    7  C   UNL     1      24.947  43.775  49.329  1.00  0.00     0.289 C 
HETATM    8  N   UNL     1      24.402  45.035  49.542  1.00  0.00    -0.242 N 
HETATM    9  H   UNL     1      24.951  45.720  50.049  1.00  0.00     0.192 HD
HETATM   10  O   UNL     1      24.571  42.987  48.467  1.00  0.00    -0.264 OA
BRANCH   8  11
HETATM   11  N   UNL     1      23.292  45.563  48.925  1.00  0.00    -0.184 NA
HETATM   12  C   UNL     1      23.176  46.855  48.908  1.00  0.00     0.150 C 
BRANCH  12  13
HETATM   13  C   UNL     1      22.040  47.537  48.254  1.00  0.00    -0.014 A 
HETATM   14  C   UNL     1      21.065  46.744  47.635  1.00  0.00     0.016 A 
HETATM   15  C   UNL     1      19.953  47.347  47.054  1.00  0.00     0.040 A 
HETATM   16  C   UNL     1      19.832  48.730  47.098  1.00  0.00     0.099 A 
HETATM   17  C   UNL     1      20.807  49.538  47.698  1.00  0.00     0.102 A 
HETATM   18  C   UNL     1      21.919  48.933  48.284  1.00  0.00     0.052 A 
BRANCH  16  19
HETATM   19  O   UNL     1      18.723  49.297  46.533  1.00  0.00    -0.358 OA
HETATM   20  H   UNL     1      19.069  49.972  45.918  1.00  0.00     0.218 HD
ENDBRANCH  16  19
BRANCH  17  21
HETATM   21  O   UNL     1      20.542  50.882  47.658  1.00  0.00    -0.349 OA
BRANCH  21  22
HETATM   22  C   UNL     1      20.056  51.479  48.860  1.00  0.00     0.171 C 
HETATM   23  C   UNL     1      19.017  52.517  48.474  1.00  0.00     0.034 C 
ENDBRANCH  21  22
ENDBRANCH  17  21
ENDBRANCH  12  13
ENDBRANCH   8  11
ENDBRANCH   1   7
BRANCH   5  24
HETATM   24  C   UNL     1      28.446  43.447  53.001  1.00  0.00     0.005 A 
HETATM   25  C   UNL     1      28.237  44.518  53.926  1.00  0.00    -0.012 A 
HETATM   26  C   UNL     1      29.194  44.661  54.906  1.00  0.00    -0.012 A 
HETATM   27  C   UNL     1      27.185  45.468  53.994  1.00  0.00     0.013 A 
HETATM   28  C   UNL     1      29.182  45.646  55.878  1.00  0.00    -0.046 A 
HETATM   29  C   UNL     1      30.299  43.843  55.046  1.00  0.00    -0.046 A 
HETATM   30  C   UNL     1      28.168  46.588  55.943  1.00  0.00     0.008 A 
HETATM   31  C   UNL     1      30.373  45.522  56.763  1.00  0.00     0.044 A 
HETATM   32  C   UNL     1      27.158  46.478  54.979  1.00  0.00     0.001 A 
HETATM   33  C   UNL     1      31.130  44.281  56.201  1.00  0.00     0.044 A 
HETATM   34  C   UNL     1      30.531  42.790  54.180  1.00  0.00     0.009 A 
HETATM   35  C   UNL     1      29.588  42.612  53.155  1.00  0.00     0.015 A 
ENDBRANCH   5  24
TORSDOF 7
ENDMDL
MODEL 7
REMARK VINA RESULT:      -9.4      2.693      2.955
REMARK  7 active torsions:
REMARK  status: ('A' for Active; 'I' for Inactive)
REMARK    1  A    between atoms: C_2  and  O_3 
REMARK    2  A    between atoms: O_3  and  C_4 
REMARK    3  A    between atoms: C_5  and  O_6 
REMARK    4  A    between atoms: C_9  and  C_10 
REMARK    5  A    between atoms: N_11  and  N_12 
REMARK       I    between atoms: N_12  and  C_13 
REMARK    6  A    between atoms: C_13  and  C_14 
REMARK    7  A    between atoms: C_18  and  C_19 
ROOT
HETATM    1  C   UNL     1      24.537  44.186  50.477  1.00  0.00     0.121 A 
HETATM    2  N   UNL     1      25.578  44.419  49.622  1.00  0.00    -0.272 N 
HETATM    3  H   UNL     1      25.518  44.571  48.619  1.00  0.00     0.189 HD
HETATM    4  N   UNL     1      26.784  44.371  50.199  1.00  0.00    -0.174 NA
HETATM    5  C   UNL     1      26.543  44.123  51.495  1.00  0.00     0.090 A 
HETATM    6  C   UNL     1      25.133  44.045  51.715  1.00  0.00     0.071 A 
ENDROOT
BRANCH   1   7
HETATM    7  C   UNL     1      23.183  44.069  49.998  1.00  0.00     0.289 C 
HETATM    8  N   UNL     1      22.793  45.080  49.128  1.00  0.00    -0.242 N 
HETATM    9  H   UNL     1      23.512  45.603  48.642  1.00  0.00     0.192 HD
HETATM   10  O   UNL     1      22.459  43.152  50.374  1.00  0.00    -0.264 OA
BRANCH   8  11
HETATM   11  N   UNL     1      21.525  45.302  48.644  1.00  0.00    -0.184 NA
HETATM   12  C   UNL     1      20.852  46.281  49.161  1.00  0.00     0.150 C 
BRANCH  12  13
HETATM   13  C   UNL     1      19.490  46.630  48.706  1.00  0.00    -0.014 A 
HETATM   14  C   UNL     1      18.754  45.653  48.022  1.00  0.00     0.016 A 
HETATM   15  C   UNL     1      17.449  45.926  47.623  1.00  0.00     0.040 A 
HETATM   16  C   UNL     1      16.899  47.169  47.911  1.00  0.00     0.099 A 
HETATM   17  C   UNL     1      17.627  48.162  48.579  1.00  0.00     0.102 A 
HETATM   18  C   UNL     1      18.933  47.887  48.982  1.00  0.00     0.052 A 
BRANCH  16  19
HETATM   19  O   UNL     1      15.609  47.406  47.521  1.00  0.00    -0.358 OA
HETATM   20  H   UNL     1      15.608  47.270  46.554  1.00  0.00     0.218 HD
ENDBRANCH  16  19
BRANCH  17  21
HETATM   21  O   UNL     1      16.944  49.333  48.785  1.00  0.00    -0.349 OA
BRANCH  21  22
HETATM   22  C   UNL     1      17.595  50.537  48.382  1.00  0.00     0.171 C 
HETATM   23  C   UNL     1      17.806  51.385  49.624  1.00  0.00     0.034 C 
ENDBRANCH  21  22
ENDBRANCH  17  21
ENDBRANCH  12  13
ENDBRANCH   8  11
ENDBRANCH   1   7
BRANCH   5  24
HETATM   24  C   UNL     1      27.616  43.889  52.477  1.00  0.00     0.005 A 
HETATM   25  C   UNL     1      27.844  44.742  53.603  1.00  0.00    -0.012 A 
HETATM   26  C   UNL     1      28.922  44.416  54.395  1.00  0.00    -0.012 A 
HETATM   27  C   UNL     1      27.124  45.886  54.036  1.00  0.00     0.013 A 
HETATM   28  C   UNL     1      29.319  45.129  55.513  1.00  0.00    -0.046 A 
HETATM   29  C   UNL     1      29.757  43.338  54.176  1.00  0.00    -0.046 A 
HETATM   30  C   UNL     1      28.632  46.257  55.935  1.00  0.00     0.008 A 
HETATM   31  C   UNL     1      30.530  44.515  56.122  1.00  0.00     0.044 A 
HETATM   32  C   UNL     1      27.516  46.623  55.173  1.00  0.00     0.001 A 
HETATM   33  C   UNL     1      30.823  43.283  55.214  1.00  0.00     0.044 A 
HETATM   34  C   UNL     1      29.564  42.482  53.107  1.00  0.00     0.009 A 
HETATM   35  C   UNL     1      28.483  42.780  52.262  1.00  0.00     0.015 A 
ENDBRANCH   5  24
TORSDOF 7
ENDMDL
MODEL 8
REMARK VINA RESULT:      -9.2      3.098      3.928
REMARK  7 active torsions:
REMARK  status: ('A' for Active; 'I' for Inactive)
REMARK    1  A    between atoms: C_2  and  O_3 
REMARK    2  A    between atoms: O_3  and  C_4 
REMARK    3  A    between atoms: C_5  and  O_6 
REMARK    4  A    between atoms: C_9  and  C_10 
REMARK    5  A    between atoms: N_11  and  N_12 
REMARK       I    between atoms: N_12  and  C_13 
REMARK    6  A    between atoms: C_13  and  C_14 
REMARK    7  A    between atoms: C_18  and  C_19 
ROOT
HETATM    1  C   UNL     1      24.465  45.166  50.697  1.00  0.00     0.121 A 
HETATM    2  N   UNL     1      24.291  43.997  51.384  1.00  0.00    -0.272 N 
HETATM    3  H   UNL     1      23.576  43.295  51.216  1.00  0.00     0.189 HD
HETATM    4  N   UNL     1      25.131  43.833  52.412  1.00  0.00    -0.174 NA
HETATM    5  C   UNL     1      25.917  44.921  52.398  1.00  0.00     0.090 A 
HETATM    6  C   UNL     1      25.555  45.762  51.301  1.00  0.00     0.071 A 
ENDROOT
BRANCH   1   7
HETATM    7  C   UNL     1      23.561  45.562  49.646  1.00  0.00     0.289 C 
HETATM    8  N   UNL     1      22.434  44.759  49.526  1.00  0.00    -0.242 N 
HETATM    9  H   UNL     1      22.150  44.203  50.324  1.00  0.00     0.192 HD
HETATM   10  O   UNL     1      23.819  46.520  48.922  1.00  0.00    -0.264 OA
BRANCH   8  11
HETATM   11  N   UNL     1      21.492  44.812  48.525  1.00  0.00    -0.184 NA
HETATM   12  C   UNL     1      20.345  45.343  48.813  1.00  0.00     0.150 C 
BRANCH  12  13
HETATM   13  C   UNL     1      19.265  45.478  47.814  1.00  0.00    -0.014 A 
HETATM   14  C   UNL     1      19.085  44.435  46.896  1.00  0.00     0.016 A 
HETATM   15  C   UNL     1      18.044  44.500  45.973  1.00  0.00     0.040 A 
HETATM   16  C   UNL     1      17.202  45.604  45.979  1.00  0.00     0.099 A 
HETATM   17  C   UNL     1      17.379  46.663  46.880  1.00  0.00     0.102 A 
HETATM   18  C   UNL     1      18.418  46.595  47.806  1.00  0.00     0.052 A 
BRANCH  16  19
HETATM   19  O   UNL     1      16.179  45.637  45.072  1.00  0.00    -0.358 OA
HETATM   20  H   UNL     1      15.385  45.371  45.576  1.00  0.00     0.218 HD
ENDBRANCH  16  19
BRANCH  17  21
HETATM   21  O   UNL     1      16.467  47.679  46.757  1.00  0.00    -0.349 OA
BRANCH  21  22
HETATM   22  C   UNL     1      15.807  48.098  47.951  1.00  0.00     0.171 C 
HETATM   23  C   UNL     1      16.094  49.577  48.142  1.00  0.00     0.034 C 
ENDBRANCH  21  22
ENDBRANCH  17  21
ENDBRANCH  12  13
ENDBRANCH   8  11
ENDBRANCH   1   7
BRANCH   5  24
HETATM   24  C   UNL     1      26.925  45.191  53.438  1.00  0.00     0.005 A 
HETATM   25  C   UNL     1      28.091  44.384  53.624  1.00  0.00    -0.012 A 
HETATM   26  C   UNL     1      28.906  44.737  54.676  1.00  0.00    -0.012 A 
HETATM   27  C   UNL     1      28.545  43.260  52.884  1.00  0.00     0.013 A 
HETATM   28  C   UNL     1      30.064  44.068  55.031  1.00  0.00    -0.046 A 
HETATM   29  C   UNL     1      28.672  45.803  55.523  1.00  0.00    -0.046 A 
HETATM   30  C   UNL     1      30.508  42.961  54.325  1.00  0.00     0.008 A 
HETATM   31  C   UNL     1      30.689  44.702  56.224  1.00  0.00     0.044 A 
HETATM   32  C   UNL     1      29.724  42.568  53.233  1.00  0.00     0.001 A 
HETATM   33  C   UNL     1      29.743  45.896  56.553  1.00  0.00     0.044 A 
HETATM   34  C   UNL     1      27.563  46.616  55.370  1.00  0.00     0.009 A 
HETATM   35  C   UNL     1      26.695  46.287  54.318  1.00  0.00     0.015 A 
ENDBRANCH   5  24
TORSDOF 7
ENDMDL
MODEL 9
REMARK VINA RESULT:      -9.0     14.221     18.304
REMARK  7 active torsions:
REMARK  status: ('A' for Active; 'I' for Inactive)
REMARK    1  A    between atoms: C_2  and  O_3 
REMARK    2  A    between atoms: O_3  and  C_4 
REMARK    3  A    between atoms: C_5  and  O_6 
REMARK    4  A    between atoms: C_9  and  C_10 
REMARK    5  A    between atoms: N_11  and  N_12 
REMARK       I    between atoms: N_12  and  C_13 
REMARK    6  A    between atoms: C_13  and  C_14 
REMARK    7  A    between atoms: C_18  and  C_19 
ROOT
HETATM    1  C   UNL     1      35.267  51.707  43.243  1.00  0.00     0.121 A 
HETATM    2  N   UNL     1      35.497  50.805  42.243  1.00  0.00    -0.272 N 
HETATM    3  H   UNL     1      36.395  50.575  41.827  1.00  0.00     0.189 HD
HETATM    4  N   UNL     1      34.390  50.237  41.749  1.00  0.00    -0.174 NA
HETATM    5  C   UNL     1      33.381  50.757  42.464  1.00  0.00     0.090 A 
HETATM    6  C   UNL     1      33.901  51.655  43.447  1.00  0.00     0.071 A 
ENDROOT
BRANCH   1   7
HETATM    7  C   UNL     1      36.332  52.507  43.794  1.00  0.00     0.289 C 
HETATM    8  N   UNL     1      36.910  51.978  44.942  1.00  0.00    -0.242 N 
HETATM    9  H   UNL     1      36.809  50.986  45.121  1.00  0.00     0.192 HD
HETATM   10  O   UNL     1      36.651  53.573  43.277  1.00  0.00    -0.264 OA
BRANCH   8  11
HETATM   11  N   UNL     1      37.832  52.596  45.755  1.00  0.00    -0.184 NA
HETATM   12  C   UNL     1      39.073  52.247  45.622  1.00  0.00     0.150 C 
BRANCH  12  13
HETATM   13  C   UNL     1      40.156  52.858  46.421  1.00  0.00    -0.014 A 
HETATM   14  C   UNL     1      39.795  53.723  47.463  1.00  0.00     0.016 A 
HETATM   15  C   UNL     1      40.783  54.277  48.272  1.00  0.00     0.040 A 
HETATM   16  C   UNL     1      42.114  53.961  48.029  1.00  0.00     0.099 A 
HETATM   17  C   UNL     1      42.492  53.111  46.981  1.00  0.00     0.102 A 
HETATM   18  C   UNL     1      41.501  52.553  46.174  1.00  0.00     0.052 A 
BRANCH  16  19
HETATM   19  O   UNL     1      43.064  54.507  48.848  1.00  0.00    -0.358 OA
HETATM   20  H   UNL     1      42.969  55.473  48.737  1.00  0.00     0.218 HD
ENDBRANCH  16  19
BRANCH  17  21
HETATM   21  O   UNL     1      43.842  52.901  46.872  1.00  0.00    -0.349 OA
BRANCH  21  22
HETATM   22  C   UNL     1      44.305  51.570  47.099  1.00  0.00     0.171 C 
HETATM   23  C   UNL     1      44.989  51.544  48.455  1.00  0.00     0.034 C 
ENDBRANCH  21  22
ENDBRANCH  17  21
ENDBRANCH  12  13
ENDBRANCH   8  11
ENDBRANCH   1   7
BRANCH   5  24
HETATM   24  C   UNL     1      31.966  50.473  42.172  1.00  0.00     0.005 A 
HETATM   25  C   UNL     1      31.086  51.428  41.572  1.00  0.00    -0.012 A 
HETATM   26  C   UNL     1      29.778  51.026  41.415  1.00  0.00    -0.012 A 
HETATM   27  C   UNL     1      31.353  52.743  41.107  1.00  0.00     0.013 A 
HETATM   28  C   UNL     1      28.773  51.812  40.878  1.00  0.00    -0.046 A 
HETATM   29  C   UNL     1      29.292  49.786  41.782  1.00  0.00    -0.046 A 
HETATM   30  C   UNL     1      29.020  53.102  40.436  1.00  0.00     0.008 A 
HETATM   31  C   UNL     1      27.480  51.076  40.874  1.00  0.00     0.044 A 
HETATM   32  C   UNL     1      30.340  53.556  40.556  1.00  0.00     0.001 A 
HETATM   33  C   UNL     1      27.837  49.686  41.481  1.00  0.00     0.044 A 
HETATM   34  C   UNL     1      30.112  48.830  42.353  1.00  0.00     0.009 A 
HETATM   35  C   UNL     1      31.453  49.198  42.545  1.00  0.00     0.015 A 
ENDBRANCH   5  24
TORSDOF 7
ENDMDL
MODEL 10
REMARK VINA RESULT:      -8.9      3.507      5.283
REMARK  7 active torsions:
REMARK  status: ('A' for Active; 'I' for Inactive)
REMARK    1  A    between atoms: C_2  and  O_3 
REMARK    2  A    between atoms: O_3  and  C_4 
REMARK    3  A    between atoms: C_5  and  O_6 
REMARK    4  A    between atoms: C_9  and  C_10 
REMARK    5  A    between atoms: N_11  and  N_12 
REMARK       I    between atoms: N_12  and  C_13 
REMARK    6  A    between atoms: C_13  and  C_14 
REMARK    7  A    between atoms: C_18  and  C_19 
ROOT
HETATM    1  C   UNL     1      25.630  46.624  52.570  1.00  0.00     0.121 A 
HETATM    2  N   UNL     1      25.570  47.659  53.461  1.00  0.00    -0.272 N 
HETATM    3  H   UNL     1      25.004  48.499  53.379  1.00  0.00     0.189 HD
HETATM    4  N   UNL     1      26.405  47.539  54.500  1.00  0.00    -0.174 NA
HETATM    5  C   UNL     1      27.030  46.367  54.313  1.00  0.00     0.090 A 
HETATM    6  C   UNL     1      26.533  45.740  53.128  1.00  0.00     0.071 A 
ENDROOT
BRANCH   1   7
HETATM    7  C   UNL     1      24.896  46.656  51.330  1.00  0.00     0.289 C 
HETATM    8  N   UNL     1      24.599  45.404  50.807  1.00  0.00    -0.242 N 
HETATM    9  H   UNL     1      24.600  44.607  51.433  1.00  0.00     0.192 HD
HETATM   10  O   UNL     1      24.603  47.723  50.799  1.00  0.00    -0.264 OA
BRANCH   8  11
HETATM   11  N   UNL     1      24.049  45.139  49.575  1.00  0.00    -0.184 NA
HETATM   12  C   UNL     1      22.913  44.515  49.550  1.00  0.00     0.150 C 
BRANCH  12  13
HETATM   13  C   UNL     1      22.214  44.197  48.287  1.00  0.00    -0.014 A 
HETATM   14  C   UNL     1      22.569  43.019  47.617  1.00  0.00     0.016 A 
HETATM   15  C   UNL     1      21.897  42.658  46.453  1.00  0.00     0.040 A 
HETATM   16  C   UNL     1      20.883  43.478  45.974  1.00  0.00     0.099 A 
HETATM   17  C   UNL     1      20.527  44.669  46.624  1.00  0.00     0.102 A 
HETATM   18  C   UNL     1      21.198  45.027  47.792  1.00  0.00     0.052 A 
BRANCH  16  19
HETATM   19  O   UNL     1      20.229  43.094  44.837  1.00  0.00    -0.358 OA
HETATM   20  H   UNL     1      20.316  42.122  44.811  1.00  0.00     0.218 HD
ENDBRANCH  16  19
BRANCH  17  21
HETATM   21  O   UNL     1      19.510  45.365  46.025  1.00  0.00    -0.349 OA
BRANCH  21  22
HETATM   22  C   UNL     1      19.821  46.673  45.546  1.00  0.00     0.171 C 
HETATM   23  C   UNL     1      18.741  47.617  46.045  1.00  0.00     0.034 C 
ENDBRANCH  21  22
ENDBRANCH  17  21
ENDBRANCH  12  13
ENDBRANCH   8  11
ENDBRANCH   1   7
BRANCH   5  24
HETATM   24  C   UNL     1      28.119  45.894  55.185  1.00  0.00     0.005 A 
HETATM   25  C   UNL     1      28.972  44.797  54.845  1.00  0.00    -0.012 A 
HETATM   26  C   UNL     1      29.907  44.445  55.792  1.00  0.00    -0.012 A 
HETATM   27  C   UNL     1      29.007  44.005  53.667  1.00  0.00     0.013 A 
HETATM   28  C   UNL     1      30.805  43.400  55.660  1.00  0.00    -0.046 A 
HETATM   29  C   UNL     1      30.067  45.082  57.007  1.00  0.00    -0.046 A 
HETATM   30  C   UNL     1      30.836  42.611  54.521  1.00  0.00     0.008 A 
HETATM   31  C   UNL     1      31.655  43.285  56.876  1.00  0.00     0.044 A 
HETATM   32  C   UNL     1      29.917  42.937  53.516  1.00  0.00     0.001 A 
HETATM   33  C   UNL     1      31.159  44.443  57.793  1.00  0.00     0.044 A 
HETATM   34  C   UNL     1      29.271  46.154  57.370  1.00  0.00     0.009 A 
HETATM   35  C   UNL     1      28.294  46.543  56.440  1.00  0.00     0.015 A 
ENDBRANCH   5  24
TORSDOF 7
ENDMDL
