MODEL 1
REMARK VINA RESULT:     -11.4      0.000      0.000
REMARK  2 active torsions:
REMARK  status: ('A' for Active; 'I' for Inactive)
REMARK    1  A    between atoms: C_7  and  C_8 
REMARK       I    between atoms: C_8  and  N_9 
REMARK    2  A    between atoms: N_9  and  N_10 
ROOT
HETATM    1  C   UNL     1      25.256  44.103  51.543  1.00  0.00     0.292 C 
HETATM    2  N   UNL     1      25.350  45.287  50.829  1.00  0.00    -0.241 N 
HETATM    3  O   UNL     1      24.268  43.379  51.614  1.00  0.00    -0.264 OA
HETATM    4  H   UNL     1      26.202  45.816  50.981  1.00  0.00     0.192 HD
ENDROOT
BRANCH   1   5
HETATM    5  C   UNL     1      26.524  43.789  52.230  1.00  0.00     0.154 A 
HETATM    6  C   UNL     1      27.097  44.450  53.344  1.00  0.00     0.007 A 
HETATM    7  C   UNL     1      28.258  43.767  53.629  1.00  0.00     0.069 A 
HETATM    8  C   UNL     1      26.653  45.608  54.167  1.00  0.00     0.048 C 
HETATM    9  C   UNL     1      29.166  44.105  54.711  1.00  0.00    -0.001 A 
HETATM   10  N   UNL     1      28.344  42.777  52.700  1.00  0.00    -0.276 N 
HETATM   11  C   UNL     1      28.940  45.345  55.359  1.00  0.00    -0.045 A 
HETATM   12  C   UNL     1      30.200  43.271  55.139  1.00  0.00     0.014 A 
HETATM   13  C   UNL     1      29.778  45.733  56.411  1.00  0.00     0.008 A 
HETATM   14  C   UNL     1      27.861  46.295  54.850  1.00  0.00     0.044 C 
HETATM   15  C   UNL     1      30.808  44.892  56.832  1.00  0.00     0.001 A 
HETATM   16  C   UNL     1      31.018  43.665  56.200  1.00  0.00     0.001 A 
HETATM   17  N   UNL     1      27.311  42.758  51.831  1.00  0.00    -0.168 NA
HETATM   18  H   UNL     1      29.079  42.087  52.594  1.00  0.00     0.189 HD
ENDBRANCH   1   5
BRANCH   2  19
HETATM   19  N   UNL     1      24.266  45.847  50.234  1.00  0.00    -0.165 NA
HETATM   20  C   UNL     1      24.376  47.009  49.671  1.00  0.00     0.157 A 
HETATM   21  C   UNL     1      23.129  47.734  49.119  1.00  0.00     0.277 A 
HETATM   22  C   UNL     1      25.508  47.913  49.406  1.00  0.00     0.027 A 
HETATM   23  O   UNL     1      21.993  47.316  49.104  1.00  0.00    -0.266 OA
HETATM   24  N   UNL     1      23.582  48.951  48.668  1.00  0.00    -0.321 N 
HETATM   25  C   UNL     1      24.957  49.060  48.824  1.00  0.00     0.048 A 
HETATM   26  H   UNL     1      22.971  49.635  48.249  1.00  0.00     0.169 HD
HETATM   27  C   UNL     1      25.732  50.136  48.438  1.00  0.00     0.030 A 
HETATM   28  C   UNL     1      27.110  50.041  48.636  1.00  0.00     0.002 A 
HETATM   29  C   UNL     1      27.677  48.882  49.194  1.00  0.00     0.001 A 
HETATM   30  C   UNL     1      26.876  47.799  49.576  1.00  0.00     0.016 A 
ENDBRANCH   2  19
TORSDOF 2
ENDMDL
MODEL 2
REMARK VINA RESULT:     -10.9      3.441      4.642
REMARK  2 active torsions:
REMARK  status: ('A' for Active; 'I' for Inactive)
REMARK    1  A    between atoms: C_7  and  C_8 
REMARK       I    between atoms: C_8  and  N_9 
REMARK    2  A    between atoms: N_9  and  N_10 
ROOT
HETATM    1  C   UNL     1      26.647  44.343  51.969  1.00  0.00     0.292 C 
HETATM    2  N   UNL     1      25.577  43.518  52.283  1.00  0.00    -0.241 N 
HETATM    3  O   UNL     1      26.642  45.248  51.141  1.00  0.00    -0.264 OA
HETATM    4  H   UNL     1      25.795  42.746  52.903  1.00  0.00     0.192 HD
ENDROOT
BRANCH   1   5
HETATM    5  C   UNL     1      27.836  44.007  52.775  1.00  0.00     0.154 A 
HETATM    6  C   UNL     1      28.212  44.535  54.035  1.00  0.00     0.007 A 
HETATM    7  C   UNL     1      29.374  43.884  54.383  1.00  0.00     0.069 A 
HETATM    8  C   UNL     1      27.582  45.538  54.935  1.00  0.00     0.048 C 
HETATM    9  C   UNL     1      30.110  44.117  55.614  1.00  0.00    -0.001 A 
HETATM   10  N   UNL     1      29.652  43.042  53.351  1.00  0.00    -0.276 N 
HETATM   11  C   UNL     1      29.711  45.237  56.383  1.00  0.00    -0.045 A 
HETATM   12  C   UNL     1      31.140  43.289  56.064  1.00  0.00     0.014 A 
HETATM   13  C   UNL     1      30.377  45.520  57.583  1.00  0.00     0.008 A 
HETATM   14  C   UNL     1      28.638  46.188  55.863  1.00  0.00     0.044 C 
HETATM   15  C   UNL     1      31.404  44.686  58.025  1.00  0.00     0.001 A 
HETATM   16  C   UNL     1      31.784  43.575  57.270  1.00  0.00     0.001 A 
HETATM   17  N   UNL     1      28.743  43.088  52.354  1.00  0.00    -0.168 NA
HETATM   18  H   UNL     1      30.443  42.416  53.256  1.00  0.00     0.189 HD
ENDBRANCH   1   5
BRANCH   2  19
HETATM   19  N   UNL     1      24.422  43.549  51.571  1.00  0.00    -0.165 NA
HETATM   20  C   UNL     1      24.288  42.778  50.539  1.00  0.00     0.157 A 
HETATM   21  C   UNL     1      23.049  42.899  49.625  1.00  0.00     0.277 A 
HETATM   22  C   UNL     1      25.112  41.710  49.947  1.00  0.00     0.027 A 
HETATM   23  O   UNL     1      22.102  43.639  49.778  1.00  0.00    -0.266 OA
HETATM   24  N   UNL     1      23.258  42.005  48.602  1.00  0.00    -0.321 N 
HETATM   25  C   UNL     1      24.445  41.309  48.784  1.00  0.00     0.048 A 
HETATM   26  H   UNL     1      22.595  41.872  47.853  1.00  0.00     0.169 HD
HETATM   27  C   UNL     1      24.933  40.312  47.962  1.00  0.00     0.030 A 
HETATM   28  C   UNL     1      26.126  39.694  48.336  1.00  0.00     0.002 A 
HETATM   29  C   UNL     1      26.789  40.069  49.518  1.00  0.00     0.001 A 
HETATM   30  C   UNL     1      26.278  41.080  50.342  1.00  0.00     0.016 A 
ENDBRANCH   2  19
TORSDOF 2
ENDMDL
MODEL 3
REMARK VINA RESULT:     -10.9      1.702      2.339
REMARK  2 active torsions:
REMARK  status: ('A' for Active; 'I' for Inactive)
REMARK    1  A    between atoms: C_7  and  C_8 
REMARK       I    between atoms: C_8  and  N_9 
REMARK    2  A    between atoms: N_9  and  N_10 
ROOT
HETATM    1  C   UNL     1      27.113  43.040  51.557  1.00  0.00     0.292 C 
HETATM    2  N   UNL     1      25.902  43.348  52.157  1.00  0.00    -0.241 N 
HETATM    3  O   UNL     1      27.292  42.816  50.364  1.00  0.00    -0.264 OA
HETATM    4  H   UNL     1      25.918  43.382  53.171  1.00  0.00     0.192 HD
ENDROOT
BRANCH   1   5
HETATM    5  C   UNL     1      28.209  43.017  52.545  1.00  0.00     0.154 A 
HETATM    6  C   UNL     1      28.363  43.831  53.693  1.00  0.00     0.007 A 
HETATM    7  C   UNL     1      29.522  43.406  54.303  1.00  0.00     0.069 A 
HETATM    8  C   UNL     1      27.530  44.917  54.278  1.00  0.00     0.048 C 
HETATM    9  C   UNL     1      30.062  43.969  55.528  1.00  0.00    -0.001 A 
HETATM   10  N   UNL     1      30.010  42.409  53.517  1.00  0.00    -0.276 N 
HETATM   11  C   UNL     1      29.464  45.169  55.986  1.00  0.00    -0.045 A 
HETATM   12  C   UNL     1      31.092  43.377  56.261  1.00  0.00     0.014 A 
HETATM   13  C   UNL     1      29.935  45.766  57.162  1.00  0.00     0.008 A 
HETATM   14  C   UNL     1      28.389  45.862  55.154  1.00  0.00     0.044 C 
HETATM   15  C   UNL     1      30.964  45.166  57.887  1.00  0.00     0.001 A 
HETATM   16  C   UNL     1      31.540  43.976  57.440  1.00  0.00     0.001 A 
HETATM   17  N   UNL     1      29.243  42.143  52.438  1.00  0.00    -0.168 NA
HETATM   18  H   UNL     1      30.861  41.872  53.649  1.00  0.00     0.189 HD
ENDBRANCH   1   5
BRANCH   2  19
HETATM   19  N   UNL     1      24.732  43.287  51.471  1.00  0.00    -0.165 NA
HETATM   20  C   UNL     1      24.325  44.325  50.811  1.00  0.00     0.157 A 
HETATM   21  C   UNL     1      22.931  44.334  50.146  1.00  0.00     0.277 A 
HETATM   22  C   UNL     1      24.914  45.641  50.512  1.00  0.00     0.027 A 
HETATM   23  O   UNL     1      22.131  43.426  50.121  1.00  0.00    -0.266 OA
HETATM   24  N   UNL     1      22.791  45.590  49.606  1.00  0.00    -0.321 N 
HETATM   25  C   UNL     1      23.935  46.350  49.807  1.00  0.00     0.048 A 
HETATM   26  H   UNL     1      21.965  45.875  49.102  1.00  0.00     0.169 HD
HETATM   27  C   UNL     1      24.140  47.640  49.357  1.00  0.00     0.030 A 
HETATM   28  C   UNL     1      25.379  48.225  49.619  1.00  0.00     0.002 A 
HETATM   29  C   UNL     1      26.380  47.512  50.302  1.00  0.00     0.001 A 
HETATM   30  C   UNL     1      26.157  46.202  50.747  1.00  0.00     0.016 A 
ENDBRANCH   2  19
TORSDOF 2
ENDMDL
MODEL 4
REMARK VINA RESULT:     -10.7      3.688      6.370
REMARK  2 active torsions:
REMARK  status: ('A' for Active; 'I' for Inactive)
REMARK    1  A    between atoms: C_7  and  C_8 
REMARK       I    between atoms: C_8  and  N_9 
REMARK    2  A    between atoms: N_9  and  N_10 
ROOT
HETATM    1  C   UNL     1      27.128  43.918  50.533  1.00  0.00     0.292 C 
HETATM    2  N   UNL     1      26.636  42.623  50.488  1.00  0.00    -0.241 N 
HETATM    3  O   UNL     1      27.321  44.651  49.569  1.00  0.00    -0.264 OA
HETATM    4  H   UNL     1      26.656  42.123  51.370  1.00  0.00     0.192 HD
ENDROOT
BRANCH   1   5
HETATM    5  C   UNL     1      27.399  44.340  51.921  1.00  0.00     0.154 A 
HETATM    6  C   UNL     1      28.499  43.985  52.740  1.00  0.00     0.007 A 
HETATM    7  C   UNL     1      28.315  44.655  53.928  1.00  0.00     0.069 A 
HETATM    8  C   UNL     1      29.694  43.128  52.507  1.00  0.00     0.048 C 
HETATM    9  C   UNL     1      29.219  44.582  55.062  1.00  0.00    -0.001 A 
HETATM   10  N   UNL     1      27.148  45.341  53.790  1.00  0.00    -0.276 N 
HETATM   11  C   UNL     1      30.225  43.586  55.002  1.00  0.00    -0.045 A 
HETATM   12  C   UNL     1      29.152  45.444  56.158  1.00  0.00     0.014 A 
HETATM   13  C   UNL     1      31.131  43.460  56.062  1.00  0.00     0.008 A 
HETATM   14  C   UNL     1      30.259  42.592  53.846  1.00  0.00     0.044 C 
HETATM   15  C   UNL     1      31.057  44.327  57.152  1.00  0.00     0.001 A 
HETATM   16  C   UNL     1      30.073  45.316  57.200  1.00  0.00     0.001 A 
HETATM   17  N   UNL     1      26.560  45.175  52.586  1.00  0.00    -0.168 NA
HETATM   18  H   UNL     1      26.691  45.934  54.474  1.00  0.00     0.189 HD
ENDBRANCH   1   5
BRANCH   2  19
HETATM   19  N   UNL     1      26.448  41.973  49.311  1.00  0.00    -0.165 NA
HETATM   20  C   UNL     1      27.138  40.907  49.053  1.00  0.00     0.157 A 
HETATM   21  C   UNL     1      27.053  40.236  47.665  1.00  0.00     0.277 A 
HETATM   22  C   UNL     1      28.091  40.095  49.828  1.00  0.00     0.027 A 
HETATM   23  O   UNL     1      26.351  40.570  46.737  1.00  0.00    -0.266 OA
HETATM   24  N   UNL     1      27.952  39.196  47.706  1.00  0.00    -0.321 N 
HETATM   25  C   UNL     1      28.550  39.103  48.954  1.00  0.00     0.048 A 
HETATM   26  H   UNL     1      28.102  38.578  46.923  1.00  0.00     0.169 HD
HETATM   27  C   UNL     1      29.468  38.147  49.343  1.00  0.00     0.030 A 
HETATM   28  C   UNL     1      29.925  38.189  50.660  1.00  0.00     0.002 A 
HETATM   29  C   UNL     1      29.448  39.163  51.555  1.00  0.00     0.001 A 
HETATM   30  C   UNL     1      28.514  40.124  51.145  1.00  0.00     0.016 A 
ENDBRANCH   2  19
TORSDOF 2
ENDMDL
MODEL 5
REMARK VINA RESULT:     -10.2      3.118      4.759
REMARK  2 active torsions:
REMARK  status: ('A' for Active; 'I' for Inactive)
REMARK    1  A    between atoms: C_7  and  C_8 
REMARK       I    between atoms: C_8  and  N_9 
REMARK    2  A    between atoms: N_9  and  N_10 
ROOT
HETATM    1  C   UNL     1      25.528  45.477  51.807  1.00  0.00     0.292 C 
HETATM    2  N   UNL     1      24.472  44.597  51.992  1.00  0.00    -0.241 N 
HETATM    3  O   UNL     1      25.779  46.099  50.779  1.00  0.00    -0.264 OA
HETATM    4  H   UNL     1      24.489  44.081  52.864  1.00  0.00     0.192 HD
ENDROOT
BRANCH   1   5
HETATM    5  C   UNL     1      26.346  45.596  53.029  1.00  0.00     0.154 A 
HETATM    6  C   UNL     1      27.517  44.874  53.367  1.00  0.00     0.007 A 
HETATM    7  C   UNL     1      27.923  45.367  54.586  1.00  0.00     0.069 A 
HETATM    8  C   UNL     1      28.292  43.821  52.656  1.00  0.00     0.048 C 
HETATM    9  C   UNL     1      29.097  44.909  55.309  1.00  0.00    -0.001 A 
HETATM   10  N   UNL     1      27.006  46.311  54.930  1.00  0.00    -0.276 N 
HETATM   11  C   UNL     1      29.721  43.736  54.817  1.00  0.00    -0.045 A 
HETATM   12  C   UNL     1      29.631  45.575  56.414  1.00  0.00     0.014 A 
HETATM   13  C   UNL     1      30.859  43.240  55.465  1.00  0.00     0.008 A 
HETATM   14  C   UNL     1      29.103  42.962  53.658  1.00  0.00     0.044 C 
HETATM   15  C   UNL     1      31.385  43.913  56.568  1.00  0.00     0.001 A 
HETATM   16  C   UNL     1      30.775  45.076  57.040  1.00  0.00     0.001 A 
HETATM   17  N   UNL     1      26.030  46.479  54.011  1.00  0.00    -0.168 NA
HETATM   18  H   UNL     1      26.977  46.872  55.774  1.00  0.00     0.189 HD
ENDBRANCH   1   5
BRANCH   2  19
HETATM   19  N   UNL     1      23.670  44.223  50.962  1.00  0.00    -0.165 NA
HETATM   20  C   UNL     1      24.006  43.210  50.228  1.00  0.00     0.157 A 
HETATM   21  C   UNL     1      23.193  42.854  48.964  1.00  0.00     0.277 A 
HETATM   22  C   UNL     1      25.088  42.213  50.295  1.00  0.00     0.027 A 
HETATM   23  O   UNL     1      22.193  43.407  48.563  1.00  0.00    -0.266 OA
HETATM   24  N   UNL     1      23.853  41.795  48.389  1.00  0.00    -0.321 N 
HETATM   25  C   UNL     1      24.946  41.413  49.156  1.00  0.00     0.048 A 
HETATM   26  H   UNL     1      23.535  41.353  47.540  1.00  0.00     0.169 HD
HETATM   27  C   UNL     1      25.798  40.360  48.883  1.00  0.00     0.030 A 
HETATM   28  C   UNL     1      26.817  40.102  49.801  1.00  0.00     0.002 A 
HETATM   29  C   UNL     1      26.951  40.881  50.963  1.00  0.00     0.001 A 
HETATM   30  C   UNL     1      26.076  41.943  51.225  1.00  0.00     0.016 A 
ENDBRANCH   2  19
TORSDOF 2
ENDMDL
MODEL 6
REMARK VINA RESULT:     -10.2      2.311      3.096
REMARK  2 active torsions:
REMARK  status: ('A' for Active; 'I' for Inactive)
REMARK    1  A    between atoms: C_7  and  C_8 
REMARK       I    between atoms: C_8  and  N_9 
REMARK    2  A    between atoms: N_9  and  N_10 
ROOT
HETATM    1  C   UNL     1      26.269  44.262  51.144  1.00  0.00     0.292 C 
HETATM    2  N   UNL     1      24.893  44.129  51.253  1.00  0.00    -0.241 N 
HETATM    3  O   UNL     1      26.937  44.058  50.136  1.00  0.00    -0.264 OA
HETATM    4  H   UNL     1      24.523  44.220  52.193  1.00  0.00     0.192 HD
ENDROOT
BRANCH   1   5
HETATM    5  C   UNL     1      26.867  44.699  52.420  1.00  0.00     0.154 A 
HETATM    6  C   UNL     1      27.993  44.156  53.085  1.00  0.00     0.007 A 
HETATM    7  C   UNL     1      28.172  44.926  54.212  1.00  0.00     0.069 A 
HETATM    8  C   UNL     1      28.915  43.035  52.755  1.00  0.00     0.048 C 
HETATM    9  C   UNL     1      29.226  44.722  55.190  1.00  0.00    -0.001 A 
HETATM   10  N   UNL     1      27.174  45.850  54.192  1.00  0.00    -0.276 N 
HETATM   11  C   UNL     1      29.969  43.521  55.073  1.00  0.00    -0.045 A 
HETATM   12  C   UNL     1      29.543  45.646  56.188  1.00  0.00     0.014 A 
HETATM   13  C   UNL     1      31.001  43.260  55.983  1.00  0.00     0.008 A 
HETATM   14  C   UNL     1      29.582  42.473  54.035  1.00  0.00     0.044 C 
HETATM   15  C   UNL     1      31.310  44.190  56.975  1.00  0.00     0.001 A 
HETATM   16  C   UNL     1      30.585  45.378  57.077  1.00  0.00     0.001 A 
HETATM   17  N   UNL     1      26.359  45.745  53.121  1.00  0.00    -0.168 NA
HETATM   18  H   UNL     1      26.983  46.575  54.876  1.00  0.00     0.189 HD
ENDBRANCH   1   5
BRANCH   2  19
HETATM   19  N   UNL     1      24.147  43.602  50.248  1.00  0.00    -0.165 NA
HETATM   20  C   UNL     1      23.495  44.393  49.456  1.00  0.00     0.157 A 
HETATM   21  C   UNL     1      22.524  43.818  48.401  1.00  0.00     0.277 A 
HETATM   22  C   UNL     1      23.428  45.855  49.299  1.00  0.00     0.027 A 
HETATM   23  O   UNL     1      22.308  42.649  48.172  1.00  0.00    -0.266 OA
HETATM   24  N   UNL     1      21.951  44.912  47.796  1.00  0.00    -0.321 N 
HETATM   25  C   UNL     1      22.474  46.093  48.304  1.00  0.00     0.048 A 
HETATM   26  H   UNL     1      21.271  44.828  47.056  1.00  0.00     0.169 HD
HETATM   27  C   UNL     1      22.145  47.369  47.887  1.00  0.00     0.030 A 
HETATM   28  C   UNL     1      22.814  48.435  48.489  1.00  0.00     0.002 A 
HETATM   29  C   UNL     1      23.796  48.206  49.469  1.00  0.00     0.001 A 
HETATM   30  C   UNL     1      24.119  46.906  49.877  1.00  0.00     0.016 A 
ENDBRANCH   2  19
TORSDOF 2
ENDMDL
MODEL 7
REMARK VINA RESULT:     -10.1      3.677      6.716
REMARK  2 active torsions:
REMARK  status: ('A' for Active; 'I' for Inactive)
REMARK    1  A    between atoms: C_7  and  C_8 
REMARK       I    between atoms: C_8  and  N_9 
REMARK    2  A    between atoms: N_9  and  N_10 
ROOT
HETATM    1  C   UNL     1      25.740  43.946  51.995  1.00  0.00     0.292 C 
HETATM    2  N   UNL     1      26.714  44.910  52.209  1.00  0.00    -0.241 N 
HETATM    3  O   UNL     1      24.612  43.941  52.476  1.00  0.00    -0.264 OA
HETATM    4  H   UNL     1      27.629  44.691  51.829  1.00  0.00     0.192 HD
ENDROOT
BRANCH   1   5
HETATM    5  C   UNL     1      26.223  42.890  51.085  1.00  0.00     0.154 A 
HETATM    6  C   UNL     1      27.097  41.816  51.384  1.00  0.00     0.007 A 
HETATM    7  C   UNL     1      27.216  41.093  50.219  1.00  0.00     0.069 A 
HETATM    8  C   UNL     1      27.784  41.394  52.635  1.00  0.00     0.048 C 
HETATM    9  C   UNL     1      28.022  39.893  50.074  1.00  0.00    -0.001 A 
HETATM   10  N   UNL     1      26.458  41.746  49.297  1.00  0.00    -0.276 N 
HETATM   11  C   UNL     1      28.901  39.592  51.143  1.00  0.00    -0.045 A 
HETATM   12  C   UNL     1      27.944  39.040  48.971  1.00  0.00     0.014 A 
HETATM   13  C   UNL     1      29.707  38.449  51.070  1.00  0.00     0.008 A 
HETATM   14  C   UNL     1      29.047  40.556  52.317  1.00  0.00     0.044 C 
HETATM   15  C   UNL     1      29.621  37.603  49.964  1.00  0.00     0.001 A 
HETATM   16  C   UNL     1      28.743  37.896  48.919  1.00  0.00     0.001 A 
HETATM   17  N   UNL     1      25.840  42.844  49.784  1.00  0.00    -0.168 NA
HETATM   18  H   UNL     1      26.322  41.507  48.321  1.00  0.00     0.189 HD
ENDBRANCH   1   5
BRANCH   2  19
HETATM   19  N   UNL     1      26.545  45.902  53.121  1.00  0.00    -0.165 NA
HETATM   20  C   UNL     1      27.315  45.949  54.162  1.00  0.00     0.157 A 
HETATM   21  C   UNL     1      27.049  46.974  55.286  1.00  0.00     0.277 A 
HETATM   22  C   UNL     1      28.495  45.183  54.595  1.00  0.00     0.027 A 
HETATM   23  O   UNL     1      26.187  47.824  55.307  1.00  0.00    -0.266 OA
HETATM   24  N   UNL     1      27.986  46.705  56.256  1.00  0.00    -0.321 N 
HETATM   25  C   UNL     1      28.830  45.676  55.862  1.00  0.00     0.048 A 
HETATM   26  H   UNL     1      28.046  47.232  57.113  1.00  0.00     0.169 HD
HETATM   27  C   UNL     1      29.901  45.186  56.583  1.00  0.00     0.030 A 
HETATM   28  C   UNL     1      30.664  44.175  55.998  1.00  0.00     0.002 A 
HETATM   29  C   UNL     1      30.355  43.693  54.715  1.00  0.00     0.001 A 
HETATM   30  C   UNL     1      29.266  44.204  53.995  1.00  0.00     0.016 A 
ENDBRANCH   2  19
TORSDOF 2
ENDMDL
MODEL 8
REMARK VINA RESULT:     -10.1      1.987      7.763
REMARK  2 active torsions:
REMARK  status: ('A' for Active; 'I' for Inactive)
REMARK    1  A    between atoms: C_7  and  C_8 
REMARK       I    between atoms: C_8  and  N_9 
REMARK    2  A    between atoms: N_9  and  N_10 
ROOT
HETATM    1  C   UNL     1      26.164  44.011  50.521  1.00  0.00     0.292 C 
HETATM    2  N   UNL     1      25.940  43.507  51.793  1.00  0.00    -0.241 N 
HETATM    3  O   UNL     1      27.112  43.738  49.792  1.00  0.00    -0.264 OA
HETATM    4  H   UNL     1      25.172  43.935  52.298  1.00  0.00     0.192 HD
ENDROOT
BRANCH   1   5
HETATM    5  C   UNL     1      25.094  44.943  50.119  1.00  0.00     0.154 A 
HETATM    6  C   UNL     1      25.228  46.278  49.661  1.00  0.00     0.007 A 
HETATM    7  C   UNL     1      23.950  46.709  49.384  1.00  0.00     0.069 A 
HETATM    8  C   UNL     1      26.411  47.150  49.430  1.00  0.00     0.048 C 
HETATM    9  C   UNL     1      23.620  48.031  48.881  1.00  0.00    -0.001 A 
HETATM   10  N   UNL     1      23.131  45.669  49.695  1.00  0.00    -0.276 N 
HETATM   11  C   UNL     1      24.665  48.988  48.891  1.00  0.00    -0.045 A 
HETATM   12  C   UNL     1      22.363  48.373  48.379  1.00  0.00     0.014 A 
HETATM   13  C   UNL     1      24.416  50.283  48.418  1.00  0.00     0.008 A 
HETATM   14  C   UNL     1      26.018  48.646  49.505  1.00  0.00     0.044 C 
HETATM   15  C   UNL     1      23.157  50.614  47.918  1.00  0.00     0.001 A 
HETATM   16  C   UNL     1      22.135  49.664  47.897  1.00  0.00     0.001 A 
HETATM   17  N   UNL     1      23.787  44.578  50.146  1.00  0.00    -0.168 NA
HETATM   18  H   UNL     1      22.119  45.634  49.632  1.00  0.00     0.189 HD
ENDBRANCH   1   5
BRANCH   2  19
HETATM   19  N   UNL     1      26.865  42.741  52.428  1.00  0.00    -0.165 NA
HETATM   20  C   UNL     1      27.641  43.280  53.313  1.00  0.00     0.157 A 
HETATM   21  C   UNL     1      28.796  42.469  53.940  1.00  0.00     0.277 A 
HETATM   22  C   UNL     1      27.715  44.615  53.930  1.00  0.00     0.027 A 
HETATM   23  O   UNL     1      29.067  41.308  53.732  1.00  0.00    -0.266 OA
HETATM   24  N   UNL     1      29.455  43.349  54.766  1.00  0.00    -0.321 N 
HETATM   25  C   UNL     1      28.832  44.589  54.772  1.00  0.00     0.048 A 
HETATM   26  H   UNL     1      30.261  43.081  55.311  1.00  0.00     0.169 HD
HETATM   27  C   UNL     1      29.214  45.683  55.524  1.00  0.00     0.030 A 
HETATM   28  C   UNL     1      28.432  46.835  55.429  1.00  0.00     0.002 A 
HETATM   29  C   UNL     1      27.290  46.862  54.610  1.00  0.00     0.001 A 
HETATM   30  C   UNL     1      26.915  45.742  53.857  1.00  0.00     0.016 A 
ENDBRANCH   2  19
TORSDOF 2
ENDMDL
MODEL 9
REMARK VINA RESULT:      -9.9      2.658      4.319
REMARK  2 active torsions:
REMARK  status: ('A' for Active; 'I' for Inactive)
REMARK    1  A    between atoms: C_7  and  C_8 
REMARK       I    between atoms: C_8  and  N_9 
REMARK    2  A    between atoms: N_9  and  N_10 
ROOT
HETATM    1  C   UNL     1      26.002  47.212  53.947  1.00  0.00     0.292 C 
HETATM    2  N   UNL     1      26.031  46.284  52.917  1.00  0.00    -0.241 N 
HETATM    3  O   UNL     1      25.263  48.188  54.020  1.00  0.00    -0.264 OA
HETATM    4  H   UNL     1      26.788  45.611  52.963  1.00  0.00     0.192 HD
ENDROOT
BRANCH   1   5
HETATM    5  C   UNL     1      26.989  46.881  54.993  1.00  0.00     0.154 A 
HETATM    6  C   UNL     1      27.984  45.873  54.963  1.00  0.00     0.007 A 
HETATM    7  C   UNL     1      28.667  45.985  56.153  1.00  0.00     0.069 A 
HETATM    8  C   UNL     1      28.367  44.865  53.938  1.00  0.00     0.048 C 
HETATM    9  C   UNL     1      29.784  45.142  56.543  1.00  0.00    -0.001 A 
HETATM   10  N   UNL     1      28.067  47.000  56.832  1.00  0.00    -0.276 N 
HETATM   11  C   UNL     1      30.025  44.003  55.735  1.00  0.00    -0.045 A 
HETATM   12  C   UNL     1      30.616  45.417  57.630  1.00  0.00     0.014 A 
HETATM   13  C   UNL     1      31.086  43.147  56.053  1.00  0.00     0.008 A 
HETATM   14  C   UNL     1      29.077  43.654  54.592  1.00  0.00     0.044 C 
HETATM   15  C   UNL     1      31.912  43.432  57.140  1.00  0.00     0.001 A 
HETATM   16  C   UNL     1      31.680  44.562  57.925  1.00  0.00     0.001 A 
HETATM   17  N   UNL     1      27.043  47.569  56.162  1.00  0.00    -0.168 NA
HETATM   18  H   UNL     1      28.297  47.352  57.755  1.00  0.00     0.189 HD
ENDBRANCH   1   5
BRANCH   2  19
HETATM   19  N   UNL     1      25.310  46.461  51.780  1.00  0.00    -0.165 NA
HETATM   20  C   UNL     1      25.306  45.533  50.876  1.00  0.00     0.157 A 
HETATM   21  C   UNL     1      24.618  45.769  49.514  1.00  0.00     0.277 A 
HETATM   22  C   UNL     1      25.858  44.170  50.809  1.00  0.00     0.027 A 
HETATM   23  O   UNL     1      24.006  46.756  49.169  1.00  0.00    -0.266 OA
HETATM   24  N   UNL     1      24.863  44.634  48.778  1.00  0.00    -0.321 N 
HETATM   25  C   UNL     1      25.573  43.702  49.522  1.00  0.00     0.048 A 
HETATM   26  H   UNL     1      24.522  44.514  47.836  1.00  0.00     0.169 HD
HETATM   27  C   UNL     1      25.946  42.442  49.096  1.00  0.00     0.030 A 
HETATM   28  C   UNL     1      26.619  41.627  50.007  1.00  0.00     0.002 A 
HETATM   29  C   UNL     1      26.885  42.076  51.312  1.00  0.00     0.001 A 
HETATM   30  C   UNL     1      26.496  43.356  51.728  1.00  0.00     0.016 A 
ENDBRANCH   2  19
TORSDOF 2
ENDMDL
MODEL 10
REMARK VINA RESULT:      -9.8      4.155      7.712
REMARK  2 active torsions:
REMARK  status: ('A' for Active; 'I' for Inactive)
REMARK    1  A    between atoms: C_7  and  C_8 
REMARK       I    between atoms: C_8  and  N_9 
REMARK    2  A    between atoms: N_9  and  N_10 
ROOT
HETATM    1  C   UNL     1      26.659  43.273  52.097  1.00  0.00     0.292 C 
HETATM    2  N   UNL     1      27.660  44.013  52.708  1.00  0.00    -0.241 N 
HETATM    3  O   UNL     1      25.480  43.596  52.000  1.00  0.00    -0.264 OA
HETATM    4  H   UNL     1      28.551  43.539  52.802  1.00  0.00     0.192 HD
ENDROOT
BRANCH   1   5
HETATM    5  C   UNL     1      27.187  42.010  51.548  1.00  0.00     0.154 A 
HETATM    6  C   UNL     1      27.167  41.570  50.201  1.00  0.00     0.007 A 
HETATM    7  C   UNL     1      27.806  40.351  50.195  1.00  0.00     0.069 A 
HETATM    8  C   UNL     1      26.653  42.186  48.947  1.00  0.00     0.048 C 
HETATM    9  C   UNL     1      28.017  39.539  49.009  1.00  0.00    -0.001 A 
HETATM   10  N   UNL     1      28.150  40.105  51.488  1.00  0.00    -0.276 N 
HETATM   11  C   UNL     1      27.324  39.940  47.840  1.00  0.00    -0.045 A 
HETATM   12  C   UNL     1      28.868  38.433  48.973  1.00  0.00     0.014 A 
HETATM   13  C   UNL     1      27.483  39.203  46.660  1.00  0.00     0.008 A 
HETATM   14  C   UNL     1      26.336  41.100  47.889  1.00  0.00     0.044 C 
HETATM   15  C   UNL     1      28.337  38.100  46.634  1.00  0.00     0.001 A 
HETATM   16  C   UNL     1      29.028  37.717  47.785  1.00  0.00     0.001 A 
HETATM   17  N   UNL     1      27.790  41.088  52.341  1.00  0.00    -0.168 NA
HETATM   18  H   UNL     1      28.622  39.289  51.861  1.00  0.00     0.189 HD
ENDBRANCH   1   5
BRANCH   2  19
HETATM   19  N   UNL     1      27.383  45.144  53.406  1.00  0.00    -0.165 NA
HETATM   20  C   UNL     1      28.040  45.400  54.493  1.00  0.00     0.157 A 
HETATM   21  C   UNL     1      27.645  46.598  55.384  1.00  0.00     0.277 A 
HETATM   22  C   UNL     1      29.180  44.762  55.172  1.00  0.00     0.027 A 
HETATM   23  O   UNL     1      26.772  47.409  55.167  1.00  0.00    -0.266 OA
HETATM   24  N   UNL     1      28.480  46.535  56.474  1.00  0.00    -0.321 N 
HETATM   25  C   UNL     1      29.375  45.481  56.356  1.00  0.00     0.048 A 
HETATM   26  H   UNL     1      28.443  47.207  57.225  1.00  0.00     0.169 HD
HETATM   27  C   UNL     1      30.373  45.162  57.257  1.00  0.00     0.030 A 
HETATM   28  C   UNL     1      31.207  44.089  56.941  1.00  0.00     0.002 A 
HETATM   29  C   UNL     1      31.039  43.379  55.739  1.00  0.00     0.001 A 
HETATM   30  C   UNL     1      30.024  43.718  54.836  1.00  0.00     0.016 A 
ENDBRANCH   2  19
TORSDOF 2
ENDMDL
