MODEL 1
REMARK VINA RESULT:      -8.4      0.000      0.000
REMARK  7 active torsions:
REMARK  status: ('A' for Active; 'I' for Inactive)
REMARK    1  A    between atoms: C_7  and  S_8 
REMARK    2  A    between atoms: S_8  and  C_9 
REMARK    3  A    between atoms: C_9  and  C_10 
REMARK    4  A    between atoms: C_18  and  C_19 
REMARK    5  A    between atoms: C_26  and  C_27 
REMARK    6  A    between atoms: C_27  and  O_28 
REMARK    7  A    between atoms: O_28  and  C_29 
ROOT
HETATM    1  C   UNL     1      27.190  47.164  53.935  1.00  0.00     0.070 C 
HETATM    2  C   UNL     1      26.294  46.589  52.866  1.00  0.00     0.037 A 
HETATM    3  N   UNL     1      25.842  47.494  51.914  1.00  0.00    -0.192 N 
HETATM    4  C   UNL     1      24.924  47.190  50.979  1.00  0.00     0.726 A 
HETATM    5  N   UNL     1      24.434  45.916  50.907  1.00  0.00    -0.082 N 
HETATM    6  N   UNL     1      23.467  45.815  49.972  1.00  0.00    -0.128 NA
HETATM    7  C   UNL     1      23.493  47.049  49.451  1.00  0.00     0.226 A 
HETATM    8  N   UNL     1      24.356  47.926  50.062  1.00  0.00    -0.035 NA
HETATM    9  C   UNL     1      24.895  44.810  51.758  1.00  0.00     0.203 A 
HETATM   10  C   UNL     1      25.879  45.297  52.816  1.00  0.00     0.070 A 
HETATM   11  H   UNL     1      26.161  48.457  51.984  1.00  0.00     0.184 HD
ENDROOT
BRANCH   7  12
HETATM   12  S   UNL     1      22.527  47.542  48.090  1.00  0.00    -0.083 SA
BRANCH  12  13
HETATM   13  C   UNL     1      20.877  47.652  48.834  1.00  0.00     0.123 C 
BRANCH  13  14
HETATM   14  C   UNL     1      20.461  49.095  49.014  1.00  0.00    -0.027 A 
HETATM   15  C   UNL     1      19.450  49.489  49.907  1.00  0.00     0.041 A 
HETATM   16 CL   UNL     1      18.612  48.356  50.908  1.00  0.00    -0.084 Cl
HETATM   17  C   UNL     1      19.078  50.833  50.012  1.00  0.00     0.024 A 
HETATM   18  C   UNL     1      19.701  51.800  49.223  1.00  0.00     0.002 A 
HETATM   19  C   UNL     1      20.698  51.426  48.327  1.00  0.00     0.001 A 
HETATM   20  C   UNL     1      21.075  50.085  48.223  1.00  0.00     0.009 A 
ENDBRANCH  13  14
ENDBRANCH  12  13
ENDBRANCH   7  12
BRANCH   9  21
HETATM   21  C   UNL     1      25.464  43.695  50.880  1.00  0.00    -0.028 A 
HETATM   22  C   UNL     1      26.644  43.875  50.133  1.00  0.00     0.012 A 
HETATM   23  C   UNL     1      27.131  42.847  49.322  1.00  0.00     0.043 A 
HETATM   24  C   UNL     1      26.444  41.642  49.253  1.00  0.00     0.116 A 
HETATM   25  F   UNL     1      26.912  40.659  48.472  1.00  0.00    -0.206 F 
HETATM   26  C   UNL     1      25.280  41.439  49.983  1.00  0.00     0.043 A 
HETATM   27  C   UNL     1      24.790  42.462  50.796  1.00  0.00     0.012 A 
ENDBRANCH   9  21
BRANCH  10  28
HETATM   28  C   UNL     1      26.287  44.253  53.778  1.00  0.00     0.294 C 
HETATM   29  O   UNL     1      25.524  43.784  54.608  1.00  0.00    -0.259 OA
BRANCH  28  30
HETATM   30  O   UNL     1      27.562  43.869  53.542  1.00  0.00    -0.313 OA
BRANCH  30  31
HETATM   31  C   UNL     1      27.984  42.600  54.076  1.00  0.00     0.124 C 
HETATM   32  C   UNL     1      27.866  41.560  52.971  1.00  0.00     0.040 C 
HETATM   33  C   UNL     1      29.429  42.760  54.531  1.00  0.00     0.040 C 
ENDBRANCH  30  31
ENDBRANCH  28  30
ENDBRANCH  10  28
TORSDOF 7
ENDMDL
MODEL 2
REMARK VINA RESULT:      -8.0      4.564      8.252
REMARK  7 active torsions:
REMARK  status: ('A' for Active; 'I' for Inactive)
REMARK    1  A    between atoms: C_7  and  S_8 
REMARK    2  A    between atoms: S_8  and  C_9 
REMARK    3  A    between atoms: C_9  and  C_10 
REMARK    4  A    between atoms: C_18  and  C_19 
REMARK    5  A    between atoms: C_26  and  C_27 
REMARK    6  A    between atoms: C_27  and  O_28 
REMARK    7  A    between atoms: O_28  and  C_29 
ROOT
HETATM    1  C   UNL     1      24.659  47.082  51.001  1.00  0.00     0.070 C 
HETATM    2  C   UNL     1      25.124  45.648  51.079  1.00  0.00     0.037 A 
HETATM    3  N   UNL     1      25.170  44.969  49.867  1.00  0.00    -0.192 N 
HETATM    4  C   UNL     1      25.418  43.650  49.766  1.00  0.00     0.726 A 
HETATM    5  N   UNL     1      25.695  42.930  50.894  1.00  0.00    -0.082 N 
HETATM    6  N   UNL     1      25.833  41.617  50.616  1.00  0.00    -0.128 NA
HETATM    7  C   UNL     1      25.721  41.632  49.281  1.00  0.00     0.226 A 
HETATM    8  N   UNL     1      25.440  42.858  48.729  1.00  0.00    -0.035 NA
HETATM    9  C   UNL     1      25.806  43.517  52.237  1.00  0.00     0.203 A 
HETATM   10  C   UNL     1      25.437  44.997  52.228  1.00  0.00     0.070 A 
HETATM   11  H   UNL     1      24.919  45.480  49.025  1.00  0.00     0.184 HD
ENDROOT
BRANCH   7  12
HETATM   12  S   UNL     1      25.922  40.222  48.281  1.00  0.00    -0.083 SA
BRANCH  12  13
HETATM   13  C   UNL     1      27.703  40.261  47.947  1.00  0.00     0.123 C 
BRANCH  13  14
HETATM   14  C   UNL     1      28.468  39.501  49.007  1.00  0.00    -0.027 A 
HETATM   15  C   UNL     1      28.965  38.202  48.802  1.00  0.00     0.041 A 
HETATM   16 CL   UNL     1      28.774  37.370  47.300  1.00  0.00    -0.084 Cl
HETATM   17  C   UNL     1      29.636  37.528  49.828  1.00  0.00     0.024 A 
HETATM   18  C   UNL     1      29.812  38.133  51.071  1.00  0.00     0.002 A 
HETATM   19  C   UNL     1      29.319  39.415  51.294  1.00  0.00     0.001 A 
HETATM   20  C   UNL     1      28.652  40.093  50.271  1.00  0.00     0.009 A 
ENDBRANCH  13  14
ENDBRANCH  12  13
ENDBRANCH   7  12
BRANCH   9  21
HETATM   21  C   UNL     1      27.206  43.255  52.793  1.00  0.00    -0.028 A 
HETATM   22  C   UNL     1      27.398  42.694  54.071  1.00  0.00     0.012 A 
HETATM   23  C   UNL     1      28.688  42.485  54.564  1.00  0.00     0.043 A 
HETATM   24  C   UNL     1      29.786  42.833  53.788  1.00  0.00     0.116 A 
HETATM   25  F   UNL     1      31.022  42.634  54.265  1.00  0.00    -0.206 F 
HETATM   26  C   UNL     1      29.622  43.385  52.524  1.00  0.00     0.043 A 
HETATM   27  C   UNL     1      28.335  43.595  52.025  1.00  0.00     0.012 A 
ENDBRANCH   9  21
BRANCH  10  28
HETATM   28  C   UNL     1      25.413  45.615  53.569  1.00  0.00     0.294 C 
HETATM   29  O   UNL     1      24.644  45.260  54.448  1.00  0.00    -0.259 OA
BRANCH  28  30
HETATM   30  O   UNL     1      26.394  46.541  53.676  1.00  0.00    -0.313 OA
BRANCH  30  31
HETATM   31  C   UNL     1      26.958  46.764  54.982  1.00  0.00     0.124 C 
HETATM   32  C   UNL     1      28.405  46.294  54.957  1.00  0.00     0.040 C 
HETATM   33  C   UNL     1      26.868  48.258  55.264  1.00  0.00     0.040 C 
ENDBRANCH  30  31
ENDBRANCH  28  30
ENDBRANCH  10  28
TORSDOF 7
ENDMDL
MODEL 3
REMARK VINA RESULT:      -8.0     12.001     13.901
REMARK  7 active torsions:
REMARK  status: ('A' for Active; 'I' for Inactive)
REMARK    1  A    between atoms: C_7  and  S_8 
REMARK    2  A    between atoms: S_8  and  C_9 
REMARK    3  A    between atoms: C_9  and  C_10 
REMARK    4  A    between atoms: C_18  and  C_19 
REMARK    5  A    between atoms: C_26  and  C_27 
REMARK    6  A    between atoms: C_27  and  O_28 
REMARK    7  A    between atoms: O_28  and  C_29 
ROOT
HETATM    1  C   UNL     1      28.679  53.266  37.986  1.00  0.00     0.070 C 
HETATM    2  C   UNL     1      28.491  52.091  38.913  1.00  0.00     0.037 A 
HETATM    3  N   UNL     1      27.441  51.238  38.593  1.00  0.00    -0.192 N 
HETATM    4  C   UNL     1      27.039  50.229  39.387  1.00  0.00     0.726 A 
HETATM    5  N   UNL     1      27.715  49.975  40.546  1.00  0.00    -0.082 N 
HETATM    6  N   UNL     1      27.125  48.988  41.252  1.00  0.00    -0.128 NA
HETATM    7  C   UNL     1      26.149  48.628  40.408  1.00  0.00     0.226 A 
HETATM    8  N   UNL     1      26.051  49.384  39.266  1.00  0.00    -0.035 NA
HETATM    9  C   UNL     1      28.920  50.702  40.971  1.00  0.00     0.203 A 
HETATM   10  C   UNL     1      29.230  51.859  40.028  1.00  0.00     0.070 A 
HETATM   11  H   UNL     1      26.899  51.444  37.759  1.00  0.00     0.184 HD
ENDROOT
BRANCH   7  12
HETATM   12  S   UNL     1      25.069  47.294  40.696  1.00  0.00    -0.083 SA
BRANCH  12  13
HETATM   13  C   UNL     1      25.235  46.349  39.158  1.00  0.00     0.123 C 
BRANCH  13  14
HETATM   14  C   UNL     1      26.689  46.060  38.856  1.00  0.00    -0.027 A 
HETATM   15  C   UNL     1      27.280  46.351  37.615  1.00  0.00     0.041 A 
HETATM   16 CL   UNL     1      26.401  47.102  36.329  1.00  0.00    -0.084 Cl
HETATM   17  C   UNL     1      28.621  46.033  37.374  1.00  0.00     0.024 A 
HETATM   18  C   UNL     1      29.386  45.412  38.360  1.00  0.00     0.002 A 
HETATM   19  C   UNL     1      28.813  45.108  39.592  1.00  0.00     0.001 A 
HETATM   20  C   UNL     1      27.476  45.430  39.838  1.00  0.00     0.009 A 
ENDBRANCH  13  14
ENDBRANCH  12  13
ENDBRANCH   7  12
BRANCH   9  21
HETATM   21  C   UNL     1      30.083  49.720  41.115  1.00  0.00    -0.028 A 
HETATM   22  C   UNL     1      30.411  48.810  40.093  1.00  0.00     0.012 A 
HETATM   23  C   UNL     1      31.465  47.909  40.259  1.00  0.00     0.043 A 
HETATM   24  C   UNL     1      32.192  47.913  41.442  1.00  0.00     0.116 A 
HETATM   25  F   UNL     1      33.201  47.045  41.600  1.00  0.00    -0.206 F 
HETATM   26  C   UNL     1      31.890  48.803  42.464  1.00  0.00     0.043 A 
HETATM   27  C   UNL     1      30.839  49.706  42.303  1.00  0.00     0.012 A 
ENDBRANCH   9  21
BRANCH  10  28
HETATM   28  C   UNL     1      30.361  52.702  40.468  1.00  0.00     0.294 C 
HETATM   29  O   UNL     1      30.446  53.158  41.598  1.00  0.00    -0.259 OA
BRANCH  28  30
HETATM   30  O   UNL     1      31.278  52.811  39.480  1.00  0.00    -0.313 OA
BRANCH  30  31
HETATM   31  C   UNL     1      32.308  51.807  39.417  1.00  0.00     0.124 C 
HETATM   32  C   UNL     1      32.263  51.170  38.035  1.00  0.00     0.040 C 
HETATM   33  C   UNL     1      33.639  52.509  39.655  1.00  0.00     0.040 C 
ENDBRANCH  30  31
ENDBRANCH  28  30
ENDBRANCH  10  28
TORSDOF 7
ENDMDL
MODEL 4
REMARK VINA RESULT:      -7.8      4.236      6.557
REMARK  7 active torsions:
REMARK  status: ('A' for Active; 'I' for Inactive)
REMARK    1  A    between atoms: C_7  and  S_8 
REMARK    2  A    between atoms: S_8  and  C_9 
REMARK    3  A    between atoms: C_9  and  C_10 
REMARK    4  A    between atoms: C_18  and  C_19 
REMARK    5  A    between atoms: C_26  and  C_27 
REMARK    6  A    between atoms: C_27  and  O_28 
REMARK    7  A    between atoms: O_28  and  C_29 
ROOT
HETATM    1  C   UNL     1      24.051  44.749  50.785  1.00  0.00     0.070 C 
HETATM    2  C   UNL     1      23.319  45.452  49.668  1.00  0.00     0.037 A 
HETATM    3  N   UNL     1      22.336  44.702  49.032  1.00  0.00    -0.192 N 
HETATM    4  C   UNL     1      21.689  45.114  47.927  1.00  0.00     0.726 A 
HETATM    5  N   UNL     1      21.955  46.353  47.415  1.00  0.00    -0.082 N 
HETATM    6  N   UNL     1      21.281  46.563  46.265  1.00  0.00    -0.128 NA
HETATM    7  C   UNL     1      20.552  45.441  46.195  1.00  0.00     0.226 A 
HETATM    8  N   UNL     1      20.796  44.520  47.184  1.00  0.00    -0.035 NA
HETATM    9  C   UNL     1      22.874  47.318  48.034  1.00  0.00     0.203 A 
HETATM   10  C   UNL     1      23.592  46.709  49.234  1.00  0.00     0.070 A 
HETATM   11  H   UNL     1      22.162  43.760  49.373  1.00  0.00     0.184 HD
ENDROOT
BRANCH   7  12
HETATM   12  S   UNL     1      19.361  45.141  44.962  1.00  0.00    -0.083 SA
BRANCH  12  13
HETATM   13  C   UNL     1      17.843  45.713  45.771  1.00  0.00     0.123 C 
BRANCH  13  14
HETATM   14  C   UNL     1      17.921  47.191  46.081  1.00  0.00    -0.027 A 
HETATM   15  C   UNL     1      17.529  47.730  47.318  1.00  0.00     0.041 A 
HETATM   16 CL   UNL     1      16.953  46.741  48.613  1.00  0.00    -0.084 Cl
HETATM   17  C   UNL     1      17.587  49.110  47.543  1.00  0.00     0.024 A 
HETATM   18  C   UNL     1      18.027  49.969  46.538  1.00  0.00     0.002 A 
HETATM   19  C   UNL     1      18.410  49.453  45.304  1.00  0.00     0.001 A 
HETATM   20  C   UNL     1      18.358  48.076  45.077  1.00  0.00     0.009 A 
ENDBRANCH  13  14
ENDBRANCH  12  13
ENDBRANCH   7  12
BRANCH   9  21
HETATM   21  C   UNL     1      22.112  48.597  48.381  1.00  0.00    -0.028 A 
HETATM   22  C   UNL     1      22.487  49.846  47.851  1.00  0.00     0.012 A 
HETATM   23  C   UNL     1      21.788  51.003  48.201  1.00  0.00     0.043 A 
HETATM   24  C   UNL     1      20.715  50.918  49.079  1.00  0.00     0.116 A 
HETATM   25  F   UNL     1      20.048  52.030  49.415  1.00  0.00    -0.206 F 
HETATM   26  C   UNL     1      20.323  49.697  49.614  1.00  0.00     0.043 A 
HETATM   27  C   UNL     1      21.018  48.538  49.266  1.00  0.00     0.012 A 
ENDBRANCH   9  21
BRANCH  10  28
HETATM   28  C   UNL     1      24.619  47.590  49.827  1.00  0.00     0.294 C 
HETATM   29  O   UNL     1      24.607  47.923  51.001  1.00  0.00    -0.259 OA
BRANCH  28  30
HETATM   30  O   UNL     1      25.569  47.886  48.910  1.00  0.00    -0.313 OA
BRANCH  30  31
HETATM   31  C   UNL     1      26.299  49.115  49.083  1.00  0.00     0.124 C 
HETATM   32  C   UNL     1      27.782  48.778  49.150  1.00  0.00     0.040 C 
HETATM   33  C   UNL     1      25.989  49.998  47.881  1.00  0.00     0.040 C 
ENDBRANCH  30  31
ENDBRANCH  28  30
ENDBRANCH  10  28
TORSDOF 7
ENDMDL
MODEL 5
REMARK VINA RESULT:      -7.7      4.523      8.958
REMARK  7 active torsions:
REMARK  status: ('A' for Active; 'I' for Inactive)
REMARK    1  A    between atoms: C_7  and  S_8 
REMARK    2  A    between atoms: S_8  and  C_9 
REMARK    3  A    between atoms: C_9  and  C_10 
REMARK    4  A    between atoms: C_18  and  C_19 
REMARK    5  A    between atoms: C_26  and  C_27 
REMARK    6  A    between atoms: C_27  and  O_28 
REMARK    7  A    between atoms: O_28  and  C_29 
ROOT
HETATM    1  C   UNL     1      18.885  51.804  49.842  1.00  0.00     0.070 C 
HETATM    2  C   UNL     1      19.819  50.776  49.253  1.00  0.00     0.037 A 
HETATM    3  N   UNL     1      20.991  50.555  49.966  1.00  0.00    -0.192 N 
HETATM    4  C   UNL     1      21.999  49.786  49.514  1.00  0.00     0.726 A 
HETATM    5  N   UNL     1      21.864  49.135  48.320  1.00  0.00    -0.082 N 
HETATM    6  N   UNL     1      22.998  48.483  47.987  1.00  0.00    -0.128 NA
HETATM    7  C   UNL     1      23.744  48.707  49.077  1.00  0.00     0.226 A 
HETATM    8  N   UNL     1      23.172  49.524  50.022  1.00  0.00    -0.035 NA
HETATM    9  C   UNL     1      20.644  49.163  47.502  1.00  0.00     0.203 A 
HETATM   10  C   UNL     1      19.608  50.119  48.084  1.00  0.00     0.070 A 
HETATM   11  H   UNL     1      21.126  51.070  50.832  1.00  0.00     0.184 HD
ENDROOT
BRANCH   7  12
HETATM   12  S   UNL     1      25.325  48.021  49.322  1.00  0.00    -0.083 SA
BRANCH  12  13
HETATM   13  C   UNL     1      24.915  46.327  49.821  1.00  0.00     0.123 C 
BRANCH  13  14
HETATM   14  C   UNL     1      25.227  46.104  51.284  1.00  0.00    -0.027 A 
HETATM   15  C   UNL     1      25.033  44.868  51.923  1.00  0.00     0.041 A 
HETATM   16 CL   UNL     1      24.453  43.476  51.079  1.00  0.00    -0.084 Cl
HETATM   17  C   UNL     1      25.304  44.723  53.288  1.00  0.00     0.024 A 
HETATM   18  C   UNL     1      25.761  45.809  54.034  1.00  0.00     0.002 A 
HETATM   19  C   UNL     1      25.948  47.042  53.419  1.00  0.00     0.001 A 
HETATM   20  C   UNL     1      25.684  47.190  52.055  1.00  0.00     0.009 A 
ENDBRANCH  13  14
ENDBRANCH  12  13
ENDBRANCH   7  12
BRANCH   9  21
HETATM   21  C   UNL     1      20.113  47.740  47.329  1.00  0.00    -0.028 A 
HETATM   22  C   UNL     1      19.792  47.222  46.060  1.00  0.00     0.012 A 
HETATM   23  C   UNL     1      19.288  45.926  45.932  1.00  0.00     0.043 A 
HETATM   24  C   UNL     1      19.103  45.145  47.066  1.00  0.00     0.116 A 
HETATM   25  F   UNL     1      18.616  43.904  46.940  1.00  0.00    -0.206 F 
HETATM   26  C   UNL     1      19.414  45.633  48.328  1.00  0.00     0.043 A 
HETATM   27  C   UNL     1      19.920  46.927  48.461  1.00  0.00     0.012 A 
ENDBRANCH   9  21
BRANCH  10  28
HETATM   28  C   UNL     1      18.406  50.283  47.241  1.00  0.00     0.294 C 
HETATM   29  O   UNL     1      18.449  50.733  46.107  1.00  0.00    -0.259 OA
BRANCH  28  30
HETATM   30  O   UNL     1      17.316  49.800  47.880  1.00  0.00    -0.313 OA
BRANCH  30  31
HETATM   31  C   UNL     1      16.530  48.808  47.193  1.00  0.00     0.124 C 
HETATM   32  C   UNL     1      16.319  47.635  48.140  1.00  0.00     0.040 C 
HETATM   33  C   UNL     1      15.204  49.460  46.821  1.00  0.00     0.040 C 
ENDBRANCH  30  31
ENDBRANCH  28  30
ENDBRANCH  10  28
TORSDOF 7
ENDMDL
MODEL 6
REMARK VINA RESULT:      -7.6      2.842      4.070
REMARK  7 active torsions:
REMARK  status: ('A' for Active; 'I' for Inactive)
REMARK    1  A    between atoms: C_7  and  S_8 
REMARK    2  A    between atoms: S_8  and  C_9 
REMARK    3  A    between atoms: C_9  and  C_10 
REMARK    4  A    between atoms: C_18  and  C_19 
REMARK    5  A    between atoms: C_26  and  C_27 
REMARK    6  A    between atoms: C_27  and  O_28 
REMARK    7  A    between atoms: O_28  and  C_29 
ROOT
HETATM    1  C   UNL     1      27.687  48.849  49.178  1.00  0.00     0.070 C 
HETATM    2  C   UNL     1      26.191  48.655  49.205  1.00  0.00     0.037 A 
HETATM    3  N   UNL     1      25.447  49.667  48.610  1.00  0.00    -0.192 N 
HETATM    4  C   UNL     1      24.104  49.732  48.671  1.00  0.00     0.726 A 
HETATM    5  N   UNL     1      23.411  48.736  49.299  1.00  0.00    -0.082 N 
HETATM    6  N   UNL     1      22.089  49.008  49.338  1.00  0.00    -0.128 NA
HETATM    7  C   UNL     1      22.048  50.143  48.627  1.00  0.00     0.226 A 
HETATM    8  N   UNL     1      23.268  50.629  48.225  1.00  0.00    -0.035 NA
HETATM    9  C   UNL     1      24.035  47.536  49.873  1.00  0.00     0.203 A 
HETATM   10  C   UNL     1      25.556  47.614  49.802  1.00  0.00     0.070 A 
HETATM   11  H   UNL     1      25.950  50.439  48.181  1.00  0.00     0.184 HD
ENDROOT
BRANCH   7  12
HETATM   12  S   UNL     1      20.572  50.967  48.211  1.00  0.00    -0.083 SA
BRANCH  12  13
HETATM   13  C   UNL     1      19.547  50.639  49.671  1.00  0.00     0.123 C 
BRANCH  13  14
HETATM   14  C   UNL     1      18.140  51.158  49.470  1.00  0.00    -0.027 A 
HETATM   15  C   UNL     1      17.149  50.425  48.794  1.00  0.00     0.041 A 
HETATM   16 CL   UNL     1      17.443  48.844  48.162  1.00  0.00    -0.084 Cl
HETATM   17  C   UNL     1      15.872  50.964  48.604  1.00  0.00     0.024 A 
HETATM   18  C   UNL     1      15.570  52.241  49.074  1.00  0.00     0.002 A 
HETATM   19  C   UNL     1      16.543  52.984  49.737  1.00  0.00     0.001 A 
HETATM   20  C   UNL     1      17.817  52.447  49.933  1.00  0.00     0.009 A 
ENDBRANCH  13  14
ENDBRANCH  12  13
ENDBRANCH   7  12
BRANCH   9  21
HETATM   21  C   UNL     1      23.468  46.291  49.190  1.00  0.00    -0.028 A 
HETATM   22  C   UNL     1      22.937  46.342  47.887  1.00  0.00     0.012 A 
HETATM   23  C   UNL     1      22.406  45.194  47.295  1.00  0.00     0.043 A 
HETATM   24  C   UNL     1      22.402  43.997  47.998  1.00  0.00     0.116 A 
HETATM   25  F   UNL     1      21.889  42.898  47.428  1.00  0.00    -0.206 F 
HETATM   26  C   UNL     1      22.923  43.920  49.283  1.00  0.00     0.043 A 
HETATM   27  C   UNL     1      23.456  45.064  49.879  1.00  0.00     0.012 A 
ENDBRANCH   9  21
BRANCH  10  28
HETATM   28  C   UNL     1      26.244  46.491  50.471  1.00  0.00     0.294 C 
HETATM   29  O   UNL     1      26.925  45.678  49.867  1.00  0.00    -0.259 OA
BRANCH  28  30
HETATM   30  O   UNL     1      26.064  46.563  51.810  1.00  0.00    -0.313 OA
BRANCH  30  31
HETATM   31  C   UNL     1      26.477  45.429  52.597  1.00  0.00     0.124 C 
HETATM   32  C   UNL     1      27.066  45.949  53.900  1.00  0.00     0.040 C 
HETATM   33  C   UNL     1      25.237  44.581  52.852  1.00  0.00     0.040 C 
ENDBRANCH  30  31
ENDBRANCH  28  30
ENDBRANCH  10  28
TORSDOF 7
ENDMDL
MODEL 7
REMARK VINA RESULT:      -7.5     12.966     14.515
REMARK  7 active torsions:
REMARK  status: ('A' for Active; 'I' for Inactive)
REMARK    1  A    between atoms: C_7  and  S_8 
REMARK    2  A    between atoms: S_8  and  C_9 
REMARK    3  A    between atoms: C_9  and  C_10 
REMARK    4  A    between atoms: C_18  and  C_19 
REMARK    5  A    between atoms: C_26  and  C_27 
REMARK    6  A    between atoms: C_27  and  O_28 
REMARK    7  A    between atoms: O_28  and  C_29 
ROOT
HETATM    1  C   UNL     1      34.986  49.985  41.706  1.00  0.00     0.070 C 
HETATM    2  C   UNL     1      33.660  49.728  41.033  1.00  0.00     0.037 A 
HETATM    3  N   UNL     1      33.181  48.427  41.133  1.00  0.00    -0.192 N 
HETATM    4  C   UNL     1      32.094  47.985  40.474  1.00  0.00     0.726 A 
HETATM    5  N   UNL     1      31.377  48.855  39.701  1.00  0.00    -0.082 N 
HETATM    6  N   UNL     1      30.377  48.223  39.051  1.00  0.00    -0.128 NA
HETATM    7  C   UNL     1      30.494  46.988  39.556  1.00  0.00     0.226 A 
HETATM    8  N   UNL     1      31.552  46.800  40.412  1.00  0.00    -0.035 NA
HETATM    9  C   UNL     1      31.676  50.289  39.584  1.00  0.00     0.203 A 
HETATM   10  C   UNL     1      32.964  50.649  40.319  1.00  0.00     0.070 A 
HETATM   11  H   UNL     1      33.730  47.758  41.665  1.00  0.00     0.184 HD
ENDROOT
BRANCH   7  12
HETATM   12  S   UNL     1      29.395  45.688  39.189  1.00  0.00    -0.083 SA
BRANCH  12  13
HETATM   13  C   UNL     1      27.869  46.266  39.978  1.00  0.00     0.123 C 
BRANCH  13  14
HETATM   14  C   UNL     1      27.269  47.424  39.212  1.00  0.00    -0.027 A 
HETATM   15  C   UNL     1      27.010  48.673  39.803  1.00  0.00     0.041 A 
HETATM   16 CL   UNL     1      27.388  49.007  41.456  1.00  0.00    -0.084 Cl
HETATM   17  C   UNL     1      26.421  49.702  39.060  1.00  0.00     0.024 A 
HETATM   18  C   UNL     1      26.075  49.498  37.725  1.00  0.00     0.002 A 
HETATM   19  C   UNL     1      26.317  48.264  37.128  1.00  0.00     0.001 A 
HETATM   20  C   UNL     1      26.909  47.236  37.865  1.00  0.00     0.009 A 
ENDBRANCH  13  14
ENDBRANCH  12  13
ENDBRANCH   7  12
BRANCH   9  21
HETATM   21  C   UNL     1      30.471  51.101  40.059  1.00  0.00    -0.028 A 
HETATM   22  C   UNL     1      29.646  51.795  39.153  1.00  0.00     0.012 A 
HETATM   23  C   UNL     1      28.564  52.547  39.614  1.00  0.00     0.043 A 
HETATM   24  C   UNL     1      28.302  52.610  40.977  1.00  0.00     0.116 A 
HETATM   25  F   UNL     1      27.265  53.335  41.417  1.00  0.00    -0.206 F 
HETATM   26  C   UNL     1      29.099  51.932  41.890  1.00  0.00     0.043 A 
HETATM   27  C   UNL     1      30.181  51.178  41.434  1.00  0.00     0.012 A 
ENDBRANCH   9  21
BRANCH  10  28
HETATM   28  C   UNL     1      33.382  52.054  40.138  1.00  0.00     0.294 C 
HETATM   29  O   UNL     1      32.991  52.959  40.858  1.00  0.00    -0.259 OA
BRANCH  28  30
HETATM   30  O   UNL     1      34.288  52.148  39.138  1.00  0.00    -0.313 OA
BRANCH  30  31
HETATM   31  C   UNL     1      35.590  52.667  39.469  1.00  0.00     0.124 C 
HETATM   32  C   UNL     1      36.634  51.792  38.789  1.00  0.00     0.040 C 
HETATM   33  C   UNL     1      35.651  54.099  38.951  1.00  0.00     0.040 C 
ENDBRANCH  30  31
ENDBRANCH  28  30
ENDBRANCH  10  28
TORSDOF 7
ENDMDL
MODEL 8
REMARK VINA RESULT:      -7.5      6.348      9.159
REMARK  7 active torsions:
REMARK  status: ('A' for Active; 'I' for Inactive)
REMARK    1  A    between atoms: C_7  and  S_8 
REMARK    2  A    between atoms: S_8  and  C_9 
REMARK    3  A    between atoms: C_9  and  C_10 
REMARK    4  A    between atoms: C_18  and  C_19 
REMARK    5  A    between atoms: C_26  and  C_27 
REMARK    6  A    between atoms: C_27  and  O_28 
REMARK    7  A    between atoms: O_28  and  C_29 
ROOT
HETATM    1  C   UNL     1      24.578  38.823  45.692  1.00  0.00     0.070 C 
HETATM    2  C   UNL     1      25.420  39.341  46.833  1.00  0.00     0.037 A 
HETATM    3  N   UNL     1      24.759  40.162  47.738  1.00  0.00    -0.192 N 
HETATM    4  C   UNL     1      25.384  40.827  48.727  1.00  0.00     0.726 A 
HETATM    5  N   UNL     1      26.728  40.660  48.904  1.00  0.00    -0.082 N 
HETATM    6  N   UNL     1      27.197  41.464  49.882  1.00  0.00    -0.128 NA
HETATM    7  C   UNL     1      26.058  42.019  50.316  1.00  0.00     0.226 A 
HETATM    8  N   UNL     1      24.930  41.671  49.614  1.00  0.00    -0.035 NA
HETATM    9  C   UNL     1      27.553  39.736  48.114  1.00  0.00     0.203 A 
HETATM   10  C   UNL     1      26.746  39.099  46.987  1.00  0.00     0.070 A 
HETATM   11  H   UNL     1      23.768  40.334  47.589  1.00  0.00     0.184 HD
ENDROOT
BRANCH   7  12
HETATM   12  S   UNL     1      25.969  43.101  51.677  1.00  0.00    -0.083 SA
BRANCH  12  13
HETATM   13  C   UNL     1      27.503  44.049  51.491  1.00  0.00     0.123 C 
BRANCH  13  14
HETATM   14  C   UNL     1      28.426  43.821  52.667  1.00  0.00    -0.027 A 
HETATM   15  C   UNL     1      28.298  44.519  53.880  1.00  0.00     0.041 A 
HETATM   16 CL   UNL     1      27.046  45.680  54.147  1.00  0.00    -0.084 Cl
HETATM   17  C   UNL     1      29.199  44.296  54.927  1.00  0.00     0.024 A 
HETATM   18  C   UNL     1      30.243  43.385  54.775  1.00  0.00     0.002 A 
HETATM   19  C   UNL     1      30.390  42.693  53.577  1.00  0.00     0.001 A 
HETATM   20  C   UNL     1      29.489  42.908  52.532  1.00  0.00     0.009 A 
ENDBRANCH  13  14
ENDBRANCH  12  13
ENDBRANCH   7  12
BRANCH   9  21
HETATM   21  C   UNL     1      28.198  38.707  49.043  1.00  0.00    -0.028 A 
HETATM   22  C   UNL     1      27.472  37.611  49.547  1.00  0.00     0.012 A 
HETATM   23  C   UNL     1      28.079  36.698  50.411  1.00  0.00     0.043 A 
HETATM   24  C   UNL     1      29.408  36.874  50.774  1.00  0.00     0.116 A 
HETATM   25  F   UNL     1      29.986  35.997  51.606  1.00  0.00    -0.206 F 
HETATM   26  C   UNL     1      30.146  37.945  50.288  1.00  0.00     0.043 A 
HETATM   27  C   UNL     1      29.544  38.860  49.423  1.00  0.00     0.012 A 
ENDBRANCH   9  21
BRANCH  10  28
HETATM   28  C   UNL     1      27.550  38.251  46.083  1.00  0.00     0.294 C 
HETATM   29  O   UNL     1      27.426  37.037  46.030  1.00  0.00    -0.259 OA
BRANCH  28  30
HETATM   30  O   UNL     1      28.349  39.019  45.307  1.00  0.00    -0.313 OA
BRANCH  30  31
HETATM   31  C   UNL     1      28.149  38.957  43.882  1.00  0.00     0.124 C 
HETATM   32  C   UNL     1      27.622  40.309  43.421  1.00  0.00     0.040 C 
HETATM   33  C   UNL     1      29.500  38.647  43.249  1.00  0.00     0.040 C 
ENDBRANCH  30  31
ENDBRANCH  28  30
ENDBRANCH  10  28
TORSDOF 7
ENDMDL
MODEL 9
REMARK VINA RESULT:      -7.4      4.544      9.365
REMARK  7 active torsions:
REMARK  status: ('A' for Active; 'I' for Inactive)
REMARK    1  A    between atoms: C_7  and  S_8 
REMARK    2  A    between atoms: S_8  and  C_9 
REMARK    3  A    between atoms: C_9  and  C_10 
REMARK    4  A    between atoms: C_18  and  C_19 
REMARK    5  A    between atoms: C_26  and  C_27 
REMARK    6  A    between atoms: C_27  and  O_28 
REMARK    7  A    between atoms: O_28  and  C_29 
ROOT
HETATM    1  C   UNL     1      18.654  52.072  49.805  1.00  0.00     0.070 C 
HETATM    2  C   UNL     1      19.600  51.063  49.203  1.00  0.00     0.037 A 
HETATM    3  N   UNL     1      20.809  50.904  49.870  1.00  0.00    -0.192 N 
HETATM    4  C   UNL     1      21.825  50.161  49.395  1.00  0.00     0.726 A 
HETATM    5  N   UNL     1      21.665  49.472  48.226  1.00  0.00    -0.082 N 
HETATM    6  N   UNL     1      22.807  48.853  47.861  1.00  0.00    -0.128 NA
HETATM    7  C   UNL     1      23.589  49.135  48.911  1.00  0.00     0.226 A 
HETATM    8  N   UNL     1      23.028  49.956  49.858  1.00  0.00    -0.035 NA
HETATM    9  C   UNL     1      20.411  49.433  47.460  1.00  0.00     0.203 A 
HETATM   10  C   UNL     1      19.365  50.367  48.062  1.00  0.00     0.070 A 
HETATM   11  H   UNL     1      20.961  51.448  50.715  1.00  0.00     0.184 HD
ENDROOT
BRANCH   7  12
HETATM   12  S   UNL     1      25.204  48.514  49.104  1.00  0.00    -0.083 SA
BRANCH  12  13
HETATM   13  C   UNL     1      24.986  47.350  50.477  1.00  0.00     0.123 C 
BRANCH  13  14
HETATM   14  C   UNL     1      25.375  45.948  50.064  1.00  0.00    -0.027 A 
HETATM   15  C   UNL     1      24.493  45.080  49.400  1.00  0.00     0.041 A 
HETATM   16 CL   UNL     1      22.889  45.552  48.963  1.00  0.00    -0.084 Cl
HETATM   17  C   UNL     1      24.889  43.779  49.069  1.00  0.00     0.024 A 
HETATM   18  C   UNL     1      26.164  43.325  49.405  1.00  0.00     0.002 A 
HETATM   19  C   UNL     1      27.047  44.170  50.071  1.00  0.00     0.001 A 
HETATM   20  C   UNL     1      26.657  45.470  50.398  1.00  0.00     0.009 A 
ENDBRANCH  13  14
ENDBRANCH  12  13
ENDBRANCH   7  12
BRANCH   9  21
HETATM   21  C   UNL     1      19.927  47.987  47.348  1.00  0.00    -0.028 A 
HETATM   22  C   UNL     1      19.641  47.215  48.490  1.00  0.00     0.012 A 
HETATM   23  C   UNL     1      19.221  45.889  48.360  1.00  0.00     0.043 A 
HETATM   24  C   UNL     1      19.086  45.332  47.096  1.00  0.00     0.116 A 
HETATM   25  F   UNL     1      18.687  44.059  46.975  1.00  0.00    -0.206 F 
HETATM   26  C   UNL     1      19.360  46.074  45.954  1.00  0.00     0.043 A 
HETATM   27  C   UNL     1      19.778  47.399  46.078  1.00  0.00     0.012 A 
ENDBRANCH   9  21
BRANCH  10  28
HETATM   28  C   UNL     1      18.123  50.463  47.268  1.00  0.00     0.294 C 
HETATM   29  O   UNL     1      17.112  49.834  47.541  1.00  0.00    -0.259 OA
BRANCH  28  30
HETATM   30  O   UNL     1      18.265  51.379  46.283  1.00  0.00    -0.313 OA
BRANCH  30  31
HETATM   31  C   UNL     1      17.516  51.173  45.071  1.00  0.00     0.124 C 
HETATM   32  C   UNL     1      17.023  52.529  44.585  1.00  0.00     0.040 C 
HETATM   33  C   UNL     1      18.459  50.535  44.059  1.00  0.00     0.040 C 
ENDBRANCH  30  31
ENDBRANCH  28  30
ENDBRANCH  10  28
TORSDOF 7
ENDMDL
MODEL 10
REMARK VINA RESULT:      -7.3     12.004     13.639
REMARK  7 active torsions:
REMARK  status: ('A' for Active; 'I' for Inactive)
REMARK    1  A    between atoms: C_7  and  S_8 
REMARK    2  A    between atoms: S_8  and  C_9 
REMARK    3  A    between atoms: C_9  and  C_10 
REMARK    4  A    between atoms: C_18  and  C_19 
REMARK    5  A    between atoms: C_26  and  C_27 
REMARK    6  A    between atoms: C_27  and  O_28 
REMARK    7  A    between atoms: O_28  and  C_29 
ROOT
HETATM    1  C   UNL     1      34.187  49.130  41.654  1.00  0.00     0.070 C 
HETATM    2  C   UNL     1      32.905  49.054  40.862  1.00  0.00     0.037 A 
HETATM    3  N   UNL     1      32.394  47.775  40.674  1.00  0.00    -0.192 N 
HETATM    4  C   UNL     1      31.347  47.506  39.873  1.00  0.00     0.726 A 
HETATM    5  N   UNL     1      30.701  48.533  39.244  1.00  0.00    -0.082 N 
HETATM    6  N   UNL     1      29.735  48.074  38.420  1.00  0.00    -0.128 NA
HETATM    7  C   UNL     1      29.793  46.761  38.678  1.00  0.00     0.226 A 
HETATM    8  N   UNL     1      30.786  46.374  39.544  1.00  0.00    -0.035 NA
HETATM    9  C   UNL     1      31.036  49.952  39.431  1.00  0.00     0.203 A 
HETATM   10  C   UNL     1      32.277  50.119  40.301  1.00  0.00     0.070 A 
HETATM   11  H   UNL     1      32.893  46.997  41.096  1.00  0.00     0.184 HD
ENDROOT
BRANCH   7  12
HETATM   12  S   UNL     1      28.696  45.595  37.993  1.00  0.00    -0.083 SA
BRANCH  12  13
HETATM   13  C   UNL     1      27.250  46.626  37.626  1.00  0.00     0.123 C 
BRANCH  13  14
HETATM   14  C   UNL     1      26.355  46.752  38.838  1.00  0.00    -0.027 A 
HETATM   15  C   UNL     1      25.940  47.994  39.350  1.00  0.00     0.041 A 
HETATM   16 CL   UNL     1      26.389  49.491  38.614  1.00  0.00    -0.084 Cl
HETATM   17  C   UNL     1      25.140  48.058  40.497  1.00  0.00     0.024 A 
HETATM   18  C   UNL     1      24.753  46.890  41.152  1.00  0.00     0.002 A 
HETATM   19  C   UNL     1      25.163  45.653  40.663  1.00  0.00     0.001 A 
HETATM   20  C   UNL     1      25.957  45.584  39.517  1.00  0.00     0.009 A 
ENDBRANCH  13  14
ENDBRANCH  12  13
ENDBRANCH   7  12
BRANCH   9  21
HETATM   21  C   UNL     1      29.817  50.695  39.980  1.00  0.00    -0.028 A 
HETATM   22  C   UNL     1      29.411  51.936  39.452  1.00  0.00     0.012 A 
HETATM   23  C   UNL     1      28.308  52.604  39.987  1.00  0.00     0.043 A 
HETATM   24  C   UNL     1      27.608  52.039  41.045  1.00  0.00     0.116 A 
HETATM   25  F   UNL     1      26.552  52.684  41.557  1.00  0.00    -0.206 F 
HETATM   26  C   UNL     1      27.987  50.815  41.581  1.00  0.00     0.043 A 
HETATM   27  C   UNL     1      29.089  50.142  41.050  1.00  0.00     0.012 A 
ENDBRANCH   9  21
BRANCH  10  28
HETATM   28  C   UNL     1      32.735  51.518  40.428  1.00  0.00     0.294 C 
HETATM   29  O   UNL     1      32.847  52.266  39.470  1.00  0.00    -0.259 OA
BRANCH  28  30
HETATM   30  O   UNL     1      32.923  51.833  41.729  1.00  0.00    -0.313 OA
BRANCH  30  31
HETATM   31  C   UNL     1      31.781  51.754  42.603  1.00  0.00     0.124 C 
HETATM   32  C   UNL     1      32.288  51.595  44.030  1.00  0.00     0.040 C 
HETATM   33  C   UNL     1      30.995  53.048  42.439  1.00  0.00     0.040 C 
ENDBRANCH  30  31
ENDBRANCH  28  30
ENDBRANCH  10  28
TORSDOF 7
ENDMDL
