MODEL 1
REMARK VINA RESULT:     -10.7      0.000      0.000
REMARK  6 active torsions:
REMARK  status: ('A' for Active; 'I' for Inactive)
REMARK    1  A    between atoms: O_2  and  C_3 
REMARK    2  A    between atoms: C_10  and  C_11 
REMARK    3  A    between atoms: C_11  and  C_12 
REMARK    4  A    between atoms: C_12  and  N_13 
REMARK       I    between atoms: N_13  and  C_14 
REMARK    5  A    between atoms: C_14  and  C_15 
REMARK    6  A    between atoms: C_21  and  C_22 
ROOT
HETATM    1  N   UNL     1      25.193  46.133  51.982  1.00  0.00    -0.357 N 
HETATM    2  C   UNL     1      25.903  46.058  50.801  1.00  0.00     0.251 C 
HETATM    3  O   UNL     1      26.445  45.034  50.401  1.00  0.00    -0.268 OA
HETATM    4  H   UNL     1      24.515  46.877  52.083  1.00  0.00     0.162 HD
ENDROOT
BRANCH   2   5
HETATM    5  C   UNL     1      25.982  47.305  49.984  1.00  0.00     0.033 A 
HETATM    6  C   UNL     1      24.749  47.888  49.600  1.00  0.00     0.033 A 
HETATM    7  C   UNL     1      24.929  49.006  48.786  1.00  0.00     0.033 A 
HETATM    8  C   UNL     1      26.196  49.563  48.372  1.00  0.00     0.097 A 
HETATM    9  C   UNL     1      23.959  49.801  48.226  1.00  0.00     0.124 A 
HETATM   10  N   UNL     1      25.971  50.644  47.610  1.00  0.00    -0.127 NA
HETATM   11  C   UNL     1      27.409  48.976  48.767  1.00  0.00     0.036 A 
HETATM   12  O   UNL     1      24.600  50.788  47.525  1.00  0.00    -0.211 OA
HETATM   13  C   UNL     1      27.257  47.826  49.577  1.00  0.00     0.019 A 
BRANCH   9  14
HETATM   14  C   UNL     1      22.502  49.854  48.177  1.00  0.00     0.001 A 
HETATM   15  C   UNL     1      21.800  51.018  48.520  1.00  0.00     0.014 A 
HETATM   16  C   UNL     1      20.402  51.056  48.464  1.00  0.00     0.001 A 
HETATM   17  C   UNL     1      19.687  49.928  48.072  1.00  0.00     0.000 A 
HETATM   18  C   UNL     1      20.367  48.759  47.740  1.00  0.00     0.001 A 
HETATM   19  C   UNL     1      21.763  48.724  47.792  1.00  0.00     0.014 A 
ENDBRANCH   9  14
ENDBRANCH   2   5
BRANCH   1  20
HETATM   20  C   UNL     1      24.974  44.940  52.785  1.00  0.00     0.127 C 
BRANCH  20  21
HETATM   21  C   UNL     1      25.801  44.931  54.073  1.00  0.00     0.060 C 
BRANCH  21  22
HETATM   22  C   UNL     1      27.045  44.104  53.968  1.00  0.00    -0.029 A 
HETATM   23  C   UNL     1      28.280  44.303  54.666  1.00  0.00     0.001 A 
HETATM   24  C   UNL     1      28.736  45.259  55.605  1.00  0.00     0.051 A 
HETATM   25  C   UNL     1      29.149  43.285  54.277  1.00  0.00     0.043 A 
HETATM   26  C   UNL     1      30.035  45.160  56.117  1.00  0.00     0.069 A 
HETATM   27  C   UNL     1      30.867  44.115  55.712  1.00  0.00     0.039 A 
HETATM   28  C   UNL     1      30.446  43.162  54.781  1.00  0.00     0.033 A 
HETATM   29  N   UNL     1      28.481  42.510  53.358  1.00  0.00    -0.365 N 
HETATM   30  H   UNL     1      28.874  41.701  52.896  1.00  0.00     0.165 HD
HETATM   31  C   UNL     1      27.214  42.991  53.166  1.00  0.00     0.096 A 
BRANCH  26  32
HETATM   32  O   UNL     1      30.598  46.013  57.029  1.00  0.00    -0.356 OA
HETATM   33  C   UNL     1      30.464  45.663  58.401  1.00  0.00     0.210 C 
ENDBRANCH  26  32
ENDBRANCH  21  22
ENDBRANCH  20  21
ENDBRANCH   1  20
TORSDOF 6
ENDMDL
MODEL 2
REMARK VINA RESULT:     -10.4      1.253      1.603
REMARK  6 active torsions:
REMARK  status: ('A' for Active; 'I' for Inactive)
REMARK    1  A    between atoms: O_2  and  C_3 
REMARK    2  A    between atoms: C_10  and  C_11 
REMARK    3  A    between atoms: C_11  and  C_12 
REMARK    4  A    between atoms: C_12  and  N_13 
REMARK       I    between atoms: N_13  and  C_14 
REMARK    5  A    between atoms: C_14  and  C_15 
REMARK    6  A    between atoms: C_21  and  C_22 
ROOT
HETATM    1  N   UNL     1      25.554  45.170  51.065  1.00  0.00    -0.357 N 
HETATM    2  C   UNL     1      25.506  46.482  51.489  1.00  0.00     0.251 C 
HETATM    3  O   UNL     1      25.366  46.809  52.663  1.00  0.00    -0.268 OA
HETATM    4  H   UNL     1      25.992  44.974  50.174  1.00  0.00     0.162 HD
ENDROOT
BRANCH   2   5
HETATM    5  C   UNL     1      25.651  47.534  50.440  1.00  0.00     0.033 A 
HETATM    6  C   UNL     1      24.450  48.094  49.938  1.00  0.00     0.033 A 
HETATM    7  C   UNL     1      24.688  49.015  48.918  1.00  0.00     0.033 A 
HETATM    8  C   UNL     1      25.982  49.408  48.410  1.00  0.00     0.097 A 
HETATM    9  C   UNL     1      23.761  49.733  48.204  1.00  0.00     0.124 A 
HETATM   10  N   UNL     1      25.814  50.325  47.446  1.00  0.00    -0.127 NA
HETATM   11  C   UNL     1      27.163  48.847  48.924  1.00  0.00     0.036 A 
HETATM   12  O   UNL     1      24.452  50.524  47.324  1.00  0.00    -0.211 OA
HETATM   13  C   UNL     1      26.951  47.893  49.946  1.00  0.00     0.019 A 
BRANCH   9  14
HETATM   14  C   UNL     1      22.309  49.855  48.133  1.00  0.00     0.001 A 
HETATM   15  C   UNL     1      21.658  51.053  48.457  1.00  0.00     0.014 A 
HETATM   16  C   UNL     1      20.264  51.157  48.380  1.00  0.00     0.001 A 
HETATM   17  C   UNL     1      19.502  50.060  47.989  1.00  0.00     0.000 A 
HETATM   18  C   UNL     1      20.130  48.857  47.678  1.00  0.00     0.001 A 
HETATM   19  C   UNL     1      21.522  48.756  47.749  1.00  0.00     0.014 A 
ENDBRANCH   9  14
ENDBRANCH   2   5
BRANCH   1  20
HETATM   20  C   UNL     1      25.530  44.083  52.031  1.00  0.00     0.127 C 
BRANCH  20  21
HETATM   21  C   UNL     1      26.187  42.806  51.503  1.00  0.00     0.060 C 
BRANCH  21  22
HETATM   22  C   UNL     1      27.534  42.545  52.105  1.00  0.00    -0.029 A 
HETATM   23  C   UNL     1      28.161  43.269  53.171  1.00  0.00     0.001 A 
HETATM   24  C   UNL     1      27.787  44.385  53.956  1.00  0.00     0.051 A 
HETATM   25  C   UNL     1      29.393  42.665  53.417  1.00  0.00     0.043 A 
HETATM   26  C   UNL     1      28.652  44.850  54.953  1.00  0.00     0.069 A 
HETATM   27  C   UNL     1      29.869  44.206  55.177  1.00  0.00     0.039 A 
HETATM   28  C   UNL     1      30.268  43.107  54.412  1.00  0.00     0.033 A 
HETATM   29  N   UNL     1      29.525  41.630  52.521  1.00  0.00    -0.365 N 
HETATM   30  H   UNL     1      30.330  41.020  52.462  1.00  0.00     0.165 HD
HETATM   31  C   UNL     1      28.412  41.546  51.729  1.00  0.00     0.096 A 
BRANCH  26  32
HETATM   32  O   UNL     1      28.411  45.913  55.782  1.00  0.00    -0.356 OA
HETATM   33  C   UNL     1      28.044  47.140  55.162  1.00  0.00     0.210 C 
ENDBRANCH  26  32
ENDBRANCH  21  22
ENDBRANCH  20  21
ENDBRANCH   1  20
TORSDOF 6
ENDMDL
MODEL 3
REMARK VINA RESULT:      -9.7      2.442     10.372
REMARK  6 active torsions:
REMARK  status: ('A' for Active; 'I' for Inactive)
REMARK    1  A    between atoms: O_2  and  C_3 
REMARK    2  A    between atoms: C_10  and  C_11 
REMARK    3  A    between atoms: C_11  and  C_12 
REMARK    4  A    between atoms: C_12  and  N_13 
REMARK       I    between atoms: N_13  and  C_14 
REMARK    5  A    between atoms: C_14  and  C_15 
REMARK    6  A    between atoms: C_21  and  C_22 
ROOT
HETATM    1  N   UNL     1      24.539  46.769  49.925  1.00  0.00    -0.357 N 
HETATM    2  C   UNL     1      25.267  46.587  51.082  1.00  0.00     0.251 C 
HETATM    3  O   UNL     1      25.491  47.483  51.888  1.00  0.00    -0.268 OA
HETATM    4  H   UNL     1      24.119  45.954  49.494  1.00  0.00     0.162 HD
ENDROOT
BRANCH   2   5
HETATM    5  C   UNL     1      25.783  45.211  51.343  1.00  0.00     0.033 A 
HETATM    6  C   UNL     1      26.739  45.081  52.380  1.00  0.00     0.033 A 
HETATM    7  C   UNL     1      27.208  43.773  52.500  1.00  0.00     0.033 A 
HETATM    8  C   UNL     1      26.787  42.641  51.707  1.00  0.00     0.097 A 
HETATM    9  C   UNL     1      28.142  43.294  53.385  1.00  0.00     0.124 A 
HETATM   10  N   UNL     1      27.443  41.547  52.122  1.00  0.00    -0.127 NA
HETATM   11  C   UNL     1      25.832  42.787  50.687  1.00  0.00     0.036 A 
HETATM   12  O   UNL     1      28.270  41.951  53.152  1.00  0.00    -0.211 OA
HETATM   13  C   UNL     1      25.354  44.108  50.528  1.00  0.00     0.019 A 
BRANCH   9  14
HETATM   14  C   UNL     1      28.997  43.821  54.444  1.00  0.00     0.001 A 
HETATM   15  C   UNL     1      28.701  45.029  55.091  1.00  0.00     0.014 A 
HETATM   16  C   UNL     1      29.528  45.520  56.108  1.00  0.00     0.001 A 
HETATM   17  C   UNL     1      30.667  44.815  56.484  1.00  0.00     0.000 A 
HETATM   18  C   UNL     1      30.985  43.620  55.843  1.00  0.00     0.001 A 
HETATM   19  C   UNL     1      30.155  43.128  54.832  1.00  0.00     0.014 A 
ENDBRANCH   9  14
ENDBRANCH   2   5
BRANCH   1  20
HETATM   20  C   UNL     1      23.908  48.050  49.646  1.00  0.00     0.127 C 
BRANCH  20  21
HETATM   21  C   UNL     1      22.999  48.007  48.414  1.00  0.00     0.060 C 
BRANCH  21  22
HETATM   22  C   UNL     1      21.577  47.675  48.745  1.00  0.00    -0.029 A 
HETATM   23  C   UNL     1      20.540  48.587  49.126  1.00  0.00     0.001 A 
HETATM   24  C   UNL     1      20.484  49.988  49.321  1.00  0.00     0.051 A 
HETATM   25  C   UNL     1      19.377  47.842  49.314  1.00  0.00     0.043 A 
HETATM   26  C   UNL     1      19.275  50.587  49.692  1.00  0.00     0.069 A 
HETATM   27  C   UNL     1      18.130  49.805  49.855  1.00  0.00     0.039 A 
HETATM   28  C   UNL     1      18.158  48.419  49.677  1.00  0.00     0.033 A 
HETATM   29  N   UNL     1      19.696  46.524  49.084  1.00  0.00    -0.365 N 
HETATM   30  H   UNL     1      19.045  45.755  49.159  1.00  0.00     0.165 HD
HETATM   31  C   UNL     1      21.015  46.412  48.738  1.00  0.00     0.096 A 
BRANCH  26  32
HETATM   32  O   UNL     1      19.083  51.925  49.909  1.00  0.00    -0.356 OA
HETATM   33  C   UNL     1      17.746  52.403  49.828  1.00  0.00     0.210 C 
ENDBRANCH  26  32
ENDBRANCH  21  22
ENDBRANCH  20  21
ENDBRANCH   1  20
TORSDOF 6
ENDMDL
MODEL 4
REMARK VINA RESULT:      -9.6      2.167     10.574
REMARK  6 active torsions:
REMARK  status: ('A' for Active; 'I' for Inactive)
REMARK    1  A    between atoms: O_2  and  C_3 
REMARK    2  A    between atoms: C_10  and  C_11 
REMARK    3  A    between atoms: C_11  and  C_12 
REMARK    4  A    between atoms: C_12  and  N_13 
REMARK       I    between atoms: N_13  and  C_14 
REMARK    5  A    between atoms: C_14  and  C_15 
REMARK    6  A    between atoms: C_21  and  C_22 
ROOT
HETATM    1  N   UNL     1      25.745  46.800  50.080  1.00  0.00    -0.357 N 
HETATM    2  C   UNL     1      25.708  46.445  51.412  1.00  0.00     0.251 C 
HETATM    3  O   UNL     1      25.279  47.178  52.296  1.00  0.00    -0.268 OA
HETATM    4  H   UNL     1      25.790  46.059  49.391  1.00  0.00     0.162 HD
ENDROOT
BRANCH   2   5
HETATM    5  C   UNL     1      26.212  45.084  51.760  1.00  0.00     0.033 A 
HETATM    6  C   UNL     1      27.159  45.011  52.811  1.00  0.00     0.033 A 
HETATM    7  C   UNL     1      27.617  43.709  53.014  1.00  0.00     0.033 A 
HETATM    8  C   UNL     1      27.195  42.534  52.287  1.00  0.00     0.097 A 
HETATM    9  C   UNL     1      28.540  43.278  53.934  1.00  0.00     0.124 A 
HETATM   10  N   UNL     1      27.840  41.463  52.772  1.00  0.00    -0.127 NA
HETATM   11  C   UNL     1      26.250  42.624  51.250  1.00  0.00     0.036 A 
HETATM   12  O   UNL     1      28.662  41.922  53.783  1.00  0.00    -0.211 OA
HETATM   13  C   UNL     1      25.783  43.937  51.008  1.00  0.00     0.019 A 
BRANCH   9  14
HETATM   14  C   UNL     1      29.390  43.863  54.967  1.00  0.00     0.001 A 
HETATM   15  C   UNL     1      29.129  45.133  55.498  1.00  0.00     0.014 A 
HETATM   16  C   UNL     1      29.950  45.679  56.492  1.00  0.00     0.001 A 
HETATM   17  C   UNL     1      31.049  44.965  56.960  1.00  0.00     0.000 A 
HETATM   18  C   UNL     1      31.333  43.707  56.434  1.00  0.00     0.001 A 
HETATM   19  C   UNL     1      30.509  43.162  55.446  1.00  0.00     0.014 A 
ENDBRANCH   9  14
ENDBRANCH   2   5
BRANCH   1  20
HETATM   20  C   UNL     1      25.175  48.064  49.638  1.00  0.00     0.127 C 
BRANCH  20  21
HETATM   21  C   UNL     1      23.695  47.949  49.267  1.00  0.00     0.060 C 
BRANCH  21  22
HETATM   22  C   UNL     1      23.059  49.272  48.968  1.00  0.00    -0.029 A 
HETATM   23  C   UNL     1      21.664  49.595  49.024  1.00  0.00     0.001 A 
HETATM   24  C   UNL     1      20.496  48.861  49.337  1.00  0.00     0.051 A 
HETATM   25  C   UNL     1      21.535  50.943  48.690  1.00  0.00     0.043 A 
HETATM   26  C   UNL     1      19.250  49.499  49.308  1.00  0.00     0.069 A 
HETATM   27  C   UNL     1      19.167  50.853  48.983  1.00  0.00     0.039 A 
HETATM   28  C   UNL     1      20.303  51.601  48.661  1.00  0.00     0.033 A 
HETATM   29  N   UNL     1      22.796  51.417  48.416  1.00  0.00    -0.365 N 
HETATM   30  H   UNL     1      23.004  52.365  48.134  1.00  0.00     0.165 HD
HETATM   31  C   UNL     1      23.721  50.422  48.583  1.00  0.00     0.096 A 
BRANCH  26  32
HETATM   32  O   UNL     1      18.047  48.908  49.591  1.00  0.00    -0.356 OA
HETATM   33  C   UNL     1      17.762  47.684  48.925  1.00  0.00     0.210 C 
ENDBRANCH  26  32
ENDBRANCH  21  22
ENDBRANCH  20  21
ENDBRANCH   1  20
TORSDOF 6
ENDMDL
MODEL 5
REMARK VINA RESULT:      -9.5      2.194     10.235
REMARK  6 active torsions:
REMARK  status: ('A' for Active; 'I' for Inactive)
REMARK    1  A    between atoms: O_2  and  C_3 
REMARK    2  A    between atoms: C_10  and  C_11 
REMARK    3  A    between atoms: C_11  and  C_12 
REMARK    4  A    between atoms: C_12  and  N_13 
REMARK       I    between atoms: N_13  and  C_14 
REMARK    5  A    between atoms: C_14  and  C_15 
REMARK    6  A    between atoms: C_21  and  C_22 
ROOT
HETATM    1  N   UNL     1      25.256  45.220  50.046  1.00  0.00    -0.357 N 
HETATM    2  C   UNL     1      24.823  44.213  50.884  1.00  0.00     0.251 C 
HETATM    3  O   UNL     1      23.665  44.109  51.274  1.00  0.00    -0.268 OA
HETATM    4  H   UNL     1      26.102  45.063  49.512  1.00  0.00     0.162 HD
ENDROOT
BRANCH   2   5
HETATM    5  C   UNL     1      25.839  43.206  51.307  1.00  0.00     0.033 A 
HETATM    6  C   UNL     1      26.745  43.610  52.319  1.00  0.00     0.033 A 
HETATM    7  C   UNL     1      27.694  42.626  52.596  1.00  0.00     0.033 A 
HETATM    8  C   UNL     1      27.778  41.324  51.974  1.00  0.00     0.097 A 
HETATM    9  C   UNL     1      28.722  42.684  53.503  1.00  0.00     0.124 A 
HETATM   10  N   UNL     1      28.807  40.650  52.508  1.00  0.00    -0.127 NA
HETATM   11  C   UNL     1      26.868  40.938  50.977  1.00  0.00     0.036 A 
HETATM   12  O   UNL     1      29.382  41.485  53.446  1.00  0.00    -0.211 OA
HETATM   13  C   UNL     1      25.905  41.924  50.660  1.00  0.00     0.019 A 
BRANCH   9  14
HETATM   14  C   UNL     1      29.272  43.646  54.453  1.00  0.00     0.001 A 
HETATM   15  C   UNL     1      28.632  44.866  54.714  1.00  0.00     0.014 A 
HETATM   16  C   UNL     1      29.169  45.777  55.630  1.00  0.00     0.001 A 
HETATM   17  C   UNL     1      30.358  45.485  56.291  1.00  0.00     0.000 A 
HETATM   18  C   UNL     1      31.016  44.285  56.035  1.00  0.00     0.001 A 
HETATM   19  C   UNL     1      30.476  43.374  55.123  1.00  0.00     0.014 A 
ENDBRANCH   9  14
ENDBRANCH   2   5
BRANCH   1  20
HETATM   20  C   UNL     1      24.310  46.180  49.498  1.00  0.00     0.127 C 
BRANCH  20  21
HETATM   21  C   UNL     1      24.438  47.566  50.133  1.00  0.00     0.060 C 
BRANCH  21  22
HETATM   22  C   UNL     1      23.969  48.670  49.235  1.00  0.00    -0.029 A 
HETATM   23  C   UNL     1      22.616  48.982  48.879  1.00  0.00     0.001 A 
HETATM   24  C   UNL     1      21.360  48.417  49.200  1.00  0.00     0.051 A 
HETATM   25  C   UNL     1      22.652  50.097  48.043  1.00  0.00     0.043 A 
HETATM   26  C   UNL     1      20.192  48.987  48.679  1.00  0.00     0.069 A 
HETATM   27  C   UNL     1      20.271  50.112  47.858  1.00  0.00     0.039 A 
HETATM   28  C   UNL     1      21.500  50.686  47.518  1.00  0.00     0.033 A 
HETATM   29  N   UNL     1      23.973  50.437  47.874  1.00  0.00    -0.365 N 
HETATM   30  H   UNL     1      24.300  51.206  47.305  1.00  0.00     0.165 HD
HETATM   31  C   UNL     1      24.775  49.588  48.588  1.00  0.00     0.096 A 
BRANCH  26  32
HETATM   32  O   UNL     1      18.918  48.543  48.911  1.00  0.00    -0.356 OA
HETATM   33  C   UNL     1      18.535  48.376  50.271  1.00  0.00     0.210 C 
ENDBRANCH  26  32
ENDBRANCH  21  22
ENDBRANCH  20  21
ENDBRANCH   1  20
TORSDOF 6
ENDMDL
MODEL 6
REMARK VINA RESULT:      -9.5      2.665      4.105
REMARK  6 active torsions:
REMARK  status: ('A' for Active; 'I' for Inactive)
REMARK    1  A    between atoms: O_2  and  C_3 
REMARK    2  A    between atoms: C_10  and  C_11 
REMARK    3  A    between atoms: C_11  and  C_12 
REMARK    4  A    between atoms: C_12  and  N_13 
REMARK       I    between atoms: N_13  and  C_14 
REMARK    5  A    between atoms: C_14  and  C_15 
REMARK    6  A    between atoms: C_21  and  C_22 
ROOT
HETATM    1  N   UNL     1      24.804  46.810  51.046  1.00  0.00    -0.357 N 
HETATM    2  C   UNL     1      24.503  47.672  50.011  1.00  0.00     0.251 C 
HETATM    3  O   UNL     1      25.182  48.653  49.728  1.00  0.00    -0.268 OA
HETATM    4  H   UNL     1      24.416  45.875  51.014  1.00  0.00     0.162 HD
ENDROOT
BRANCH   2   5
HETATM    5  C   UNL     1      23.287  47.356  49.205  1.00  0.00     0.033 A 
HETATM    6  C   UNL     1      22.275  48.347  49.174  1.00  0.00     0.033 A 
HETATM    7  C   UNL     1      21.156  47.931  48.453  1.00  0.00     0.033 A 
HETATM    8  C   UNL     1      21.001  46.663  47.777  1.00  0.00     0.097 A 
HETATM    9  C   UNL     1      19.994  48.628  48.231  1.00  0.00     0.124 A 
HETATM   10  N   UNL     1      19.801  46.629  47.179  1.00  0.00    -0.127 NA
HETATM   11  C   UNL     1      22.017  45.694  47.814  1.00  0.00     0.036 A 
HETATM   12  O   UNL     1      19.188  47.836  47.457  1.00  0.00    -0.211 OA
HETATM   13  C   UNL     1      23.157  46.081  48.556  1.00  0.00     0.019 A 
BRANCH   9  14
HETATM   14  C   UNL     1      19.422  49.919  48.598  1.00  0.00     0.001 A 
HETATM   15  C   UNL     1      19.949  51.121  48.105  1.00  0.00     0.014 A 
HETATM   16  C   UNL     1      19.386  52.351  48.462  1.00  0.00     0.001 A 
HETATM   17  C   UNL     1      18.296  52.398  49.326  1.00  0.00     0.000 A 
HETATM   18  C   UNL     1      17.768  51.215  49.837  1.00  0.00     0.001 A 
HETATM   19  C   UNL     1      18.327  49.986  49.475  1.00  0.00     0.014 A 
ENDBRANCH   9  14
ENDBRANCH   2   5
BRANCH   1  20
HETATM   20  C   UNL     1      26.028  46.981  51.813  1.00  0.00     0.127 C 
BRANCH  20  21
HETATM   21  C   UNL     1      25.793  46.932  53.324  1.00  0.00     0.060 C 
BRANCH  21  22
HETATM   22  C   UNL     1      27.012  46.529  54.096  1.00  0.00    -0.029 A 
HETATM   23  C   UNL     1      27.656  45.249  54.092  1.00  0.00     0.001 A 
HETATM   24  C   UNL     1      27.402  44.021  53.436  1.00  0.00     0.051 A 
HETATM   25  C   UNL     1      28.762  45.336  54.937  1.00  0.00     0.043 A 
HETATM   26  C   UNL     1      28.258  42.934  53.647  1.00  0.00     0.069 A 
HETATM   27  C   UNL     1      29.362  43.069  54.489  1.00  0.00     0.039 A 
HETATM   28  C   UNL     1      29.634  44.267  55.156  1.00  0.00     0.033 A 
HETATM   29  N   UNL     1      28.777  46.609  55.457  1.00  0.00    -0.365 N 
HETATM   30  H   UNL     1      29.466  46.953  56.112  1.00  0.00     0.165 HD
HETATM   31  C   UNL     1      27.732  47.336  54.957  1.00  0.00     0.096 A 
BRANCH  26  32
HETATM   32  O   UNL     1      28.128  41.697  53.075  1.00  0.00    -0.356 OA
HETATM   33  C   UNL     1      27.348  41.618  51.888  1.00  0.00     0.210 C 
ENDBRANCH  26  32
ENDBRANCH  21  22
ENDBRANCH  20  21
ENDBRANCH   1  20
TORSDOF 6
ENDMDL
MODEL 7
REMARK VINA RESULT:      -9.4      2.326      3.276
REMARK  6 active torsions:
REMARK  status: ('A' for Active; 'I' for Inactive)
REMARK    1  A    between atoms: O_2  and  C_3 
REMARK    2  A    between atoms: C_10  and  C_11 
REMARK    3  A    between atoms: C_11  and  C_12 
REMARK    4  A    between atoms: C_12  and  N_13 
REMARK       I    between atoms: N_13  and  C_14 
REMARK    5  A    between atoms: C_14  and  C_15 
REMARK    6  A    between atoms: C_21  and  C_22 
ROOT
HETATM    1  N   UNL     1      24.950  46.010  50.318  1.00  0.00    -0.357 N 
HETATM    2  C   UNL     1      24.314  47.180  49.960  1.00  0.00     0.251 C 
HETATM    3  O   UNL     1      24.644  48.285  50.377  1.00  0.00    -0.268 OA
HETATM    4  H   UNL     1      24.854  45.209  49.706  1.00  0.00     0.162 HD
ENDROOT
BRANCH   2   5
HETATM    5  C   UNL     1      23.175  47.061  49.003  1.00  0.00     0.033 A 
HETATM    6  C   UNL     1      22.217  48.104  49.029  1.00  0.00     0.033 A 
HETATM    7  C   UNL     1      21.161  47.867  48.148  1.00  0.00     0.033 A 
HETATM    8  C   UNL     1      21.020  46.726  47.273  1.00  0.00     0.097 A 
HETATM    9  C   UNL     1      20.060  48.657  47.927  1.00  0.00     0.124 A 
HETATM   10  N   UNL     1      19.889  46.854  46.565  1.00  0.00    -0.127 NA
HETATM   11  C   UNL     1      21.984  45.704  47.257  1.00  0.00     0.036 A 
HETATM   12  O   UNL     1      19.304  48.039  46.966  1.00  0.00    -0.211 OA
HETATM   13  C   UNL     1      23.057  45.907  48.155  1.00  0.00     0.019 A 
BRANCH   9  14
HETATM   14  C   UNL     1      19.511  49.911  48.433  1.00  0.00     0.001 A 
HETATM   15  C   UNL     1      19.959  51.152  47.959  1.00  0.00     0.014 A 
HETATM   16  C   UNL     1      19.419  52.346  48.450  1.00  0.00     0.001 A 
HETATM   17  C   UNL     1      18.430  52.315  49.430  1.00  0.00     0.000 A 
HETATM   18  C   UNL     1      17.982  51.093  49.922  1.00  0.00     0.001 A 
HETATM   19  C   UNL     1      18.518  49.901  49.427  1.00  0.00     0.014 A 
ENDBRANCH   9  14
ENDBRANCH   2   5
BRANCH   1  20
HETATM   20  C   UNL     1      26.136  46.044  51.160  1.00  0.00     0.127 C 
BRANCH  20  21
HETATM   21  C   UNL     1      26.018  45.138  52.388  1.00  0.00     0.060 C 
BRANCH  21  22
HETATM   22  C   UNL     1      27.257  44.337  52.648  1.00  0.00    -0.029 A 
HETATM   23  C   UNL     1      28.175  44.490  53.738  1.00  0.00     0.001 A 
HETATM   24  C   UNL     1      28.249  45.367  54.846  1.00  0.00     0.051 A 
HETATM   25  C   UNL     1      29.164  43.519  53.590  1.00  0.00     0.043 A 
HETATM   26  C   UNL     1      29.301  45.239  55.760  1.00  0.00     0.069 A 
HETATM   27  C   UNL     1      30.262  44.243  55.583  1.00  0.00     0.039 A 
HETATM   28  C   UNL     1      30.219  43.368  54.494  1.00  0.00     0.033 A 
HETATM   29  N   UNL     1      28.877  42.818  52.442  1.00  0.00    -0.365 N 
HETATM   30  H   UNL     1      29.435  42.056  52.081  1.00  0.00     0.165 HD
HETATM   31  C   UNL     1      27.732  43.299  51.869  1.00  0.00     0.096 A 
BRANCH  26  32
HETATM   32  O   UNL     1      29.489  46.017  56.872  1.00  0.00    -0.356 OA
HETATM   33  C   UNL     1      30.452  45.565  57.816  1.00  0.00     0.210 C 
ENDBRANCH  26  32
ENDBRANCH  21  22
ENDBRANCH  20  21
ENDBRANCH   1  20
TORSDOF 6
ENDMDL
MODEL 8
REMARK VINA RESULT:      -9.1      3.549      8.986
REMARK  6 active torsions:
REMARK  status: ('A' for Active; 'I' for Inactive)
REMARK    1  A    between atoms: O_2  and  C_3 
REMARK    2  A    between atoms: C_10  and  C_11 
REMARK    3  A    between atoms: C_11  and  C_12 
REMARK    4  A    between atoms: C_12  and  N_13 
REMARK       I    between atoms: N_13  and  C_14 
REMARK    5  A    between atoms: C_14  and  C_15 
REMARK    6  A    between atoms: C_21  and  C_22 
ROOT
HETATM    1  N   UNL     1      20.801  49.444  49.813  1.00  0.00    -0.357 N 
HETATM    2  C   UNL     1      21.458  49.644  48.617  1.00  0.00     0.251 C 
HETATM    3  O   UNL     1      20.889  49.953  47.576  1.00  0.00    -0.268 OA
HETATM    4  H   UNL     1      21.337  49.523  50.669  1.00  0.00     0.162 HD
ENDROOT
BRANCH   2   5
HETATM    5  C   UNL     1      22.942  49.480  48.629  1.00  0.00     0.033 A 
HETATM    6  C   UNL     1      23.463  48.516  49.526  1.00  0.00     0.033 A 
HETATM    7  C   UNL     1      24.858  48.486  49.511  1.00  0.00     0.033 A 
HETATM    8  C   UNL     1      25.718  49.301  48.683  1.00  0.00     0.097 A 
HETATM    9  C   UNL     1      25.688  47.688  50.257  1.00  0.00     0.124 A 
HETATM   10  N   UNL     1      26.997  48.980  48.933  1.00  0.00    -0.127 NA
HETATM   11  C   UNL     1      25.184  50.248  47.795  1.00  0.00     0.036 A 
HETATM   12  O   UNL     1      26.974  47.990  49.896  1.00  0.00    -0.211 OA
HETATM   13  C   UNL     1      23.771  50.315  47.804  1.00  0.00     0.019 A 
BRANCH   9  14
HETATM   14  C   UNL     1      25.562  46.666  51.291  1.00  0.00     0.001 A 
HETATM   15  C   UNL     1      25.081  45.382  50.996  1.00  0.00     0.014 A 
HETATM   16  C   UNL     1      24.969  44.410  51.997  1.00  0.00     0.001 A 
HETATM   17  C   UNL     1      25.328  44.711  53.308  1.00  0.00     0.000 A 
HETATM   18  C   UNL     1      25.794  45.985  53.622  1.00  0.00     0.001 A 
HETATM   19  C   UNL     1      25.910  46.953  52.621  1.00  0.00     0.014 A 
ENDBRANCH   9  14
ENDBRANCH   2   5
BRANCH   1  20
HETATM   20  C   UNL     1      19.371  49.689  49.917  1.00  0.00     0.127 C 
BRANCH  20  21
HETATM   21  C   UNL     1      18.597  48.473  50.432  1.00  0.00     0.060 C 
BRANCH  21  22
HETATM   22  C   UNL     1      18.081  47.596  49.333  1.00  0.00    -0.029 A 
HETATM   23  C   UNL     1      18.813  46.607  48.597  1.00  0.00     0.001 A 
HETATM   24  C   UNL     1      20.151  46.150  48.626  1.00  0.00     0.051 A 
HETATM   25  C   UNL     1      17.929  46.023  47.691  1.00  0.00     0.043 A 
HETATM   26  C   UNL     1      20.553  45.130  47.756  1.00  0.00     0.069 A 
HETATM   27  C   UNL     1      19.632  44.562  46.875  1.00  0.00     0.039 A 
HETATM   28  C   UNL     1      18.306  44.999  46.819  1.00  0.00     0.033 A 
HETATM   29  N   UNL     1      16.714  46.646  47.848  1.00  0.00    -0.365 N 
HETATM   30  H   UNL     1      15.885  46.432  47.311  1.00  0.00     0.165 HD
HETATM   31  C   UNL     1      16.792  47.592  48.834  1.00  0.00     0.096 A 
BRANCH  26  32
HETATM   32  O   UNL     1      21.812  44.596  47.683  1.00  0.00    -0.356 OA
HETATM   33  C   UNL     1      22.293  43.928  48.843  1.00  0.00     0.210 C 
ENDBRANCH  26  32
ENDBRANCH  21  22
ENDBRANCH  20  21
ENDBRANCH   1  20
TORSDOF 6
ENDMDL
MODEL 9
REMARK VINA RESULT:      -8.8      2.829     10.694
REMARK  6 active torsions:
REMARK  status: ('A' for Active; 'I' for Inactive)
REMARK    1  A    between atoms: O_2  and  C_3 
REMARK    2  A    between atoms: C_10  and  C_11 
REMARK    3  A    between atoms: C_11  and  C_12 
REMARK    4  A    between atoms: C_12  and  N_13 
REMARK       I    between atoms: N_13  and  C_14 
REMARK    5  A    between atoms: C_14  and  C_15 
REMARK    6  A    between atoms: C_21  and  C_22 
ROOT
HETATM    1  N   UNL     1      22.529  48.979  49.562  1.00  0.00    -0.357 N 
HETATM    2  C   UNL     1      23.839  48.548  49.535  1.00  0.00     0.251 C 
HETATM    3  O   UNL     1      24.775  49.252  49.173  1.00  0.00    -0.268 OA
HETATM    4  H   UNL     1      21.879  48.489  50.164  1.00  0.00     0.162 HD
ENDROOT
BRANCH   2   5
HETATM    5  C   UNL     1      24.097  47.150  49.990  1.00  0.00     0.033 A 
HETATM    6  C   UNL     1      24.963  46.998  51.102  1.00  0.00     0.033 A 
HETATM    7  C   UNL     1      25.193  45.656  51.406  1.00  0.00     0.033 A 
HETATM    8  C   UNL     1      24.626  44.518  50.721  1.00  0.00     0.097 A 
HETATM    9  C   UNL     1      25.984  45.147  52.406  1.00  0.00     0.124 A 
HETATM   10  N   UNL     1      25.063  43.392  51.306  1.00  0.00    -0.127 NA
HETATM   11  C   UNL     1      23.765  44.687  49.624  1.00  0.00     0.036 A 
HETATM   12  O   UNL     1      25.893  43.782  52.339  1.00  0.00    -0.211 OA
HETATM   13  C   UNL     1      23.529  46.039  49.279  1.00  0.00     0.019 A 
BRANCH   9  14
HETATM   14  C   UNL     1      26.861  45.657  53.455  1.00  0.00     0.001 A 
HETATM   15  C   UNL     1      27.857  44.856  54.031  1.00  0.00     0.014 A 
HETATM   16  C   UNL     1      28.693  45.359  55.033  1.00  0.00     0.001 A 
HETATM   17  C   UNL     1      28.539  46.668  55.481  1.00  0.00     0.000 A 
HETATM   18  C   UNL     1      27.546  47.475  54.931  1.00  0.00     0.001 A 
HETATM   19  C   UNL     1      26.715  46.972  53.926  1.00  0.00     0.014 A 
ENDBRANCH   9  14
ENDBRANCH   2   5
BRANCH   1  20
HETATM   20  C   UNL     1      22.201  50.359  49.239  1.00  0.00     0.127 C 
BRANCH  20  21
HETATM   21  C   UNL     1      20.885  50.819  49.870  1.00  0.00     0.060 C 
BRANCH  21  22
HETATM   22  C   UNL     1      19.831  51.150  48.858  1.00  0.00    -0.029 A 
HETATM   23  C   UNL     1      19.062  50.229  48.075  1.00  0.00     0.001 A 
HETATM   24  C   UNL     1      19.024  48.819  47.971  1.00  0.00     0.051 A 
HETATM   25  C   UNL     1      18.190  50.979  47.286  1.00  0.00     0.043 A 
HETATM   26  C   UNL     1      18.119  48.214  47.090  1.00  0.00     0.069 A 
HETATM   27  C   UNL     1      17.253  49.002  46.331  1.00  0.00     0.039 A 
HETATM   28  C   UNL     1      17.274  50.397  46.407  1.00  0.00     0.033 A 
HETATM   29  N   UNL     1      18.435  52.305  47.557  1.00  0.00    -0.365 N 
HETATM   30  H   UNL     1      17.953  53.078  47.119  1.00  0.00     0.165 HD
HETATM   31  C   UNL     1      19.417  52.420  48.502  1.00  0.00     0.096 A 
BRANCH  26  32
HETATM   32  O   UNL     1      17.977  46.866  46.896  1.00  0.00    -0.356 OA
HETATM   33  C   UNL     1      17.760  46.071  48.055  1.00  0.00     0.210 C 
ENDBRANCH  26  32
ENDBRANCH  21  22
ENDBRANCH  20  21
ENDBRANCH   1  20
TORSDOF 6
ENDMDL
MODEL 10
REMARK VINA RESULT:      -8.8      3.273      5.116
REMARK  6 active torsions:
REMARK  status: ('A' for Active; 'I' for Inactive)
REMARK    1  A    between atoms: O_2  and  C_3 
REMARK    2  A    between atoms: C_10  and  C_11 
REMARK    3  A    between atoms: C_11  and  C_12 
REMARK    4  A    between atoms: C_12  and  N_13 
REMARK       I    between atoms: N_13  and  C_14 
REMARK    5  A    between atoms: C_14  and  C_15 
REMARK    6  A    between atoms: C_21  and  C_22 
ROOT
HETATM    1  N   UNL     1      27.051  42.317  51.163  1.00  0.00    -0.357 N 
HETATM    2  C   UNL     1      26.662  43.214  50.189  1.00  0.00     0.251 C 
HETATM    3  O   UNL     1      27.283  44.237  49.925  1.00  0.00    -0.268 OA
HETATM    4  H   UNL     1      26.703  41.368  51.102  1.00  0.00     0.162 HD
ENDROOT
BRANCH   2   5
HETATM    5  C   UNL     1      25.423  42.882  49.426  1.00  0.00     0.033 A 
HETATM    6  C   UNL     1      24.493  43.935  49.244  1.00  0.00     0.033 A 
HETATM    7  C   UNL     1      23.343  43.509  48.580  1.00  0.00     0.033 A 
HETATM    8  C   UNL     1      23.085  42.174  48.092  1.00  0.00     0.097 A 
HETATM    9  C   UNL     1      22.239  44.257  48.250  1.00  0.00     0.124 A 
HETATM   10  N   UNL     1      21.885  42.149  47.494  1.00  0.00    -0.127 NA
HETATM   11  C   UNL     1      24.022  41.143  48.276  1.00  0.00     0.036 A 
HETATM   12  O   UNL     1      21.371  43.428  47.590  1.00  0.00    -0.211 OA
HETATM   13  C   UNL     1      25.191  41.541  48.965  1.00  0.00     0.019 A 
BRANCH   9  14
HETATM   14  C   UNL     1      21.772  45.628  48.423  1.00  0.00     0.001 A 
HETATM   15  C   UNL     1      22.667  46.706  48.478  1.00  0.00     0.014 A 
HETATM   16  C   UNL     1      22.204  48.016  48.640  1.00  0.00     0.001 A 
HETATM   17  C   UNL     1      20.840  48.266  48.759  1.00  0.00     0.000 A 
HETATM   18  C   UNL     1      19.937  47.207  48.721  1.00  0.00     0.001 A 
HETATM   19  C   UNL     1      20.400  45.900  48.554  1.00  0.00     0.014 A 
ENDBRANCH   9  14
ENDBRANCH   2   5
BRANCH   1  20
HETATM   20  C   UNL     1      28.303  42.506  51.880  1.00  0.00     0.127 C 
BRANCH  20  21
HETATM   21  C   UNL     1      28.138  42.407  53.398  1.00  0.00     0.060 C 
BRANCH  21  22
HETATM   22  C   UNL     1      28.489  43.677  54.111  1.00  0.00    -0.029 A 
HETATM   23  C   UNL     1      27.830  44.944  53.999  1.00  0.00     0.001 A 
HETATM   24  C   UNL     1      26.730  45.418  53.245  1.00  0.00     0.051 A 
HETATM   25  C   UNL     1      28.479  45.829  54.858  1.00  0.00     0.043 A 
HETATM   26  C   UNL     1      26.321  46.750  53.380  1.00  0.00     0.069 A 
HETATM   27  C   UNL     1      26.990  47.598  54.263  1.00  0.00     0.039 A 
HETATM   28  C   UNL     1      28.084  47.160  55.014  1.00  0.00     0.033 A 
HETATM   29  N   UNL     1      29.509  45.139  55.452  1.00  0.00    -0.365 N 
HETATM   30  H   UNL     1      30.158  45.536  56.118  1.00  0.00     0.165 HD
HETATM   31  C   UNL     1      29.523  43.842  55.013  1.00  0.00     0.096 A 
BRANCH  26  32
HETATM   32  O   UNL     1      25.276  47.332  52.715  1.00  0.00    -0.356 OA
HETATM   33  C   UNL     1      25.122  46.996  51.341  1.00  0.00     0.210 C 
ENDBRANCH  26  32
ENDBRANCH  21  22
ENDBRANCH  20  21
ENDBRANCH   1  20
TORSDOF 6
ENDMDL
