MODEL 1
REMARK VINA RESULT:      -9.5      0.000      0.000
REMARK  5 active torsions:
REMARK  status: ('A' for Active; 'I' for Inactive)
REMARK    1  A    between atoms: C_2  and  C_3 
REMARK    2  A    between atoms: C_8  and  C_9 
REMARK       I    between atoms: C_9  and  N_10 
REMARK    3  A    between atoms: N_10  and  C_11 
REMARK    4  A    between atoms: C_11  and  C_12 
REMARK    5  A    between atoms: C_19  and  C_20 
ROOT
HETATM    1  C   UNL     1      26.295  44.993  53.265  1.00  0.00     0.118 C 
HETATM    2  N   UNL     1      26.467  46.247  52.526  1.00  0.00    -0.366 N 
HETATM    3  C   UNL     1      25.609  46.520  51.521  1.00  0.00     0.123 A 
HETATM    4  N   UNL     1      25.144  45.509  50.736  1.00  0.00    -0.240 N 
HETATM    5  N   UNL     1      24.245  45.892  49.815  1.00  0.00    -0.165 NA
HETATM    6  C   UNL     1      24.205  47.237  49.964  1.00  0.00     0.148 A 
HETATM    7  C   UNL     1      25.062  47.668  51.018  1.00  0.00     0.088 A 
HETATM    8  C   UNL     1      25.568  44.137  50.902  1.00  0.00     0.221 C 
HETATM    9  C   UNL     1      25.804  43.815  52.389  1.00  0.00     0.066 C 
HETATM   10  H   UNL     1      26.756  47.018  53.129  1.00  0.00     0.161 HD
ENDROOT
BRANCH   6  11
HETATM   11  C   UNL     1      23.370  48.098  49.111  1.00  0.00     0.272 C 
HETATM   12  N   UNL     1      22.064  48.195  49.536  1.00  0.00    -0.353 N 
HETATM   13  H   UNL     1      21.795  47.538  50.267  1.00  0.00     0.162 HD
HETATM   14  O   UNL     1      23.801  48.659  48.108  1.00  0.00    -0.266 OA
BRANCH  12  15
HETATM   15  C   UNL     1      21.031  48.770  48.702  1.00  0.00     0.155 C 
BRANCH  15  16
HETATM   16  C   UNL     1      20.070  49.642  49.519  1.00  0.00     0.139 C 
HETATM   17  O   UNL     1      18.824  49.764  48.798  1.00  0.00    -0.384 OA
HETATM   18  C   UNL     1      18.684  51.116  48.339  1.00  0.00     0.168 C 
HETATM   19  C   UNL     1      20.032  51.782  48.513  1.00  0.00     0.029 C 
HETATM   20  C   UNL     1      20.588  51.059  49.713  1.00  0.00     0.035 C 
ENDBRANCH  15  16
ENDBRANCH  12  15
ENDBRANCH   6  11
BRANCH   8  21
HETATM   21  C   UNL     1      26.791  43.870  50.052  1.00  0.00     0.409 C 
HETATM   22  F   UNL     1      26.478  43.316  48.859  1.00  0.00    -0.169 F 
HETATM   23  F   UNL     1      27.540  44.965  49.810  1.00  0.00    -0.169 F 
HETATM   24  F   UNL     1      27.601  42.978  50.684  1.00  0.00    -0.169 F 
ENDBRANCH   8  21
BRANCH   1  25
HETATM   25  C   UNL     1      27.563  44.658  54.030  1.00  0.00    -0.035 A 
HETATM   26  C   UNL     1      28.090  45.587  54.945  1.00  0.00     0.010 A 
HETATM   27  C   UNL     1      29.256  45.302  55.661  1.00  0.00     0.019 A 
HETATM   28  C   UNL     1      29.902  44.082  55.473  1.00  0.00     0.011 A 
HETATM   29  C   UNL     1      29.393  43.146  54.578  1.00  0.00     0.019 A 
HETATM   30 BR   UNL     1      31.482  43.699  56.437  1.00  0.00    -0.051 Br
HETATM   31  C   UNL     1      28.229  43.434  53.860  1.00  0.00     0.010 A 
ENDBRANCH   1  25
TORSDOF 5
ENDMDL
MODEL 2
REMARK VINA RESULT:      -9.1      2.383      3.198
REMARK  5 active torsions:
REMARK  status: ('A' for Active; 'I' for Inactive)
REMARK    1  A    between atoms: C_2  and  C_3 
REMARK    2  A    between atoms: C_8  and  C_9 
REMARK       I    between atoms: C_9  and  N_10 
REMARK    3  A    between atoms: N_10  and  C_11 
REMARK    4  A    between atoms: C_11  and  C_12 
REMARK    5  A    between atoms: C_19  and  C_20 
ROOT
HETATM    1  C   UNL     1      26.986  43.859  51.045  1.00  0.00     0.118 C 
HETATM    2  N   UNL     1      25.588  43.795  51.478  1.00  0.00    -0.366 N 
HETATM    3  C   UNL     1      24.633  44.218  50.623  1.00  0.00     0.123 A 
HETATM    4  N   UNL     1      24.880  45.279  49.807  1.00  0.00    -0.240 N 
HETATM    5  N   UNL     1      23.884  45.565  48.953  1.00  0.00    -0.165 NA
HETATM    6  C   UNL     1      22.912  44.693  49.311  1.00  0.00     0.148 A 
HETATM    7  C   UNL     1      23.344  43.841  50.369  1.00  0.00     0.088 A 
HETATM    8  C   UNL     1      26.123  46.017  49.843  1.00  0.00     0.221 C 
HETATM    9  C   UNL     1      27.306  45.078  50.146  1.00  0.00     0.066 C 
HETATM   10  H   UNL     1      25.391  42.965  52.040  1.00  0.00     0.161 HD
ENDROOT
BRANCH   6  11
HETATM   11  C   UNL     1      21.592  44.676  48.661  1.00  0.00     0.272 C 
HETATM   12  N   UNL     1      20.847  45.809  48.895  1.00  0.00    -0.353 N 
HETATM   13  H   UNL     1      21.214  46.430  49.614  1.00  0.00     0.162 HD
HETATM   14  O   UNL     1      21.195  43.729  47.988  1.00  0.00    -0.266 OA
BRANCH  12  15
HETATM   15  C   UNL     1      19.438  45.877  48.570  1.00  0.00     0.155 C 
BRANCH  15  16
HETATM   16  C   UNL     1      19.001  47.315  48.264  1.00  0.00     0.139 C 
HETATM   17  O   UNL     1      20.119  48.201  48.492  1.00  0.00    -0.384 OA
HETATM   18  C   UNL     1      19.843  49.013  49.641  1.00  0.00     0.168 C 
HETATM   19  C   UNL     1      18.648  48.398  50.337  1.00  0.00     0.029 C 
HETATM   20  C   UNL     1      17.888  47.795  49.184  1.00  0.00     0.035 C 
ENDBRANCH  15  16
ENDBRANCH  12  15
ENDBRANCH   6  11
BRANCH   8  21
HETATM   21  C   UNL     1      26.020  47.153  50.836  1.00  0.00     0.409 C 
HETATM   22  F   UNL     1      24.739  47.519  51.067  1.00  0.00    -0.169 F 
HETATM   23  F   UNL     1      26.591  46.892  52.029  1.00  0.00    -0.169 F 
HETATM   24  F   UNL     1      26.644  48.254  50.339  1.00  0.00    -0.169 F 
ENDBRANCH   8  21
BRANCH   1  25
HETATM   25  C   UNL     1      27.911  43.765  52.246  1.00  0.00    -0.035 A 
HETATM   26  C   UNL     1      29.116  43.049  52.144  1.00  0.00     0.010 A 
HETATM   27  C   UNL     1      29.983  42.948  53.236  1.00  0.00     0.019 A 
HETATM   28  C   UNL     1      29.654  43.568  54.439  1.00  0.00     0.011 A 
HETATM   29  C   UNL     1      28.469  44.288  54.559  1.00  0.00     0.019 A 
HETATM   30 BR   UNL     1      30.823  43.426  55.917  1.00  0.00    -0.051 Br
HETATM   31  C   UNL     1      27.601  44.385  53.468  1.00  0.00     0.010 A 
ENDBRANCH   1  25
TORSDOF 5
ENDMDL
MODEL 3
REMARK VINA RESULT:      -9.0      0.984      1.395
REMARK  5 active torsions:
REMARK  status: ('A' for Active; 'I' for Inactive)
REMARK    1  A    between atoms: C_2  and  C_3 
REMARK    2  A    between atoms: C_8  and  C_9 
REMARK       I    between atoms: C_9  and  N_10 
REMARK    3  A    between atoms: N_10  and  C_11 
REMARK    4  A    between atoms: C_11  and  C_12 
REMARK    5  A    between atoms: C_19  and  C_20 
ROOT
HETATM    1  C   UNL     1      26.718  44.923  53.688  1.00  0.00     0.118 C 
HETATM    2  N   UNL     1      26.907  46.154  52.916  1.00  0.00    -0.366 N 
HETATM    3  C   UNL     1      26.043  46.419  51.914  1.00  0.00     0.123 A 
HETATM    4  N   UNL     1      25.549  45.399  51.160  1.00  0.00    -0.240 N 
HETATM    5  N   UNL     1      24.647  45.777  50.240  1.00  0.00    -0.165 NA
HETATM    6  C   UNL     1      24.637  47.126  50.355  1.00  0.00     0.148 A 
HETATM    7  C   UNL     1      25.514  47.565  51.388  1.00  0.00     0.088 A 
HETATM    8  C   UNL     1      25.946  44.023  51.356  1.00  0.00     0.221 C 
HETATM    9  C   UNL     1      26.193  43.734  52.848  1.00  0.00     0.066 C 
HETATM   10  H   UNL     1      27.220  46.934  53.496  1.00  0.00     0.161 HD
ENDROOT
BRANCH   6  11
HETATM   11  C   UNL     1      23.809  47.982  49.490  1.00  0.00     0.272 C 
HETATM   12  N   UNL     1      22.477  47.634  49.481  1.00  0.00    -0.353 N 
HETATM   13  H   UNL     1      22.258  46.743  49.922  1.00  0.00     0.162 HD
HETATM   14  O   UNL     1      24.273  48.907  48.829  1.00  0.00    -0.266 OA
BRANCH  12  15
HETATM   15  C   UNL     1      21.554  48.175  48.506  1.00  0.00     0.155 C 
BRANCH  15  16
HETATM   16  C   UNL     1      20.432  48.975  49.179  1.00  0.00     0.139 C 
HETATM   17  O   UNL     1      19.511  48.053  49.804  1.00  0.00    -0.384 OA
HETATM   18  C   UNL     1      18.268  48.083  49.089  1.00  0.00     0.168 C 
HETATM   19  C   UNL     1      18.524  48.816  47.790  1.00  0.00     0.029 C 
HETATM   20  C   UNL     1      19.612  49.782  48.184  1.00  0.00     0.035 C 
ENDBRANCH  15  16
ENDBRANCH  12  15
ENDBRANCH   6  11
BRANCH   8  21
HETATM   21  C   UNL     1      27.153  43.709  50.500  1.00  0.00     0.409 C 
HETATM   22  F   UNL     1      28.103  43.028  51.180  1.00  0.00    -0.169 F 
HETATM   23  F   UNL     1      26.867  43.006  49.386  1.00  0.00    -0.169 F 
HETATM   24  F   UNL     1      27.737  44.867  50.090  1.00  0.00    -0.169 F 
ENDBRANCH   8  21
BRANCH   1  25
HETATM   25  C   UNL     1      27.988  44.582  54.448  1.00  0.00    -0.035 A 
HETATM   26  C   UNL     1      28.514  45.499  55.375  1.00  0.00     0.010 A 
HETATM   27  C   UNL     1      29.681  45.207  56.085  1.00  0.00     0.019 A 
HETATM   28  C   UNL     1      30.331  43.992  55.880  1.00  0.00     0.011 A 
HETATM   29  C   UNL     1      29.823  43.067  54.973  1.00  0.00     0.019 A 
HETATM   30 BR   UNL     1      31.912  43.601  56.837  1.00  0.00    -0.051 Br
HETATM   31  C   UNL     1      28.657  43.362  54.259  1.00  0.00     0.010 A 
ENDBRANCH   1  25
TORSDOF 5
ENDMDL
MODEL 4
REMARK VINA RESULT:      -8.9      5.864     10.506
REMARK  5 active torsions:
REMARK  status: ('A' for Active; 'I' for Inactive)
REMARK    1  A    between atoms: C_2  and  C_3 
REMARK    2  A    between atoms: C_8  and  C_9 
REMARK       I    between atoms: C_9  and  N_10 
REMARK    3  A    between atoms: N_10  and  C_11 
REMARK    4  A    between atoms: C_11  and  C_12 
REMARK    5  A    between atoms: C_19  and  C_20 
ROOT
HETATM    1  C   UNL     1      19.061  51.457  47.620  1.00  0.00     0.118 C 
HETATM    2  N   UNL     1      20.183  51.664  48.539  1.00  0.00    -0.366 N 
HETATM    3  C   UNL     1      21.306  50.938  48.351  1.00  0.00     0.123 A 
HETATM    4  N   UNL     1      21.213  49.651  47.918  1.00  0.00    -0.240 N 
HETATM    5  N   UNL     1      22.396  49.053  47.702  1.00  0.00    -0.165 NA
HETATM    6  C   UNL     1      23.291  49.985  48.109  1.00  0.00     0.148 A 
HETATM    7  C   UNL     1      22.639  51.177  48.537  1.00  0.00     0.088 A 
HETATM    8  C   UNL     1      19.945  48.996  47.689  1.00  0.00     0.221 C 
HETATM    9  C   UNL     1      18.908  49.993  47.141  1.00  0.00     0.066 C 
HETATM   10  H   UNL     1      20.288  52.642  48.814  1.00  0.00     0.161 HD
ENDROOT
BRANCH   6  11
HETATM   11  C   UNL     1      24.742  49.740  48.094  1.00  0.00     0.272 C 
HETATM   12  N   UNL     1      25.143  48.748  48.960  1.00  0.00    -0.353 N 
HETATM   13  H   UNL     1      24.433  48.431  49.618  1.00  0.00     0.162 HD
HETATM   14  O   UNL     1      25.516  50.377  47.386  1.00  0.00    -0.266 OA
BRANCH  12  15
HETATM   15  C   UNL     1      26.537  48.537  49.287  1.00  0.00     0.155 C 
BRANCH  15  16
HETATM   16  C   UNL     1      26.716  47.363  50.257  1.00  0.00     0.139 C 
HETATM   17  O   UNL     1      27.048  46.178  49.499  1.00  0.00    -0.384 OA
HETATM   18  C   UNL     1      25.945  45.263  49.561  1.00  0.00     0.168 C 
HETATM   19  C   UNL     1      24.765  46.032  50.116  1.00  0.00     0.029 C 
HETATM   20  C   UNL     1      25.440  47.034  51.018  1.00  0.00     0.035 C 
ENDBRANCH  15  16
ENDBRANCH  12  15
ENDBRANCH   6  11
BRANCH   8  21
HETATM   21  C   UNL     1      19.479  48.317  48.958  1.00  0.00     0.409 C 
HETATM   22  F   UNL     1      19.818  47.008  48.995  1.00  0.00    -0.169 F 
HETATM   23  F   UNL     1      19.940  48.890  50.087  1.00  0.00    -0.169 F 
HETATM   24  F   UNL     1      18.121  48.359  49.027  1.00  0.00    -0.169 F 
ENDBRANCH   8  21
BRANCH   1  25
HETATM   25  C   UNL     1      17.781  52.008  48.225  1.00  0.00    -0.035 A 
HETATM   26  C   UNL     1      17.791  52.510  49.538  1.00  0.00     0.010 A 
HETATM   27  C   UNL     1      16.626  53.022  50.116  1.00  0.00     0.019 A 
HETATM   28  C   UNL     1      15.441  53.042  49.383  1.00  0.00     0.011 A 
HETATM   29  C   UNL     1      15.412  52.557  48.079  1.00  0.00     0.019 A 
HETATM   30 BR   UNL     1      13.865  53.728  50.167  1.00  0.00    -0.051 Br
HETATM   31  C   UNL     1      16.577  52.041  47.504  1.00  0.00     0.010 A 
ENDBRANCH   1  25
TORSDOF 5
ENDMDL
MODEL 5
REMARK VINA RESULT:      -8.6      5.606     10.468
REMARK  5 active torsions:
REMARK  status: ('A' for Active; 'I' for Inactive)
REMARK    1  A    between atoms: C_2  and  C_3 
REMARK    2  A    between atoms: C_8  and  C_9 
REMARK       I    between atoms: C_9  and  N_10 
REMARK    3  A    between atoms: N_10  and  C_11 
REMARK    4  A    between atoms: C_11  and  C_12 
REMARK    5  A    between atoms: C_19  and  C_20 
ROOT
HETATM    1  C   UNL     1      18.857  49.900  49.891  1.00  0.00     0.118 C 
HETATM    2  N   UNL     1      19.069  48.944  48.801  1.00  0.00    -0.366 N 
HETATM    3  C   UNL     1      20.228  48.253  48.773  1.00  0.00     0.123 A 
HETATM    4  N   UNL     1      21.382  48.853  49.176  1.00  0.00    -0.240 N 
HETATM    5  N   UNL     1      22.456  48.047  49.169  1.00  0.00    -0.165 NA
HETATM    6  C   UNL     1      21.974  46.896  48.644  1.00  0.00     0.148 A 
HETATM    7  C   UNL     1      20.579  46.995  48.369  1.00  0.00     0.088 A 
HETATM    8  C   UNL     1      21.435  50.234  49.599  1.00  0.00     0.221 C 
HETATM    9  C   UNL     1      20.146  50.626  50.345  1.00  0.00     0.066 C 
HETATM   10  H   UNL     1      18.213  48.451  48.542  1.00  0.00     0.161 HD
ENDROOT
BRANCH   6  11
HETATM   11  C   UNL     1      22.830  45.723  48.403  1.00  0.00     0.272 C 
HETATM   12  N   UNL     1      23.826  45.565  49.339  1.00  0.00    -0.353 N 
HETATM   13  H   UNL     1      23.960  46.354  49.969  1.00  0.00     0.162 HD
HETATM   14  O   UNL     1      22.674  44.972  47.445  1.00  0.00    -0.266 OA
BRANCH  12  15
HETATM   15  C   UNL     1      24.922  44.641  49.139  1.00  0.00     0.155 C 
BRANCH  15  16
HETATM   16  C   UNL     1      26.260  45.253  49.574  1.00  0.00     0.139 C 
HETATM   17  O   UNL     1      27.238  44.197  49.698  1.00  0.00    -0.384 OA
HETATM   18  C   UNL     1      27.566  44.029  51.084  1.00  0.00     0.168 C 
HETATM   19  C   UNL     1      26.529  44.793  51.878  1.00  0.00     0.029 C 
HETATM   20  C   UNL     1      26.181  45.920  50.939  1.00  0.00     0.035 C 
ENDBRANCH  15  16
ENDBRANCH  12  15
ENDBRANCH   6  11
BRANCH   8  21
HETATM   21  C   UNL     1      21.706  51.127  48.409  1.00  0.00     0.409 C 
HETATM   22  F   UNL     1      22.911  51.737  48.487  1.00  0.00    -0.169 F 
HETATM   23  F   UNL     1      21.647  50.491  47.222  1.00  0.00    -0.169 F 
HETATM   24  F   UNL     1      20.780  52.122  48.363  1.00  0.00    -0.169 F 
ENDBRANCH   8  21
BRANCH   1  25
HETATM   25  C   UNL     1      17.742  50.866  49.531  1.00  0.00    -0.035 A 
HETATM   26  C   UNL     1      17.792  52.192  49.993  1.00  0.00     0.010 A 
HETATM   27  C   UNL     1      16.777  53.099  49.674  1.00  0.00     0.019 A 
HETATM   28  C   UNL     1      15.707  52.690  48.884  1.00  0.00     0.011 A 
HETATM   29  C   UNL     1      15.642  51.383  48.409  1.00  0.00     0.019 A 
HETATM   30 BR   UNL     1      14.332  53.914  48.458  1.00  0.00    -0.051 Br
HETATM   31  C   UNL     1      16.655  50.476  48.732  1.00  0.00     0.010 A 
ENDBRANCH   1  25
TORSDOF 5
ENDMDL
MODEL 6
REMARK VINA RESULT:      -8.5      5.038     10.004
REMARK  5 active torsions:
REMARK  status: ('A' for Active; 'I' for Inactive)
REMARK    1  A    between atoms: C_2  and  C_3 
REMARK    2  A    between atoms: C_8  and  C_9 
REMARK       I    between atoms: C_9  and  N_10 
REMARK    3  A    between atoms: N_10  and  C_11 
REMARK    4  A    between atoms: C_11  and  C_12 
REMARK    5  A    between atoms: C_19  and  C_20 
ROOT
HETATM    1  C   UNL     1      20.537  49.623  48.980  1.00  0.00     0.118 C 
HETATM    2  N   UNL     1      21.097  48.462  48.281  1.00  0.00    -0.366 N 
HETATM    3  C   UNL     1      22.220  47.899  48.774  1.00  0.00     0.123 A 
HETATM    4  N   UNL     1      23.179  48.686  49.335  1.00  0.00    -0.240 N 
HETATM    5  N   UNL     1      24.218  48.009  49.852  1.00  0.00    -0.165 NA
HETATM    6  C   UNL     1      23.946  46.725  49.517  1.00  0.00     0.148 A 
HETATM    7  C   UNL     1      22.704  46.622  48.826  1.00  0.00     0.088 A 
HETATM    8  C   UNL     1      23.071  50.126  49.390  1.00  0.00     0.221 C 
HETATM    9  C   UNL     1      21.607  50.556  49.596  1.00  0.00     0.066 C 
HETATM   10  H   UNL     1      20.374  47.841  47.914  1.00  0.00     0.161 HD
ENDROOT
BRANCH   6  11
HETATM   11  C   UNL     1      24.857  45.617  49.847  1.00  0.00     0.272 C 
HETATM   12  N   UNL     1      25.404  45.708  51.106  1.00  0.00    -0.353 N 
HETATM   13  H   UNL     1      25.256  46.597  51.581  1.00  0.00     0.162 HD
HETATM   14  O   UNL     1      25.112  44.711  49.059  1.00  0.00    -0.266 OA
BRANCH  12  15
HETATM   15  C   UNL     1      26.512  44.874  51.519  1.00  0.00     0.155 C 
BRANCH  15  16
HETATM   16  C   UNL     1      26.047  43.737  52.438  1.00  0.00     0.139 C 
HETATM   17  O   UNL     1      24.847  44.154  53.125  1.00  0.00    -0.384 OA
HETATM   18  C   UNL     1      25.146  44.332  54.517  1.00  0.00     0.168 C 
HETATM   19  C   UNL     1      26.653  44.326  54.648  1.00  0.00     0.029 C 
HETATM   20  C   UNL     1      27.063  43.410  53.522  1.00  0.00     0.035 C 
ENDBRANCH  15  16
ENDBRANCH  12  15
ENDBRANCH   6  11
BRANCH   8  21
HETATM   21  C   UNL     1      23.683  50.736  48.148  1.00  0.00     0.409 C 
HETATM   22  F   UNL     1      24.994  50.434  48.018  1.00  0.00    -0.169 F 
HETATM   23  F   UNL     1      23.067  50.380  47.003  1.00  0.00    -0.169 F 
HETATM   24  F   UNL     1      23.611  52.093  48.221  1.00  0.00    -0.169 F 
ENDBRANCH   8  21
BRANCH   1  25
HETATM   25  C   UNL     1      19.572  50.364  48.072  1.00  0.00    -0.035 A 
HETATM   26  C   UNL     1      19.134  49.762  46.880  1.00  0.00     0.010 A 
HETATM   27  C   UNL     1      18.246  50.425  46.029  1.00  0.00     0.019 A 
HETATM   28  C   UNL     1      17.782  51.694  46.366  1.00  0.00     0.011 A 
HETATM   29  C   UNL     1      18.197  52.305  47.545  1.00  0.00     0.019 A 
HETATM   30 BR   UNL     1      16.586  52.593  45.212  1.00  0.00    -0.051 Br
HETATM   31  C   UNL     1      19.088  51.643  48.394  1.00  0.00     0.010 A 
ENDBRANCH   1  25
TORSDOF 5
ENDMDL
MODEL 7
REMARK VINA RESULT:      -8.4      5.380     10.014
REMARK  5 active torsions:
REMARK  status: ('A' for Active; 'I' for Inactive)
REMARK    1  A    between atoms: C_2  and  C_3 
REMARK    2  A    between atoms: C_8  and  C_9 
REMARK       I    between atoms: C_9  and  N_10 
REMARK    3  A    between atoms: N_10  and  C_11 
REMARK    4  A    between atoms: C_11  and  C_12 
REMARK    5  A    between atoms: C_19  and  C_20 
ROOT
HETATM    1  C   UNL     1      19.621  48.363  49.334  1.00  0.00     0.118 C 
HETATM    2  N   UNL     1      20.684  47.727  48.550  1.00  0.00    -0.366 N 
HETATM    3  C   UNL     1      21.961  47.887  48.956  1.00  0.00     0.123 A 
HETATM    4  N   UNL     1      22.352  49.070  49.506  1.00  0.00    -0.240 N 
HETATM    5  N   UNL     1      23.624  49.088  49.934  1.00  0.00    -0.165 NA
HETATM    6  C   UNL     1      24.096  47.878  49.550  1.00  0.00     0.148 A 
HETATM    7  C   UNL     1      23.080  47.102  48.919  1.00  0.00     0.088 A 
HETATM    8  C   UNL     1      21.459  50.199  49.638  1.00  0.00     0.221 C 
HETATM    9  C   UNL     1      20.025  49.729  49.940  1.00  0.00     0.066 C 
HETATM   10  H   UNL     1      20.409  46.812  48.190  1.00  0.00     0.161 HD
ENDROOT
BRANCH   6  11
HETATM   11  C   UNL     1      25.491  47.470  49.777  1.00  0.00     0.272 C 
HETATM   12  N   UNL     1      25.742  46.156  49.454  1.00  0.00    -0.353 N 
HETATM   13  H   UNL     1      24.916  45.589  49.269  1.00  0.00     0.162 HD
HETATM   14  O   UNL     1      26.341  48.232  50.228  1.00  0.00    -0.266 OA
BRANCH  12  15
HETATM   15  C   UNL     1      26.968  45.494  49.846  1.00  0.00     0.155 C 
BRANCH  15  16
HETATM   16  C   UNL     1      26.685  44.212  50.640  1.00  0.00     0.139 C 
HETATM   17  O   UNL     1      25.364  44.304  51.218  1.00  0.00    -0.384 OA
HETATM   18  C   UNL     1      25.488  44.426  52.642  1.00  0.00     0.168 C 
HETATM   19  C   UNL     1      26.940  44.733  52.933  1.00  0.00     0.029 C 
HETATM   20  C   UNL     1      27.644  44.023  51.805  1.00  0.00     0.035 C 
ENDBRANCH  15  16
ENDBRANCH  12  15
ENDBRANCH   6  11
BRANCH   8  21
HETATM   21  C   UNL     1      21.534  51.063  48.399  1.00  0.00     0.409 C 
HETATM   22  F   UNL     1      21.393  50.345  47.262  1.00  0.00    -0.169 F 
HETATM   23  F   UNL     1      20.625  52.058  48.368  1.00  0.00    -0.169 F 
HETATM   24  F   UNL     1      22.758  51.653  48.325  1.00  0.00    -0.169 F 
ENDBRANCH   8  21
BRANCH   1  25
HETATM   25  C   UNL     1      18.345  48.444  48.515  1.00  0.00    -0.035 A 
HETATM   26  C   UNL     1      18.355  49.101  47.272  1.00  0.00     0.010 A 
HETATM   27  C   UNL     1      17.192  49.189  46.501  1.00  0.00     0.019 A 
HETATM   28  C   UNL     1      16.011  48.615  46.964  1.00  0.00     0.011 A 
HETATM   29  C   UNL     1      15.981  47.953  48.188  1.00  0.00     0.019 A 
HETATM   30 BR   UNL     1      14.438  48.739  45.924  1.00  0.00    -0.051 Br
HETATM   31  C   UNL     1      17.143  47.870  48.960  1.00  0.00     0.010 A 
ENDBRANCH   1  25
TORSDOF 5
ENDMDL
MODEL 8
REMARK VINA RESULT:      -8.2      3.809      4.842
REMARK  5 active torsions:
REMARK  status: ('A' for Active; 'I' for Inactive)
REMARK    1  A    between atoms: C_2  and  C_3 
REMARK    2  A    between atoms: C_8  and  C_9 
REMARK       I    between atoms: C_9  and  N_10 
REMARK    3  A    between atoms: N_10  and  C_11 
REMARK    4  A    between atoms: C_11  and  C_12 
REMARK    5  A    between atoms: C_19  and  C_20 
ROOT
HETATM    1  C   UNL     1      26.950  43.849  51.007  1.00  0.00     0.118 C 
HETATM    2  N   UNL     1      25.552  43.776  51.440  1.00  0.00    -0.366 N 
HETATM    3  C   UNL     1      24.595  44.193  50.585  1.00  0.00     0.123 A 
HETATM    4  N   UNL     1      24.835  45.254  49.768  1.00  0.00    -0.240 N 
HETATM    5  N   UNL     1      23.837  45.533  48.914  1.00  0.00    -0.165 NA
HETATM    6  C   UNL     1      22.870  44.655  49.273  1.00  0.00     0.148 A 
HETATM    7  C   UNL     1      23.308  43.806  50.331  1.00  0.00     0.088 A 
HETATM    8  C   UNL     1      26.073  46.000  49.803  1.00  0.00     0.221 C 
HETATM    9  C   UNL     1      27.261  45.069  50.107  1.00  0.00     0.066 C 
HETATM   10  H   UNL     1      25.360  42.945  52.003  1.00  0.00     0.161 HD
ENDROOT
BRANCH   6  11
HETATM   11  C   UNL     1      21.550  44.629  48.622  1.00  0.00     0.272 C 
HETATM   12  N   UNL     1      21.611  44.465  47.257  1.00  0.00    -0.353 N 
HETATM   13  H   UNL     1      22.540  44.556  46.849  1.00  0.00     0.162 HD
HETATM   14  O   UNL     1      20.500  44.760  49.244  1.00  0.00    -0.266 OA
BRANCH  12  15
HETATM   15  C   UNL     1      20.455  44.675  46.411  1.00  0.00     0.155 C 
BRANCH  15  16
HETATM   16  C   UNL     1      19.719  43.359  46.129  1.00  0.00     0.139 C 
HETATM   17  O   UNL     1      20.602  42.257  46.435  1.00  0.00    -0.384 OA
HETATM   18  C   UNL     1      20.967  41.602  45.213  1.00  0.00     0.168 C 
HETATM   19  C   UNL     1      20.548  42.515  44.081  1.00  0.00     0.029 C 
HETATM   20  C   UNL     1      19.341  43.204  44.664  1.00  0.00     0.035 C 
ENDBRANCH  15  16
ENDBRANCH  12  15
ENDBRANCH   6  11
BRANCH   8  21
HETATM   21  C   UNL     1      25.962  47.136  50.795  1.00  0.00     0.409 C 
HETATM   22  F   UNL     1      24.681  47.524  50.992  1.00  0.00    -0.169 F 
HETATM   23  F   UNL     1      26.496  46.864  52.002  1.00  0.00    -0.169 F 
HETATM   24  F   UNL     1      26.619  48.227  50.317  1.00  0.00    -0.169 F 
ENDBRANCH   8  21
BRANCH   1  25
HETATM   25  C   UNL     1      27.875  43.762  52.208  1.00  0.00    -0.035 A 
HETATM   26  C   UNL     1      29.090  43.063  52.102  1.00  0.00     0.010 A 
HETATM   27  C   UNL     1      29.958  42.969  53.195  1.00  0.00     0.019 A 
HETATM   28  C   UNL     1      29.620  43.579  54.400  1.00  0.00     0.011 A 
HETATM   29  C   UNL     1      28.426  44.282  54.523  1.00  0.00     0.019 A 
HETATM   30 BR   UNL     1      30.790  43.446  55.878  1.00  0.00    -0.051 Br
HETATM   31  C   UNL     1      27.557  44.372  53.432  1.00  0.00     0.010 A 
ENDBRANCH   1  25
TORSDOF 5
ENDMDL
MODEL 9
REMARK VINA RESULT:      -8.0     13.368     15.520
REMARK  5 active torsions:
REMARK  status: ('A' for Active; 'I' for Inactive)
REMARK    1  A    between atoms: C_2  and  C_3 
REMARK    2  A    between atoms: C_8  and  C_9 
REMARK       I    between atoms: C_9  and  N_10 
REMARK    3  A    between atoms: N_10  and  C_11 
REMARK    4  A    between atoms: C_11  and  C_12 
REMARK    5  A    between atoms: C_19  and  C_20 
ROOT
HETATM    1  C   UNL     1      31.969  48.758  41.656  1.00  0.00     0.118 C 
HETATM    2  N   UNL     1      32.909  49.536  40.845  1.00  0.00    -0.366 N 
HETATM    3  C   UNL     1      33.768  50.362  41.479  1.00  0.00     0.123 A 
HETATM    4  N   UNL     1      33.365  51.027  42.597  1.00  0.00    -0.240 N 
HETATM    5  N   UNL     1      34.324  51.764  43.179  1.00  0.00    -0.165 NA
HETATM    6  C   UNL     1      35.371  51.634  42.330  1.00  0.00     0.148 A 
HETATM    7  C   UNL     1      35.051  50.770  41.242  1.00  0.00     0.088 A 
HETATM    8  C   UNL     1      32.022  50.923  43.123  1.00  0.00     0.221 C 
HETATM    9  C   UNL     1      31.463  49.503  42.914  1.00  0.00     0.066 C 
HETATM   10  H   UNL     1      33.258  49.013  40.040  1.00  0.00     0.161 HD
ENDROOT
BRANCH   6  11
HETATM   11  C   UNL     1      36.652  52.324  42.549  1.00  0.00     0.272 C 
HETATM   12  N   UNL     1      36.831  52.758  43.842  1.00  0.00    -0.353 N 
HETATM   13  H   UNL     1      36.004  52.708  44.436  1.00  0.00     0.162 HD
HETATM   14  O   UNL     1      37.470  52.506  41.652  1.00  0.00    -0.266 OA
BRANCH  12  15
HETATM   15  C   UNL     1      37.890  53.678  44.199  1.00  0.00     0.155 C 
BRANCH  15  16
HETATM   16  C   UNL     1      38.850  53.059  45.223  1.00  0.00     0.139 C 
HETATM   17  O   UNL     1      38.081  52.560  46.340  1.00  0.00    -0.384 OA
HETATM   18  C   UNL     1      38.353  53.371  47.491  1.00  0.00     0.168 C 
HETATM   19  C   UNL     1      39.077  54.606  46.999  1.00  0.00     0.029 C 
HETATM   20  C   UNL     1      39.823  54.076  45.801  1.00  0.00     0.035 C 
ENDBRANCH  15  16
ENDBRANCH  12  15
ENDBRANCH   6  11
BRANCH   8  21
HETATM   21  C   UNL     1      31.143  51.986  42.503  1.00  0.00     0.409 C 
HETATM   22  F   UNL     1      30.642  52.841  43.424  1.00  0.00    -0.169 F 
HETATM   23  F   UNL     1      31.757  52.722  41.556  1.00  0.00    -0.169 F 
HETATM   24  F   UNL     1      30.069  51.402  41.906  1.00  0.00    -0.169 F 
ENDBRANCH   8  21
BRANCH   1  25
HETATM   25  C   UNL     1      30.832  48.244  40.789  1.00  0.00    -0.035 A 
HETATM   26  C   UNL     1      31.087  47.864  39.459  1.00  0.00     0.010 A 
HETATM   27  C   UNL     1      30.057  47.389  38.642  1.00  0.00     0.019 A 
HETATM   28  C   UNL     1      28.765  47.282  39.150  1.00  0.00     0.011 A 
HETATM   29  C   UNL     1      28.493  47.645  40.466  1.00  0.00     0.019 A 
HETATM   30 BR   UNL     1      27.372  46.645  38.044  1.00  0.00    -0.051 Br
HETATM   31  C   UNL     1      29.523  48.125  41.281  1.00  0.00     0.010 A 
ENDBRANCH   1  25
TORSDOF 5
ENDMDL
MODEL 10
REMARK VINA RESULT:      -7.8      6.044      7.881
REMARK  5 active torsions:
REMARK  status: ('A' for Active; 'I' for Inactive)
REMARK    1  A    between atoms: C_2  and  C_3 
REMARK    2  A    between atoms: C_8  and  C_9 
REMARK       I    between atoms: C_9  and  N_10 
REMARK    3  A    between atoms: N_10  and  C_11 
REMARK    4  A    between atoms: C_11  and  C_12 
REMARK    5  A    between atoms: C_19  and  C_20 
ROOT
HETATM    1  C   UNL     1      29.319  43.255  52.574  1.00  0.00     0.118 C 
HETATM    2  N   UNL     1      28.867  41.864  52.669  1.00  0.00    -0.366 N 
HETATM    3  C   UNL     1      28.256  41.316  51.598  1.00  0.00     0.123 A 
HETATM    4  N   UNL     1      27.439  42.080  50.822  1.00  0.00    -0.240 N 
HETATM    5  N   UNL     1      26.943  41.446  49.748  1.00  0.00    -0.165 NA
HETATM    6  C   UNL     1      27.397  40.179  49.902  1.00  0.00     0.148 A 
HETATM    7  C   UNL     1      28.214  40.059  51.063  1.00  0.00     0.088 A 
HETATM    8  C   UNL     1      27.154  43.466  51.120  1.00  0.00     0.221 C 
HETATM    9  C   UNL     1      28.388  44.158  51.729  1.00  0.00     0.066 C 
HETATM   10  H   UNL     1      29.514  41.279  53.200  1.00  0.00     0.161 HD
ENDROOT
BRANCH   6  11
HETATM   11  C   UNL     1      27.053  39.101  48.960  1.00  0.00     0.272 C 
HETATM   12  N   UNL     1      27.066  39.495  47.642  1.00  0.00    -0.353 N 
HETATM   13  H   UNL     1      27.136  40.499  47.489  1.00  0.00     0.162 HD
HETATM   14  O   UNL     1      26.766  37.965  49.327  1.00  0.00    -0.266 OA
BRANCH  12  15
HETATM   15  C   UNL     1      26.507  38.669  46.593  1.00  0.00     0.155 C 
BRANCH  15  16
HETATM   16  C   UNL     1      26.259  39.477  45.313  1.00  0.00     0.139 C 
HETATM   17  O   UNL     1      26.552  38.642  44.171  1.00  0.00    -0.384 OA
HETATM   18  C   UNL     1      27.732  39.139  43.523  1.00  0.00     0.168 C 
HETATM   19  C   UNL     1      28.372  40.128  44.472  1.00  0.00     0.029 C 
HETATM   20  C   UNL     1      27.175  40.686  45.199  1.00  0.00     0.035 C 
ENDBRANCH  15  16
ENDBRANCH  12  15
ENDBRANCH   6  11
BRANCH   8  21
HETATM   21  C   UNL     1      25.940  43.561  52.017  1.00  0.00     0.409 C 
HETATM   22  F   UNL     1      24.925  42.774  51.594  1.00  0.00    -0.169 F 
HETATM   23  F   UNL     1      26.185  43.253  53.306  1.00  0.00    -0.169 F 
HETATM   24  F   UNL     1      25.461  44.834  52.006  1.00  0.00    -0.169 F 
ENDBRANCH   8  21
BRANCH   1  25
HETATM   25  C   UNL     1      29.572  43.819  53.961  1.00  0.00    -0.035 A 
HETATM   26  C   UNL     1      30.604  43.285  54.753  1.00  0.00     0.010 A 
HETATM   27  C   UNL     1      30.855  43.787  56.033  1.00  0.00     0.019 A 
HETATM   28  C   UNL     1      30.081  44.833  56.530  1.00  0.00     0.011 A 
HETATM   29  C   UNL     1      29.060  45.381  55.759  1.00  0.00     0.019 A 
HETATM   30 BR   UNL     1      30.417  45.508  58.263  1.00  0.00    -0.051 Br
HETATM   31  C   UNL     1      28.807  44.875  54.481  1.00  0.00     0.010 A 
ENDBRANCH   1  25
TORSDOF 5
ENDMDL
