MODEL 1
REMARK VINA RESULT:      -9.3      0.000      0.000
REMARK  4 active torsions:
REMARK  status: ('A' for Active; 'I' for Inactive)
REMARK    1  A    between atoms: C_6  and  C_7 
REMARK    2  A    between atoms: C_7  and  N_8 
REMARK    3  A    between atoms: C_12  and  C_13 
REMARK    4  A    between atoms: C_15  and  C_16 
ROOT
HETATM    1  N   UNL     1      25.957  46.164  52.172  1.00  0.00    -0.067 N 
HETATM    2  H   UNL     1      26.713  45.487  52.021  1.00  0.00     0.280 HD
HETATM    3  C   UNL     1      24.677  45.527  51.674  1.00  0.00     0.236 C 
HETATM    4  C   UNL     1      24.782  45.247  50.179  1.00  0.00     0.040 C 
HETATM    5  C   UNL     1      25.145  46.487  49.355  1.00  0.00     0.058 C 
HETATM    6  C   UNL     1      26.394  47.159  49.933  1.00  0.00     0.040 C 
HETATM    7  C   UNL     1      26.291  47.432  51.428  1.00  0.00     0.236 C 
ENDROOT
BRANCH   1   8
HETATM    8  C   UNL     1      25.918  46.425  53.668  1.00  0.00     0.273 C 
BRANCH   8   9
HETATM    9  C   UNL     1      27.141  45.928  54.390  1.00  0.00    -0.032 A 
HETATM   10  C   UNL     1      27.792  44.765  53.951  1.00  0.00     0.017 A 
HETATM   11  C   UNL     1      28.951  44.371  54.601  1.00  0.00    -0.035 A 
HETATM   12  C   UNL     1      29.493  45.096  55.666  1.00  0.00     0.016 A 
HETATM   13  C   UNL     1      29.836  43.206  54.297  1.00  0.00     0.055 C 
HETATM   14  N   UNL     1      30.702  44.549  56.118  1.00  0.00    -0.287 NA
HETATM   15  C   UNL     1      28.854  46.241  56.109  1.00  0.00     0.025 A 
HETATM   16  C   UNL     1      31.068  44.718  57.515  1.00  0.00     0.116 C 
HETATM   17  C   UNL     1      30.708  43.182  55.565  1.00  0.00     0.100 C 
HETATM   18  C   UNL     1      27.674  46.652  55.479  1.00  0.00     0.011 A 
ENDBRANCH   8   9
ENDBRANCH   1   8
BRANCH   5  19
HETATM   19  C   UNL     1      23.993  47.443  49.299  1.00  0.00     0.108 A 
HETATM   20  N   UNL     1      24.072  48.749  49.444  1.00  0.00    -0.229 NA
HETATM   21  C   UNL     1      22.771  49.237  49.346  1.00  0.00     0.157 A 
HETATM   22  C   UNL     1      21.912  48.176  49.129  1.00  0.00     0.126 A 
HETATM   23  N   UNL     1      22.691  47.053  49.099  1.00  0.00    -0.352 N 
HETATM   24  H   UNL     1      22.362  46.104  48.963  1.00  0.00     0.166 HD
BRANCH  21  25
HETATM   25  C   UNL     1      22.439  50.700  49.474  1.00  0.00     0.436 C 
HETATM   26  F   UNL     1      21.687  51.147  48.433  1.00  0.00    -0.165 F 
HETATM   27  F   UNL     1      21.738  50.959  50.607  1.00  0.00    -0.165 F 
HETATM   28  F   UNL     1      23.557  51.469  49.512  1.00  0.00    -0.165 F 
ENDBRANCH  21  25
ENDBRANCH   5  19
TORSDOF 4
ENDMDL
MODEL 2
REMARK VINA RESULT:      -8.5      3.675      4.335
REMARK  4 active torsions:
REMARK  status: ('A' for Active; 'I' for Inactive)
REMARK    1  A    between atoms: C_6  and  C_7 
REMARK    2  A    between atoms: C_7  and  N_8 
REMARK    3  A    between atoms: C_12  and  C_13 
REMARK    4  A    between atoms: C_15  and  C_16 
ROOT
HETATM    1  N   UNL     1      26.950  44.941  51.962  1.00  0.00    -0.067 N 
HETATM    2  H   UNL     1      27.576  45.722  52.190  1.00  0.00     0.280 HD
HETATM    3  C   UNL     1      27.102  44.658  50.483  1.00  0.00     0.236 C 
HETATM    4  C   UNL     1      26.668  45.874  49.673  1.00  0.00     0.040 C 
HETATM    5  C   UNL     1      25.250  46.349  50.007  1.00  0.00     0.058 C 
HETATM    6  C   UNL     1      25.100  46.546  51.518  1.00  0.00     0.040 C 
HETATM    7  C   UNL     1      25.541  45.333  52.329  1.00  0.00     0.236 C 
ENDROOT
BRANCH   1   8
HETATM    8  C   UNL     1      27.411  43.772  52.816  1.00  0.00     0.273 C 
BRANCH   8   9
HETATM    9  C   UNL     1      28.243  44.190  53.998  1.00  0.00    -0.032 A 
HETATM   10  C   UNL     1      29.279  43.363  54.456  1.00  0.00     0.017 A 
HETATM   11  C   UNL     1      30.065  43.809  55.508  1.00  0.00    -0.035 A 
HETATM   12  C   UNL     1      29.864  45.052  56.115  1.00  0.00     0.016 A 
HETATM   13  C   UNL     1      31.239  43.136  56.139  1.00  0.00     0.055 C 
HETATM   14  N   UNL     1      30.821  45.318  57.105  1.00  0.00    -0.287 NA
HETATM   15  C   UNL     1      28.841  45.872  55.673  1.00  0.00     0.025 A 
HETATM   16  C   UNL     1      30.450  46.164  58.227  1.00  0.00     0.116 C 
HETATM   17  C   UNL     1      31.407  43.998  57.403  1.00  0.00     0.100 C 
HETATM   18  C   UNL     1      28.024  45.438  54.622  1.00  0.00     0.011 A 
ENDBRANCH   8   9
ENDBRANCH   1   8
BRANCH   5  19
HETATM   19  C   UNL     1      24.229  45.385  49.483  1.00  0.00     0.108 A 
HETATM   20  N   UNL     1      24.489  44.260  48.852  1.00  0.00    -0.229 NA
HETATM   21  C   UNL     1      23.259  43.697  48.525  1.00  0.00     0.157 A 
HETATM   22  C   UNL     1      22.252  44.523  48.990  1.00  0.00     0.126 A 
HETATM   23  N   UNL     1      22.875  45.581  49.593  1.00  0.00    -0.352 N 
HETATM   24  H   UNL     1      22.415  46.369  50.033  1.00  0.00     0.166 HD
BRANCH  21  25
HETATM   25  C   UNL     1      23.132  42.397  47.776  1.00  0.00     0.436 C 
HETATM   26  F   UNL     1      22.017  42.361  46.997  1.00  0.00    -0.165 F 
HETATM   27  F   UNL     1      24.193  42.182  46.957  1.00  0.00    -0.165 F 
HETATM   28  F   UNL     1      23.057  41.335  48.619  1.00  0.00    -0.165 F 
ENDBRANCH  21  25
ENDBRANCH   5  19
TORSDOF 4
ENDMDL
MODEL 3
REMARK VINA RESULT:      -8.4      1.454      1.759
REMARK  4 active torsions:
REMARK  status: ('A' for Active; 'I' for Inactive)
REMARK    1  A    between atoms: C_6  and  C_7 
REMARK    2  A    between atoms: C_7  and  N_8 
REMARK    3  A    between atoms: C_12  and  C_13 
REMARK    4  A    between atoms: C_15  and  C_16 
ROOT
HETATM    1  N   UNL     1      26.308  45.162  52.174  1.00  0.00    -0.067 N 
HETATM    2  H   UNL     1      27.041  44.453  52.281  1.00  0.00     0.280 HD
HETATM    3  C   UNL     1      24.985  44.434  52.081  1.00  0.00     0.236 C 
HETATM    4  C   UNL     1      24.970  43.537  50.848  1.00  0.00     0.040 C 
HETATM    5  C   UNL     1      25.286  44.287  49.550  1.00  0.00     0.058 C 
HETATM    6  C   UNL     1      26.585  45.084  49.702  1.00  0.00     0.040 C 
HETATM    7  C   UNL     1      26.603  45.975  50.938  1.00  0.00     0.236 C 
ENDROOT
BRANCH   1   8
HETATM    8  C   UNL     1      26.388  46.040  53.412  1.00  0.00     0.273 C 
BRANCH   8   9
HETATM    9  C   UNL     1      27.523  45.671  54.329  1.00  0.00    -0.032 A 
HETATM   10  C   UNL     1      28.315  44.547  54.050  1.00  0.00     0.017 A 
HETATM   11  C   UNL     1      29.389  44.272  54.882  1.00  0.00    -0.035 A 
HETATM   12  C   UNL     1      29.712  45.081  55.976  1.00  0.00     0.016 A 
HETATM   13  C   UNL     1      30.391  43.171  54.771  1.00  0.00     0.055 C 
HETATM   14  N   UNL     1      30.877  44.650  56.627  1.00  0.00    -0.287 NA
HETATM   15  C   UNL     1      28.932  46.188  56.262  1.00  0.00     0.025 A 
HETATM   16  C   UNL     1      31.016  44.903  58.051  1.00  0.00     0.116 C 
HETATM   17  C   UNL     1      31.064  43.266  56.152  1.00  0.00     0.100 C 
HETATM   18  C   UNL     1      27.833  46.478  55.446  1.00  0.00     0.011 A 
ENDBRANCH   8   9
ENDBRANCH   1   8
BRANCH   5  19
HETATM   19  C   UNL     1      24.147  45.180  49.161  1.00  0.00     0.108 A 
HETATM   20  N   UNL     1      24.101  46.484  49.331  1.00  0.00    -0.229 NA
HETATM   21  C   UNL     1      22.861  46.902  48.856  1.00  0.00     0.157 A 
HETATM   22  C   UNL     1      22.168  45.800  48.388  1.00  0.00     0.126 A 
HETATM   23  N   UNL     1      22.988  44.722  48.584  1.00  0.00    -0.352 N 
HETATM   24  H   UNL     1      22.771  43.760  48.350  1.00  0.00     0.166 HD
BRANCH  21  25
HETATM   25  C   UNL     1      22.419  48.341  48.889  1.00  0.00     0.436 C 
HETATM   26  F   UNL     1      21.127  48.470  49.293  1.00  0.00    -0.165 F 
HETATM   27  F   UNL     1      23.176  49.079  49.740  1.00  0.00    -0.165 F 
HETATM   28  F   UNL     1      22.510  48.923  47.665  1.00  0.00    -0.165 F 
ENDBRANCH  21  25
ENDBRANCH   5  19
TORSDOF 4
ENDMDL
MODEL 4
REMARK VINA RESULT:      -8.2      4.645      9.306
REMARK  4 active torsions:
REMARK  status: ('A' for Active; 'I' for Inactive)
REMARK    1  A    between atoms: C_6  and  C_7 
REMARK    2  A    between atoms: C_7  and  N_8 
REMARK    3  A    between atoms: C_12  and  C_13 
REMARK    4  A    between atoms: C_15  and  C_16 
ROOT
HETATM    1  N   UNL     1      26.251  45.324  51.082  1.00  0.00    -0.067 N 
HETATM    2  H   UNL     1      25.308  45.068  50.771  1.00  0.00     0.280 HD
HETATM    3  C   UNL     1      27.201  44.269  50.556  1.00  0.00     0.236 C 
HETATM    4  C   UNL     1      26.851  42.909  51.151  1.00  0.00     0.040 C 
HETATM    5  C   UNL     1      26.811  42.911  52.683  1.00  0.00     0.058 C 
HETATM    6  C   UNL     1      25.911  44.042  53.188  1.00  0.00     0.040 C 
HETATM    7  C   UNL     1      26.257  45.399  52.588  1.00  0.00     0.236 C 
ENDROOT
BRANCH   1   8
HETATM    8  C   UNL     1      26.534  46.692  50.485  1.00  0.00     0.273 C 
BRANCH   8   9
HETATM    9  C   UNL     1      25.338  47.302  49.805  1.00  0.00    -0.032 A 
HETATM   10  C   UNL     1      25.407  48.611  49.303  1.00  0.00     0.017 A 
HETATM   11  C   UNL     1      24.307  49.118  48.628  1.00  0.00    -0.035 A 
HETATM   12  C   UNL     1      23.145  48.368  48.425  1.00  0.00     0.016 A 
HETATM   13  C   UNL     1      24.154  50.452  47.975  1.00  0.00     0.055 C 
HETATM   14  N   UNL     1      22.196  49.059  47.657  1.00  0.00    -0.287 NA
HETATM   15  C   UNL     1      23.067  47.079  48.922  1.00  0.00     0.025 A 
HETATM   16  C   UNL     1      20.787  48.777  47.868  1.00  0.00     0.116 C 
HETATM   17  C   UNL     1      22.635  50.466  47.725  1.00  0.00     0.100 C 
HETATM   18  C   UNL     1      24.158  46.549  49.620  1.00  0.00     0.011 A 
ENDBRANCH   8   9
ENDBRANCH   1   8
BRANCH   5  19
HETATM   19  C   UNL     1      28.194  43.027  53.250  1.00  0.00     0.108 A 
HETATM   20  N   UNL     1      28.495  43.460  54.455  1.00  0.00    -0.229 NA
HETATM   21  C   UNL     1      29.884  43.426  54.552  1.00  0.00     0.157 A 
HETATM   22  C   UNL     1      30.402  42.948  53.362  1.00  0.00     0.126 A 
HETATM   23  N   UNL     1      29.330  42.698  52.551  1.00  0.00    -0.352 N 
HETATM   24  H   UNL     1      29.371  42.343  51.603  1.00  0.00     0.166 HD
BRANCH  21  25
HETATM   25  C   UNL     1      30.624  43.863  55.788  1.00  0.00     0.436 C 
HETATM   26  F   UNL     1      31.781  44.512  55.488  1.00  0.00    -0.165 F 
HETATM   27  F   UNL     1      29.882  44.709  56.546  1.00  0.00    -0.165 F 
HETATM   28  F   UNL     1      30.957  42.808  56.575  1.00  0.00    -0.165 F 
ENDBRANCH  21  25
ENDBRANCH   5  19
TORSDOF 4
ENDMDL
MODEL 5
REMARK VINA RESULT:      -8.1      4.441      9.345
REMARK  4 active torsions:
REMARK  status: ('A' for Active; 'I' for Inactive)
REMARK    1  A    between atoms: C_6  and  C_7 
REMARK    2  A    between atoms: C_7  and  N_8 
REMARK    3  A    between atoms: C_12  and  C_13 
REMARK    4  A    between atoms: C_15  and  C_16 
ROOT
HETATM    1  N   UNL     1      25.258  46.123  51.937  1.00  0.00    -0.067 N 
HETATM    2  H   UNL     1      24.281  46.406  52.073  1.00  0.00     0.280 HD
HETATM    3  C   UNL     1      25.417  44.746  52.543  1.00  0.00     0.236 C 
HETATM    4  C   UNL     1      25.136  44.799  54.041  1.00  0.00     0.040 C 
HETATM    5  C   UNL     1      25.989  45.835  54.779  1.00  0.00     0.058 C 
HETATM    6  C   UNL     1      25.875  47.201  54.094  1.00  0.00     0.040 C 
HETATM    7  C   UNL     1      26.150  47.145  52.597  1.00  0.00     0.236 C 
ENDROOT
BRANCH   1   8
HETATM    8  C   UNL     1      25.488  46.115  50.435  1.00  0.00     0.273 C 
BRANCH   8   9
HETATM    9  C   UNL     1      24.399  46.809  49.663  1.00  0.00    -0.032 A 
HETATM   10  C   UNL     1      24.475  48.190  49.428  1.00  0.00     0.017 A 
HETATM   11  C   UNL     1      23.485  48.786  48.661  1.00  0.00    -0.035 A 
HETATM   12  C   UNL     1      22.428  48.056  48.111  1.00  0.00     0.016 A 
HETATM   13  C   UNL     1      23.370  50.214  48.242  1.00  0.00     0.055 C 
HETATM   14  N   UNL     1      21.592  48.854  47.316  1.00  0.00    -0.287 NA
HETATM   15  C   UNL     1      22.341  46.695  48.343  1.00  0.00     0.025 A 
HETATM   16  C   UNL     1      20.187  48.499  47.203  1.00  0.00     0.116 C 
HETATM   17  C   UNL     1      21.923  50.234  47.718  1.00  0.00     0.100 C 
HETATM   18  C   UNL     1      23.320  46.072  49.127  1.00  0.00     0.011 A 
ENDBRANCH   8   9
ENDBRANCH   1   8
BRANCH   5  19
HETATM   19  C   UNL     1      27.417  45.388  54.861  1.00  0.00     0.108 A 
HETATM   20  N   UNL     1      27.876  44.214  54.483  1.00  0.00    -0.229 NA
HETATM   21  C   UNL     1      29.241  44.216  54.758  1.00  0.00     0.157 A 
HETATM   22  C   UNL     1      29.583  45.439  55.307  1.00  0.00     0.126 A 
HETATM   23  N   UNL     1      28.428  46.169  55.364  1.00  0.00    -0.352 N 
HETATM   24  H   UNL     1      28.338  47.112  55.724  1.00  0.00     0.166 HD
BRANCH  21  25
HETATM   25  C   UNL     1      30.129  43.034  54.478  1.00  0.00     0.436 C 
HETATM   26  F   UNL     1      31.131  42.919  55.391  1.00  0.00    -0.165 F 
HETATM   27  F   UNL     1      29.436  41.867  54.503  1.00  0.00    -0.165 F 
HETATM   28  F   UNL     1      30.717  43.123  53.257  1.00  0.00    -0.165 F 
ENDBRANCH  21  25
ENDBRANCH   5  19
TORSDOF 4
ENDMDL
MODEL 6
REMARK VINA RESULT:      -8.1      4.486      9.409
REMARK  4 active torsions:
REMARK  status: ('A' for Active; 'I' for Inactive)
REMARK    1  A    between atoms: C_6  and  C_7 
REMARK    2  A    between atoms: C_7  and  N_8 
REMARK    3  A    between atoms: C_12  and  C_13 
REMARK    4  A    between atoms: C_15  and  C_16 
ROOT
HETATM    1  N   UNL     1      25.231  45.708  50.014  1.00  0.00    -0.067 N 
HETATM    2  H   UNL     1      24.770  45.417  49.145  1.00  0.00     0.280 HD
HETATM    3  C   UNL     1      26.676  45.266  49.928  1.00  0.00     0.236 C 
HETATM    4  C   UNL     1      26.750  43.746  49.828  1.00  0.00     0.040 C 
HETATM    5  C   UNL     1      26.014  43.029  50.964  1.00  0.00     0.058 C 
HETATM    6  C   UNL     1      24.581  43.556  51.084  1.00  0.00     0.040 C 
HETATM    7  C   UNL     1      24.507  45.076  51.176  1.00  0.00     0.236 C 
ENDROOT
BRANCH   1   8
HETATM    8  C   UNL     1      25.101  47.221  50.073  1.00  0.00     0.273 C 
BRANCH   8   9
HETATM    9  C   UNL     1      23.852  47.736  49.410  1.00  0.00    -0.032 A 
HETATM   10  C   UNL     1      23.584  49.113  49.391  1.00  0.00     0.017 A 
HETATM   11  C   UNL     1      22.456  49.557  48.719  1.00  0.00    -0.035 A 
HETATM   12  C   UNL     1      21.589  48.683  48.056  1.00  0.00     0.016 A 
HETATM   13  C   UNL     1      21.984  50.961  48.525  1.00  0.00     0.055 C 
HETATM   14  N   UNL     1      20.560  49.363  47.389  1.00  0.00    -0.287 NA
HETATM   15  C   UNL     1      21.843  47.323  48.075  1.00  0.00     0.025 A 
HETATM   16  C   UNL     1      19.281  48.697  47.213  1.00  0.00     0.116 C 
HETATM   17  C   UNL     1      20.560  50.705  48.000  1.00  0.00     0.100 C 
HETATM   18  C   UNL     1      22.968  46.848  48.760  1.00  0.00     0.011 A 
ENDBRANCH   8   9
ENDBRANCH   1   8
BRANCH   5  19
HETATM   19  C   UNL     1      26.756  43.181  52.258  1.00  0.00     0.108 A 
HETATM   20  N   UNL     1      28.064  43.202  52.394  1.00  0.00    -0.229 NA
HETATM   21  C   UNL     1      28.318  43.334  53.757  1.00  0.00     0.157 A 
HETATM   22  C   UNL     1      27.112  43.398  54.431  1.00  0.00     0.126 A 
HETATM   23  N   UNL     1      26.136  43.303  53.477  1.00  0.00    -0.352 N 
HETATM   24  H   UNL     1      25.137  43.312  53.646  1.00  0.00     0.166 HD
BRANCH  21  25
HETATM   25  C   UNL     1      29.712  43.384  54.324  1.00  0.00     0.436 C 
HETATM   26  F   UNL     1      29.990  44.587  54.894  1.00  0.00    -0.165 F 
HETATM   27  F   UNL     1      29.898  42.440  55.283  1.00  0.00    -0.165 F 
HETATM   28  F   UNL     1      30.653  43.173  53.368  1.00  0.00    -0.165 F 
ENDBRANCH  21  25
ENDBRANCH   5  19
TORSDOF 4
ENDMDL
MODEL 7
REMARK VINA RESULT:      -8.0     12.423     14.837
REMARK  4 active torsions:
REMARK  status: ('A' for Active; 'I' for Inactive)
REMARK    1  A    between atoms: C_6  and  C_7 
REMARK    2  A    between atoms: C_7  and  N_8 
REMARK    3  A    between atoms: C_12  and  C_13 
REMARK    4  A    between atoms: C_15  and  C_16 
ROOT
HETATM    1  N   UNL     1      31.836  53.106  41.165  1.00  0.00    -0.067 N 
HETATM    2  H   UNL     1      32.448  53.889  41.419  1.00  0.00     0.280 HD
HETATM    3  C   UNL     1      31.702  52.223  42.386  1.00  0.00     0.236 C 
HETATM    4  C   UNL     1      33.066  51.660  42.774  1.00  0.00     0.040 C 
HETATM    5  C   UNL     1      33.765  50.924  41.626  1.00  0.00     0.058 C 
HETATM    6  C   UNL     1      33.809  51.810  40.378  1.00  0.00     0.040 C 
HETATM    7  C   UNL     1      32.448  52.378  39.995  1.00  0.00     0.236 C 
ENDROOT
BRANCH   1   8
HETATM    8  C   UNL     1      30.508  53.726  40.763  1.00  0.00     0.273 C 
BRANCH   8   9
HETATM    9  C   UNL     1      29.520  52.721  40.234  1.00  0.00    -0.032 A 
HETATM   10  C   UNL     1      28.996  51.736  41.085  1.00  0.00     0.017 A 
HETATM   11  C   UNL     1      28.042  50.866  40.579  1.00  0.00    -0.035 A 
HETATM   12  C   UNL     1      27.582  50.946  39.261  1.00  0.00     0.016 A 
HETATM   13  C   UNL     1      27.314  49.773  41.290  1.00  0.00     0.055 C 
HETATM   14  N   UNL     1      26.570  50.012  38.997  1.00  0.00    -0.287 NA
HETATM   15  C   UNL     1      28.098  51.910  38.414  1.00  0.00     0.025 A 
HETATM   16  C   UNL     1      26.426  49.501  37.644  1.00  0.00     0.116 C 
HETATM   17  C   UNL     1      26.685  49.034  40.095  1.00  0.00     0.100 C 
HETATM   18  C   UNL     1      29.074  52.792  38.896  1.00  0.00     0.011 A 
ENDBRANCH   8   9
ENDBRANCH   1   8
BRANCH   5  19
HETATM   19  C   UNL     1      33.085  49.620  41.340  1.00  0.00     0.108 A 
HETATM   20  N   UNL     1      31.902  49.477  40.781  1.00  0.00    -0.229 NA
HETATM   21  C   UNL     1      31.651  48.109  40.729  1.00  0.00     0.157 A 
HETATM   22  C   UNL     1      32.732  47.437  41.271  1.00  0.00     0.126 A 
HETATM   23  N   UNL     1      33.628  48.397  41.649  1.00  0.00    -0.352 N 
HETATM   24  H   UNL     1      34.527  48.232  42.088  1.00  0.00     0.166 HD
BRANCH  21  25
HETATM   25  C   UNL     1      30.379  47.535  40.164  1.00  0.00     0.436 C 
HETATM   26  F   UNL     1      30.567  46.297  39.634  1.00  0.00    -0.165 F 
HETATM   27  F   UNL     1      29.416  47.416  41.114  1.00  0.00    -0.165 F 
HETATM   28  F   UNL     1      29.871  48.314  39.175  1.00  0.00    -0.165 F 
ENDBRANCH  21  25
ENDBRANCH   5  19
TORSDOF 4
ENDMDL
MODEL 8
REMARK VINA RESULT:      -7.7     12.582     13.627
REMARK  4 active torsions:
REMARK  status: ('A' for Active; 'I' for Inactive)
REMARK    1  A    between atoms: C_6  and  C_7 
REMARK    2  A    between atoms: C_7  and  N_8 
REMARK    3  A    between atoms: C_12  and  C_13 
REMARK    4  A    between atoms: C_15  and  C_16 
ROOT
HETATM    1  N   UNL     1      30.446  51.209  41.139  1.00  0.00    -0.067 N 
HETATM    2  H   UNL     1      30.989  52.078  41.183  1.00  0.00     0.280 HD
HETATM    3  C   UNL     1      30.472  50.733  39.703  1.00  0.00     0.236 C 
HETATM    4  C   UNL     1      29.803  51.764  38.800  1.00  0.00     0.040 C 
HETATM    5  C   UNL     1      28.381  52.123  39.243  1.00  0.00     0.058 C 
HETATM    6  C   UNL     1      28.372  52.519  40.723  1.00  0.00     0.040 C 
HETATM    7  C   UNL     1      29.046  51.492  41.624  1.00  0.00     0.236 C 
ENDROOT
BRANCH   1   8
HETATM    8  C   UNL     1      31.140  50.233  42.075  1.00  0.00     0.273 C 
BRANCH   8   9
HETATM    9  C   UNL     1      32.518  50.678  42.483  1.00  0.00    -0.032 A 
HETATM   10  C   UNL     1      33.633  50.304  41.717  1.00  0.00     0.017 A 
HETATM   11  C   UNL     1      34.880  50.784  42.088  1.00  0.00    -0.035 A 
HETATM   12  C   UNL     1      35.058  51.630  43.186  1.00  0.00     0.016 A 
HETATM   13  C   UNL     1      36.196  50.563  41.417  1.00  0.00     0.055 C 
HETATM   14  N   UNL     1      36.391  52.043  43.325  1.00  0.00    -0.287 NA
HETATM   15  C   UNL     1      33.965  51.999  43.950  1.00  0.00     0.025 A 
HETATM   16  C   UNL     1      36.894  52.349  44.653  1.00  0.00     0.116 C 
HETATM   17  C   UNL     1      37.153  51.083  42.504  1.00  0.00     0.100 C 
HETATM   18  C   UNL     1      32.697  51.516  43.605  1.00  0.00     0.011 A 
ENDBRANCH   8   9
ENDBRANCH   1   8
BRANCH   5  19
HETATM   19  C   UNL     1      27.439  50.988  38.981  1.00  0.00     0.108 A 
HETATM   20  N   UNL     1      27.474  50.188  37.937  1.00  0.00    -0.229 NA
HETATM   21  C   UNL     1      26.411  49.301  38.083  1.00  0.00     0.157 A 
HETATM   22  C   UNL     1      25.743  49.595  39.258  1.00  0.00     0.126 A 
HETATM   23  N   UNL     1      26.401  50.656  39.816  1.00  0.00    -0.352 N 
HETATM   24  H   UNL     1      26.156  51.117  40.684  1.00  0.00     0.166 HD
BRANCH  21  25
HETATM   25  C   UNL     1      26.101  48.227  37.074  1.00  0.00     0.436 C 
HETATM   26  F   UNL     1      27.071  47.275  37.026  1.00  0.00    -0.165 F 
HETATM   27  F   UNL     1      24.936  47.590  37.359  1.00  0.00    -0.165 F 
HETATM   28  F   UNL     1      25.984  48.733  35.820  1.00  0.00    -0.165 F 
ENDBRANCH  21  25
ENDBRANCH   5  19
TORSDOF 4
ENDMDL
MODEL 9
REMARK VINA RESULT:      -7.7      5.852      7.159
REMARK  4 active torsions:
REMARK  status: ('A' for Active; 'I' for Inactive)
REMARK    1  A    between atoms: C_6  and  C_7 
REMARK    2  A    between atoms: C_7  and  N_8 
REMARK    3  A    between atoms: C_12  and  C_13 
REMARK    4  A    between atoms: C_15  and  C_16 
ROOT
HETATM    1  N   UNL     1      25.429  44.045  51.617  1.00  0.00    -0.067 N 
HETATM    2  H   UNL     1      25.174  44.957  51.221  1.00  0.00     0.280 HD
HETATM    3  C   UNL     1      26.876  43.786  51.256  1.00  0.00     0.236 C 
HETATM    4  C   UNL     1      27.030  43.713  49.741  1.00  0.00     0.040 C 
HETATM    5  C   UNL     1      26.100  42.687  49.087  1.00  0.00     0.058 C 
HETATM    6  C   UNL     1      24.654  42.920  49.536  1.00  0.00     0.040 C 
HETATM    7  C   UNL     1      24.501  42.999  51.050  1.00  0.00     0.236 C 
ENDROOT
BRANCH   1   8
HETATM    8  C   UNL     1      25.230  44.167  53.118  1.00  0.00     0.273 C 
BRANCH   8   9
HETATM    9  C   UNL     1      26.511  44.405  53.870  1.00  0.00    -0.032 A 
HETATM   10  C   UNL     1      27.484  43.396  53.937  1.00  0.00     0.017 A 
HETATM   11  C   UNL     1      28.678  43.672  54.586  1.00  0.00    -0.035 A 
HETATM   12  C   UNL     1      28.945  44.918  55.161  1.00  0.00     0.016 A 
HETATM   13  C   UNL     1      29.870  42.787  54.752  1.00  0.00     0.055 C 
HETATM   14  N   UNL     1      30.239  44.987  55.697  1.00  0.00    -0.287 NA
HETATM   15  C   UNL     1      27.988  45.916  55.105  1.00  0.00     0.025 A 
HETATM   16  C   UNL     1      30.480  45.862  56.832  1.00  0.00     0.116 C 
HETATM   17  C   UNL     1      30.657  43.577  55.812  1.00  0.00     0.100 C 
HETATM   18  C   UNL     1      26.768  45.658  54.469  1.00  0.00     0.011 A 
ENDBRANCH   8   9
ENDBRANCH   1   8
BRANCH   5  19
HETATM   19  C   UNL     1      26.545  41.290  49.400  1.00  0.00     0.108 A 
HETATM   20  N   UNL     1      27.787  40.910  49.610  1.00  0.00    -0.229 NA
HETATM   21  C   UNL     1      27.746  39.537  49.838  1.00  0.00     0.157 A 
HETATM   22  C   UNL     1      26.433  39.111  49.764  1.00  0.00     0.126 A 
HETATM   23  N   UNL     1      25.685  40.223  49.490  1.00  0.00    -0.352 N 
HETATM   24  H   UNL     1      24.680  40.249  49.368  1.00  0.00     0.166 HD
BRANCH  21  25
HETATM   25  C   UNL     1      28.982  38.719  50.107  1.00  0.00     0.436 C 
HETATM   26  F   UNL     1      29.583  39.070  51.275  1.00  0.00    -0.165 F 
HETATM   27  F   UNL     1      28.699  37.394  50.189  1.00  0.00    -0.165 F 
HETATM   28  F   UNL     1      29.909  38.870  49.126  1.00  0.00    -0.165 F 
ENDBRANCH  21  25
ENDBRANCH   5  19
TORSDOF 4
ENDMDL
MODEL 10
REMARK VINA RESULT:      -7.7     11.968     13.016
REMARK  4 active torsions:
REMARK  status: ('A' for Active; 'I' for Inactive)
REMARK    1  A    between atoms: C_6  and  C_7 
REMARK    2  A    between atoms: C_7  and  N_8 
REMARK    3  A    between atoms: C_12  and  C_13 
REMARK    4  A    between atoms: C_15  and  C_16 
ROOT
HETATM    1  N   UNL     1      29.889  47.534  40.180  1.00  0.00    -0.067 N 
HETATM    2  H   UNL     1      29.495  46.663  39.807  1.00  0.00     0.280 HD
HETATM    3  C   UNL     1      28.987  47.989  41.308  1.00  0.00     0.236 C 
HETATM    4  C   UNL     1      27.590  48.282  40.772  1.00  0.00     0.040 C 
HETATM    5  C   UNL     1      27.584  49.285  39.614  1.00  0.00     0.058 C 
HETATM    6  C   UNL     1      28.568  48.844  38.526  1.00  0.00     0.040 C 
HETATM    7  C   UNL     1      29.962  48.545  39.063  1.00  0.00     0.236 C 
ENDROOT
BRANCH   1   8
HETATM    8  C   UNL     1      31.285  47.189  40.671  1.00  0.00     0.273 C 
BRANCH   8   9
HETATM    9  C   UNL     1      31.961  48.328  41.386  1.00  0.00    -0.032 A 
HETATM   10  C   UNL     1      33.219  48.778  40.957  1.00  0.00     0.017 A 
HETATM   11  C   UNL     1      33.784  49.869  41.601  1.00  0.00    -0.035 A 
HETATM   12  C   UNL     1      33.140  50.534  42.647  1.00  0.00     0.016 A 
HETATM   13  C   UNL     1      35.079  50.551  41.304  1.00  0.00     0.055 C 
HETATM   14  N   UNL     1      33.867  51.647  43.094  1.00  0.00    -0.287 NA
HETATM   15  C   UNL     1      31.902  50.093  43.080  1.00  0.00     0.025 A 
HETATM   16  C   UNL     1      33.740  52.054  44.483  1.00  0.00     0.116 C 
HETATM   17  C   UNL     1      35.225  51.427  42.562  1.00  0.00     0.100 C 
HETATM   18  C   UNL     1      31.316  48.984  42.457  1.00  0.00     0.011 A 
ENDBRANCH   8   9
ENDBRANCH   1   8
BRANCH   5  19
HETATM   19  C   UNL     1      27.903  50.665  40.104  1.00  0.00     0.108 A 
HETATM   20  N   UNL     1      28.980  51.357  39.799  1.00  0.00    -0.229 NA
HETATM   21  C   UNL     1      28.882  52.564  40.487  1.00  0.00     0.157 A 
HETATM   22  C   UNL     1      27.703  52.571  41.210  1.00  0.00     0.126 A 
HETATM   23  N   UNL     1      27.095  51.372  40.960  1.00  0.00    -0.352 N 
HETATM   24  H   UNL     1      26.210  51.062  41.345  1.00  0.00     0.166 HD
BRANCH  21  25
HETATM   25  C   UNL     1      29.938  53.634  40.409  1.00  0.00     0.436 C 
HETATM   26  F   UNL     1      29.454  54.794  39.891  1.00  0.00    -0.165 F 
HETATM   27  F   UNL     1      30.446  53.929  41.633  1.00  0.00    -0.165 F 
HETATM   28  F   UNL     1      30.980  53.257  39.624  1.00  0.00    -0.165 F 
ENDBRANCH  21  25
ENDBRANCH   5  19
TORSDOF 4
ENDMDL
