MODEL 1
REMARK VINA RESULT:      -6.7      0.000      0.000
REMARK  7 active torsions:
REMARK  status: ('A' for Active; 'I' for Inactive)
REMARK    1  A    between atoms: C_2  and  C_3 
REMARK    2  A    between atoms: C_3  and  N_4 
REMARK    3  A    between atoms: C_7  and  C_8 
REMARK       I    between atoms: C_8  and  N_9 
REMARK    4  A    between atoms: N_9  and  C_10 
REMARK    5  A    between atoms: C_11  and  O_12 
REMARK    6  A    between atoms: C_16  and  C_17 
REMARK       I    between atoms: C_17  and  N_18 
REMARK    7  A    between atoms: C_23  and  C_24 
ROOT
HETATM    1  C   UNL     1      20.369  46.432  48.463  1.00  0.00     0.259 C 
HETATM    2  N   UNL     1      20.883  47.463  49.210  1.00  0.00    -0.320 N 
HETATM    3  O   UNL     1      19.400  45.830  48.929  1.00  0.00    -0.267 OA
HETATM    4  H   UNL     1      20.613  47.391  50.187  1.00  0.00     0.169 HD
ENDROOT
BRANCH   2   5
HETATM    5  C   UNL     1      21.697  48.572  48.915  1.00  0.00     0.069 A 
HETATM    6  C   UNL     1      21.028  49.792  48.674  1.00  0.00     0.095 A 
HETATM    7  C   UNL     1      21.758  50.941  48.366  1.00  0.00     0.040 A 
HETATM    8  C   UNL     1      23.149  50.874  48.281  1.00  0.00     0.020 A 
HETATM    9  C   UNL     1      23.814  49.657  48.474  1.00  0.00     0.034 A 
HETATM   10  C   UNL     1      23.088  48.502  48.799  1.00  0.00     0.049 A 
BRANCH   6  11
HETATM   11  O   UNL     1      19.657  49.748  48.760  1.00  0.00    -0.354 OA
HETATM   12  C   UNL     1      19.061  50.635  49.702  1.00  0.00     0.210 C 
ENDBRANCH   6  11
BRANCH   9  13
HETATM   13  C   UNL     1      25.291  49.647  48.308  1.00  0.00     0.251 C 
HETATM   14  N   UNL     1      26.000  48.869  49.202  1.00  0.00    -0.361 N 
HETATM   15  C   UNL     1      27.415  48.659  49.017  1.00  0.00     0.149 C 
HETATM   16  H   UNL     1      25.499  48.213  49.785  1.00  0.00     0.162 HD
HETATM   17  O   UNL     1      25.808  50.257  47.379  1.00  0.00    -0.268 OA
ENDBRANCH   9  13
ENDBRANCH   2   5
BRANCH   1  18
HETATM   18  C   UNL     1      21.049  45.982  47.252  1.00  0.00     0.076 A 
HETATM   19  C   UNL     1      20.942  46.516  45.948  1.00  0.00     0.158 A 
HETATM   20  N   UNL     1      21.758  45.935  45.074  1.00  0.00    -0.183 NA
HETATM   21  N   UNL     1      22.444  45.036  45.813  1.00  0.00    -0.268 N 
HETATM   22  C   UNL     1      22.109  45.079  47.147  1.00  0.00     0.052 A 
BRANCH  21  23
HETATM   23  C   UNL     1      23.328  44.125  45.094  1.00  0.00     0.106 C 
HETATM   24  C   UNL     1      23.637  44.666  43.697  1.00  0.00     0.034 C 
BRANCH  23  25
HETATM   25  C   UNL     1      22.776  42.685  45.020  1.00  0.00     0.022 C 
HETATM   26  C   UNL     1      23.850  41.634  45.280  1.00  0.00     0.007 C 
ENDBRANCH  23  25
ENDBRANCH  21  23
BRANCH  22  27
HETATM   27  C   UNL     1      22.735  44.389  48.362  1.00  0.00     0.038 A 
HETATM   28  C   UNL     1      24.020  43.610  48.422  1.00  0.00     0.011 A 
HETATM   29  C   UNL     1      24.001  45.026  48.896  1.00  0.00     0.011 A 
ENDBRANCH  22  27
ENDBRANCH   1  18
TORSDOF 7
ENDMDL
MODEL 2
REMARK VINA RESULT:      -6.7      9.330     11.567
REMARK  7 active torsions:
REMARK  status: ('A' for Active; 'I' for Inactive)
REMARK    1  A    between atoms: C_2  and  C_3 
REMARK    2  A    between atoms: C_3  and  N_4 
REMARK    3  A    between atoms: C_7  and  C_8 
REMARK       I    between atoms: C_8  and  N_9 
REMARK    4  A    between atoms: N_9  and  C_10 
REMARK    5  A    between atoms: C_11  and  O_12 
REMARK    6  A    between atoms: C_16  and  C_17 
REMARK       I    between atoms: C_17  and  N_18 
REMARK    7  A    between atoms: C_23  and  C_24 
ROOT
HETATM    1  C   UNL     1      30.195  51.381  38.066  1.00  0.00     0.259 C 
HETATM    2  N   UNL     1      30.773  52.249  38.958  1.00  0.00    -0.320 N 
HETATM    3  O   UNL     1      30.370  51.608  36.867  1.00  0.00    -0.267 OA
HETATM    4  H   UNL     1      30.994  53.143  38.525  1.00  0.00     0.169 HD
ENDROOT
BRANCH   2   5
HETATM    5  C   UNL     1      31.111  52.169  40.321  1.00  0.00     0.069 A 
HETATM    6  C   UNL     1      30.095  52.518  41.238  1.00  0.00     0.095 A 
HETATM    7  C   UNL     1      30.346  52.475  42.610  1.00  0.00     0.040 A 
HETATM    8  C   UNL     1      31.609  52.103  43.070  1.00  0.00     0.020 A 
HETATM    9  C   UNL     1      32.633  51.799  42.165  1.00  0.00     0.034 A 
HETATM   10  C   UNL     1      32.384  51.826  40.785  1.00  0.00     0.049 A 
BRANCH   6  11
HETATM   11  O   UNL     1      28.894  52.892  40.684  1.00  0.00    -0.354 OA
HETATM   12  C   UNL     1      27.726  52.388  41.324  1.00  0.00     0.210 C 
ENDBRANCH   6  11
BRANCH   9  13
HETATM   13  C   UNL     1      33.970  51.470  42.724  1.00  0.00     0.251 C 
HETATM   14  N   UNL     1      34.759  50.629  41.964  1.00  0.00    -0.361 N 
HETATM   15  C   UNL     1      36.131  50.389  42.337  1.00  0.00     0.149 C 
HETATM   16  H   UNL     1      34.490  50.434  41.010  1.00  0.00     0.162 HD
HETATM   17  O   UNL     1      34.341  51.986  43.773  1.00  0.00    -0.268 OA
ENDBRANCH   9  13
ENDBRANCH   2   5
BRANCH   1  18
HETATM   18  C   UNL     1      29.289  50.335  38.530  1.00  0.00     0.076 A 
HETATM   19  C   UNL     1      27.888  50.262  38.361  1.00  0.00     0.158 A 
HETATM   20  N   UNL     1      27.359  49.137  38.829  1.00  0.00    -0.183 NA
HETATM   21  N   UNL     1      28.424  48.435  39.274  1.00  0.00    -0.268 N 
HETATM   22  C   UNL     1      29.619  49.080  39.047  1.00  0.00     0.052 A 
BRANCH  21  23
HETATM   23  C   UNL     1      28.147  47.194  39.990  1.00  0.00     0.106 C 
HETATM   24  C   UNL     1      27.078  46.378  39.260  1.00  0.00     0.034 C 
BRANCH  23  25
HETATM   25  C   UNL     1      27.754  47.426  41.465  1.00  0.00     0.022 C 
HETATM   26  C   UNL     1      28.581  48.525  42.124  1.00  0.00     0.007 C 
ENDBRANCH  23  25
ENDBRANCH  21  23
BRANCH  22  27
HETATM   27  C   UNL     1      31.064  48.604  39.214  1.00  0.00     0.038 A 
HETATM   28  C   UNL     1      31.851  48.469  40.489  1.00  0.00     0.011 A 
HETATM   29  C   UNL     1      31.236  47.254  39.878  1.00  0.00     0.011 A 
ENDBRANCH  22  27
ENDBRANCH   1  18
TORSDOF 7
ENDMDL
MODEL 3
REMARK VINA RESULT:      -6.7      8.590     12.214
REMARK  7 active torsions:
REMARK  status: ('A' for Active; 'I' for Inactive)
REMARK    1  A    between atoms: C_2  and  C_3 
REMARK    2  A    between atoms: C_3  and  N_4 
REMARK    3  A    between atoms: C_7  and  C_8 
REMARK       I    between atoms: C_8  and  N_9 
REMARK    4  A    between atoms: N_9  and  C_10 
REMARK    5  A    between atoms: C_11  and  O_12 
REMARK    6  A    between atoms: C_16  and  C_17 
REMARK       I    between atoms: C_17  and  N_18 
REMARK    7  A    between atoms: C_23  and  C_24 
ROOT
HETATM    1  C   UNL     1      28.679  51.644  38.519  1.00  0.00     0.259 C 
HETATM    2  N   UNL     1      28.037  50.543  38.009  1.00  0.00    -0.320 N 
HETATM    3  O   UNL     1      28.849  52.598  37.758  1.00  0.00    -0.267 OA
HETATM    4  H   UNL     1      28.072  50.523  36.994  1.00  0.00     0.169 HD
ENDROOT
BRANCH   2   5
HETATM    5  C   UNL     1      27.360  49.453  38.585  1.00  0.00     0.069 A 
HETATM    6  C   UNL     1      28.100  48.258  38.721  1.00  0.00     0.095 A 
HETATM    7  C   UNL     1      27.504  47.125  39.274  1.00  0.00     0.040 A 
HETATM    8  C   UNL     1      26.169  47.173  39.677  1.00  0.00     0.020 A 
HETATM    9  C   UNL     1      25.417  48.341  39.503  1.00  0.00     0.034 A 
HETATM   10  C   UNL     1      26.014  49.488  38.962  1.00  0.00     0.049 A 
BRANCH   6  11
HETATM   11  O   UNL     1      29.399  48.307  38.274  1.00  0.00    -0.354 OA
HETATM   12  C   UNL     1      30.227  47.207  38.639  1.00  0.00     0.210 C 
ENDBRANCH   6  11
BRANCH   9  13
HETATM   13  C   UNL     1      23.985  48.302  39.899  1.00  0.00     0.251 C 
HETATM   14  N   UNL     1      23.328  49.516  39.931  1.00  0.00    -0.361 N 
HETATM   15  C   UNL     1      21.900  49.562  40.135  1.00  0.00     0.149 C 
HETATM   16  H   UNL     1      23.770  50.324  39.516  1.00  0.00     0.162 HD
HETATM   17  O   UNL     1      23.436  47.226  40.114  1.00  0.00    -0.268 OA
ENDBRANCH   9  13
ENDBRANCH   2   5
BRANCH   1  18
HETATM   18  C   UNL     1      29.267  51.607  39.855  1.00  0.00     0.076 A 
HETATM   19  C   UNL     1      28.618  51.806  41.095  1.00  0.00     0.158 A 
HETATM   20  N   UNL     1      29.416  51.624  42.141  1.00  0.00    -0.183 NA
HETATM   21  N   UNL     1      30.596  51.259  41.594  1.00  0.00    -0.268 N 
HETATM   22  C   UNL     1      30.538  51.159  40.223  1.00  0.00     0.052 A 
BRANCH  21  23
HETATM   23  C   UNL     1      31.733  51.129  42.499  1.00  0.00     0.106 C 
HETATM   24  C   UNL     1      31.861  49.690  43.001  1.00  0.00     0.034 C 
BRANCH  23  25
HETATM   25  C   UNL     1      31.679  52.124  43.679  1.00  0.00     0.022 C 
HETATM   26  C   UNL     1      32.818  51.917  44.670  1.00  0.00     0.007 C 
ENDBRANCH  23  25
ENDBRANCH  21  23
BRANCH  22  27
HETATM   27  C   UNL     1      31.552  50.619  39.211  1.00  0.00     0.038 A 
HETATM   28  C   UNL     1      31.972  51.234  37.905  1.00  0.00     0.011 A 
HETATM   29  C   UNL     1      32.847  51.397  39.104  1.00  0.00     0.011 A 
ENDBRANCH  22  27
ENDBRANCH   1  18
TORSDOF 7
ENDMDL
MODEL 4
REMARK VINA RESULT:      -6.6      8.635     12.055
REMARK  7 active torsions:
REMARK  status: ('A' for Active; 'I' for Inactive)
REMARK    1  A    between atoms: C_2  and  C_3 
REMARK    2  A    between atoms: C_3  and  N_4 
REMARK    3  A    between atoms: C_7  and  C_8 
REMARK       I    between atoms: C_8  and  N_9 
REMARK    4  A    between atoms: N_9  and  C_10 
REMARK    5  A    between atoms: C_11  and  O_12 
REMARK    6  A    between atoms: C_16  and  C_17 
REMARK       I    between atoms: C_17  and  N_18 
REMARK    7  A    between atoms: C_23  and  C_24 
ROOT
HETATM    1  C   UNL     1      28.273  49.884  41.448  1.00  0.00     0.259 C 
HETATM    2  N   UNL     1      27.932  49.097  40.375  1.00  0.00    -0.320 N 
HETATM    3  O   UNL     1      27.462  50.746  41.792  1.00  0.00    -0.267 OA
HETATM    4  H   UNL     1      27.214  49.532  39.802  1.00  0.00     0.169 HD
ENDROOT
BRANCH   2   5
HETATM    5  C   UNL     1      28.366  47.845  39.905  1.00  0.00     0.069 A 
HETATM    6  C   UNL     1      29.346  47.863  38.888  1.00  0.00     0.095 A 
HETATM    7  C   UNL     1      29.826  46.666  38.358  1.00  0.00     0.040 A 
HETATM    8  C   UNL     1      29.322  45.451  38.825  1.00  0.00     0.020 A 
HETATM    9  C   UNL     1      28.318  45.428  39.801  1.00  0.00     0.034 A 
HETATM   10  C   UNL     1      27.842  46.627  40.349  1.00  0.00     0.049 A 
BRANCH   6  11
HETATM   11  O   UNL     1      29.760  49.109  38.482  1.00  0.00    -0.354 OA
HETATM   12  C   UNL     1      31.119  49.435  38.754  1.00  0.00     0.210 C 
ENDBRANCH   6  11
BRANCH   9  13
HETATM   13  C   UNL     1      27.786  44.101  40.208  1.00  0.00     0.251 C 
HETATM   14  N   UNL     1      26.411  43.976  40.226  1.00  0.00    -0.361 N 
HETATM   15  C   UNL     1      25.804  42.685  40.440  1.00  0.00     0.149 C 
HETATM   16  H   UNL     1      25.847  44.695  39.795  1.00  0.00     0.162 HD
HETATM   17  O   UNL     1      28.556  43.177  40.445  1.00  0.00    -0.268 OA
ENDBRANCH   9  13
ENDBRANCH   2   5
BRANCH   1  18
HETATM   18  C   UNL     1      29.603  49.794  42.041  1.00  0.00     0.076 A 
HETATM   19  C   UNL     1      30.326  48.627  42.378  1.00  0.00     0.158 A 
HETATM   20  N   UNL     1      31.551  48.879  42.826  1.00  0.00    -0.183 NA
HETATM   21  N   UNL     1      31.661  50.222  42.745  1.00  0.00    -0.268 N 
HETATM   22  C   UNL     1      30.542  50.815  42.205  1.00  0.00     0.052 A 
BRANCH  21  23
HETATM   23  C   UNL     1      32.862  50.824  43.313  1.00  0.00     0.106 C 
HETATM   24  C   UNL     1      32.494  51.873  44.364  1.00  0.00     0.034 C 
BRANCH  23  25
HETATM   25  C   UNL     1      33.800  51.420  42.241  1.00  0.00     0.022 C 
HETATM   26  C   UNL     1      34.073  50.448  41.098  1.00  0.00     0.007 C 
ENDBRANCH  23  25
ENDBRANCH  21  23
BRANCH  22  27
HETATM   27  C   UNL     1      30.283  52.259  41.766  1.00  0.00     0.038 A 
HETATM   28  C   UNL     1      31.246  53.214  41.117  1.00  0.00     0.011 A 
HETATM   29  C   UNL     1      30.252  52.491  40.270  1.00  0.00     0.011 A 
ENDBRANCH  22  27
ENDBRANCH   1  18
TORSDOF 7
ENDMDL
MODEL 5
REMARK VINA RESULT:      -6.6     11.567     14.903
REMARK  7 active torsions:
REMARK  status: ('A' for Active; 'I' for Inactive)
REMARK    1  A    between atoms: C_2  and  C_3 
REMARK    2  A    between atoms: C_3  and  N_4 
REMARK    3  A    between atoms: C_7  and  C_8 
REMARK       I    between atoms: C_8  and  N_9 
REMARK    4  A    between atoms: N_9  and  C_10 
REMARK    5  A    between atoms: C_11  and  O_12 
REMARK    6  A    between atoms: C_16  and  C_17 
REMARK       I    between atoms: C_17  and  N_18 
REMARK    7  A    between atoms: C_23  and  C_24 
ROOT
HETATM    1  C   UNL     1      33.918  49.377  41.270  1.00  0.00     0.259 C 
HETATM    2  N   UNL     1      35.029  49.882  40.639  1.00  0.00    -0.320 N 
HETATM    3  O   UNL     1      33.803  48.151  41.308  1.00  0.00    -0.267 OA
HETATM    4  H   UNL     1      35.443  49.203  40.005  1.00  0.00     0.169 HD
ENDROOT
BRANCH   2   5
HETATM    5  C   UNL     1      35.696  51.119  40.676  1.00  0.00     0.069 A 
HETATM    6  C   UNL     1      36.679  51.270  41.679  1.00  0.00     0.095 A 
HETATM    7  C   UNL     1      37.383  52.468  41.794  1.00  0.00     0.040 A 
HETATM    8  C   UNL     1      37.101  53.522  40.925  1.00  0.00     0.020 A 
HETATM    9  C   UNL     1      36.097  53.395  39.957  1.00  0.00     0.034 A 
HETATM   10  C   UNL     1      35.395  52.187  39.826  1.00  0.00     0.049 A 
BRANCH   6  11
HETATM   11  O   UNL     1      36.865  50.183  42.500  1.00  0.00    -0.354 OA
HETATM   12  C   UNL     1      38.084  50.158  43.236  1.00  0.00     0.210 C 
ENDBRANCH   6  11
BRANCH   9  13
HETATM   13  C   UNL     1      35.808  54.578  39.105  1.00  0.00     0.251 C 
HETATM   14  N   UNL     1      35.179  55.638  39.727  1.00  0.00    -0.361 N 
HETATM   15  C   UNL     1      35.012  56.890  39.031  1.00  0.00     0.149 C 
HETATM   16  H   UNL     1      35.116  55.648  40.735  1.00  0.00     0.162 HD
HETATM   17  O   UNL     1      36.181  54.598  37.937  1.00  0.00    -0.268 OA
ENDBRANCH   9  13
ENDBRANCH   2   5
BRANCH   1  18
HETATM   18  C   UNL     1      32.857  50.269  41.728  1.00  0.00     0.076 A 
HETATM   19  C   UNL     1      32.832  51.056  42.902  1.00  0.00     0.158 A 
HETATM   20  N   UNL     1      31.754  51.827  42.994  1.00  0.00    -0.183 NA
HETATM   21  N   UNL     1      31.077  51.583  41.851  1.00  0.00    -0.268 N 
HETATM   22  C   UNL     1      31.738  50.709  41.018  1.00  0.00     0.052 A 
BRANCH  21  23
HETATM   23  C   UNL     1      29.753  52.183  41.724  1.00  0.00     0.106 C 
HETATM   24  C   UNL     1      28.694  51.106  41.487  1.00  0.00     0.034 C 
BRANCH  23  25
HETATM   25  C   UNL     1      29.689  53.273  40.633  1.00  0.00     0.022 C 
HETATM   26  C   UNL     1      30.892  54.210  40.671  1.00  0.00     0.007 C 
ENDBRANCH  23  25
ENDBRANCH  21  23
BRANCH  22  27
HETATM   27  C   UNL     1      31.450  50.284  39.576  1.00  0.00     0.038 A 
HETATM   28  C   UNL     1      30.687  51.041  38.524  1.00  0.00     0.011 A 
HETATM   29  C   UNL     1      32.180  51.068  38.505  1.00  0.00     0.011 A 
ENDBRANCH  22  27
ENDBRANCH   1  18
TORSDOF 7
ENDMDL
MODEL 6
REMARK VINA RESULT:      -6.5      9.661     12.009
REMARK  7 active torsions:
REMARK  status: ('A' for Active; 'I' for Inactive)
REMARK    1  A    between atoms: C_2  and  C_3 
REMARK    2  A    between atoms: C_3  and  N_4 
REMARK    3  A    between atoms: C_7  and  C_8 
REMARK       I    between atoms: C_8  and  N_9 
REMARK    4  A    between atoms: N_9  and  C_10 
REMARK    5  A    between atoms: C_11  and  O_12 
REMARK    6  A    between atoms: C_16  and  C_17 
REMARK       I    between atoms: C_17  and  N_18 
REMARK    7  A    between atoms: C_23  and  C_24 
ROOT
HETATM    1  C   UNL     1      31.127  50.774  38.452  1.00  0.00     0.259 C 
HETATM    2  N   UNL     1      31.559  51.655  39.412  1.00  0.00    -0.320 N 
HETATM    3  O   UNL     1      31.112  51.176  37.287  1.00  0.00    -0.267 OA
HETATM    4  H   UNL     1      31.502  52.619  39.093  1.00  0.00     0.169 HD
ENDROOT
BRANCH   2   5
HETATM    5  C   UNL     1      32.046  51.510  40.724  1.00  0.00     0.069 A 
HETATM    6  C   UNL     1      31.075  51.384  41.742  1.00  0.00     0.095 A 
HETATM    7  C   UNL     1      31.470  51.244  43.072  1.00  0.00     0.040 A 
HETATM    8  C   UNL     1      32.827  51.247  43.394  1.00  0.00     0.020 A 
HETATM    9  C   UNL     1      33.794  51.417  42.395  1.00  0.00     0.034 A 
HETATM   10  C   UNL     1      33.404  51.542  41.054  1.00  0.00     0.049 A 
BRANCH   6  11
HETATM   11  O   UNL     1      29.766  51.416  41.324  1.00  0.00    -0.354 OA
HETATM   12  C   UNL     1      29.026  52.581  41.677  1.00  0.00     0.210 C 
ENDBRANCH   6  11
BRANCH   9  13
HETATM   13  C   UNL     1      35.218  51.470  42.817  1.00  0.00     0.251 C 
HETATM   14  N   UNL     1      35.971  50.341  42.565  1.00  0.00    -0.361 N 
HETATM   15  C   UNL     1      37.398  50.359  42.780  1.00  0.00     0.149 C 
HETATM   16  H   UNL     1      35.596  49.627  41.956  1.00  0.00     0.162 HD
HETATM   17  O   UNL     1      35.676  52.499  43.301  1.00  0.00    -0.268 OA
ENDBRANCH   9  13
ENDBRANCH   2   5
BRANCH   1  18
HETATM   18  C   UNL     1      30.566  49.481  38.831  1.00  0.00     0.076 A 
HETATM   19  C   UNL     1      31.216  48.412  39.490  1.00  0.00     0.158 A 
HETATM   20  N   UNL     1      30.406  47.397  39.769  1.00  0.00    -0.183 NA
HETATM   21  N   UNL     1      29.197  47.811  39.331  1.00  0.00    -0.268 N 
HETATM   22  C   UNL     1      29.224  49.092  38.827  1.00  0.00     0.052 A 
BRANCH  21  23
HETATM   23  C   UNL     1      28.111  46.837  39.366  1.00  0.00     0.106 C 
HETATM   24  C   UNL     1      27.701  46.539  40.810  1.00  0.00     0.034 C 
BRANCH  23  25
HETATM   25  C   UNL     1      28.446  45.536  38.606  1.00  0.00     0.022 C 
HETATM   26  C   UNL     1      28.433  45.723  37.093  1.00  0.00     0.007 C 
ENDBRANCH  23  25
ENDBRANCH  21  23
BRANCH  22  27
HETATM   27  C   UNL     1      28.091  50.023  38.390  1.00  0.00     0.038 A 
HETATM   28  C   UNL     1      26.659  49.665  38.104  1.00  0.00     0.011 A 
HETATM   29  C   UNL     1      27.012  50.269  39.424  1.00  0.00     0.011 A 
ENDBRANCH  22  27
ENDBRANCH   1  18
TORSDOF 7
ENDMDL
MODEL 7
REMARK VINA RESULT:      -6.5     22.399     23.986
REMARK  7 active torsions:
REMARK  status: ('A' for Active; 'I' for Inactive)
REMARK    1  A    between atoms: C_2  and  C_3 
REMARK    2  A    between atoms: C_3  and  N_4 
REMARK    3  A    between atoms: C_7  and  C_8 
REMARK       I    between atoms: C_8  and  N_9 
REMARK    4  A    between atoms: N_9  and  C_10 
REMARK    5  A    between atoms: C_11  and  O_12 
REMARK    6  A    between atoms: C_16  and  C_17 
REMARK       I    between atoms: C_17  and  N_18 
REMARK    7  A    between atoms: C_23  and  C_24 
ROOT
HETATM    1  C   UNL     1      40.544  45.536  63.979  1.00  0.00     0.259 C 
HETATM    2  N   UNL     1      39.675  46.551  64.293  1.00  0.00    -0.320 N 
HETATM    3  O   UNL     1      41.730  45.839  63.829  1.00  0.00    -0.267 OA
HETATM    4  H   UNL     1      40.052  47.462  64.043  1.00  0.00     0.169 HD
ENDROOT
BRANCH   2   5
HETATM    5  C   UNL     1      38.392  46.596  64.868  1.00  0.00     0.069 A 
HETATM    6  C   UNL     1      37.816  47.877  65.013  1.00  0.00     0.095 A 
HETATM    7  C   UNL     1      36.550  48.015  65.582  1.00  0.00     0.040 A 
HETATM    8  C   UNL     1      35.863  46.883  66.022  1.00  0.00     0.020 A 
HETATM    9  C   UNL     1      36.448  45.615  65.923  1.00  0.00     0.034 A 
HETATM   10  C   UNL     1      37.714  45.468  65.338  1.00  0.00     0.049 A 
BRANCH   6  11
HETATM   11  O   UNL     1      38.582  48.930  64.570  1.00  0.00    -0.354 OA
HETATM   12  C   UNL     1      38.973  49.877  65.558  1.00  0.00     0.210 C 
ENDBRANCH   6  11
BRANCH   9  13
HETATM   13  C   UNL     1      35.685  44.461  66.466  1.00  0.00     0.251 C 
HETATM   14  N   UNL     1      34.633  44.007  65.695  1.00  0.00    -0.361 N 
HETATM   15  C   UNL     1      33.944  42.791  66.053  1.00  0.00     0.149 C 
HETATM   16  H   UNL     1      34.547  44.335  64.743  1.00  0.00     0.162 HD
HETATM   17  O   UNL     1      36.039  43.929  67.513  1.00  0.00    -0.268 OA
ENDBRANCH   9  13
ENDBRANCH   2   5
BRANCH   1  18
HETATM   18  C   UNL     1      40.045  44.196  63.686  1.00  0.00     0.076 A 
HETATM   19  C   UNL     1      39.316  43.770  62.553  1.00  0.00     0.158 A 
HETATM   20  N   UNL     1      39.079  42.463  62.541  1.00  0.00    -0.183 NA
HETATM   21  N   UNL     1      39.694  42.009  63.655  1.00  0.00    -0.268 N 
HETATM   22  C   UNL     1      40.356  43.002  64.340  1.00  0.00     0.052 A 
BRANCH  21  23
HETATM   23  C   UNL     1      39.484  40.606  64.001  1.00  0.00     0.106 C 
HETATM   24  C   UNL     1      39.618  39.720  62.762  1.00  0.00     0.034 C 
BRANCH  23  25
HETATM   25  C   UNL     1      38.138  40.359  64.716  1.00  0.00     0.022 C 
HETATM   26  C   UNL     1      37.374  41.650  64.986  1.00  0.00     0.007 C 
ENDBRANCH  23  25
ENDBRANCH  21  23
BRANCH  22  27
HETATM   27  C   UNL     1      41.316  42.932  65.530  1.00  0.00     0.038 A 
HETATM   28  C   UNL     1      41.248  43.705  66.818  1.00  0.00     0.011 A 
HETATM   29  C   UNL     1      40.756  42.296  66.785  1.00  0.00     0.011 A 
ENDBRANCH  22  27
ENDBRANCH   1  18
TORSDOF 7
ENDMDL
MODEL 8
REMARK VINA RESULT:      -6.3     10.655     13.309
REMARK  7 active torsions:
REMARK  status: ('A' for Active; 'I' for Inactive)
REMARK    1  A    between atoms: C_2  and  C_3 
REMARK    2  A    between atoms: C_3  and  N_4 
REMARK    3  A    between atoms: C_7  and  C_8 
REMARK       I    between atoms: C_8  and  N_9 
REMARK    4  A    between atoms: N_9  and  C_10 
REMARK    5  A    between atoms: C_11  and  O_12 
REMARK    6  A    between atoms: C_16  and  C_17 
REMARK       I    between atoms: C_17  and  N_18 
REMARK    7  A    between atoms: C_23  and  C_24 
ROOT
HETATM    1  C   UNL     1      31.097  52.386  39.978  1.00  0.00     0.259 C 
HETATM    2  N   UNL     1      32.292  52.592  40.622  1.00  0.00    -0.320 N 
HETATM    3  O   UNL     1      30.347  53.357  39.863  1.00  0.00    -0.267 OA
HETATM    4  H   UNL     1      32.268  53.425  41.204  1.00  0.00     0.169 HD
ENDROOT
BRANCH   2   5
HETATM    5  C   UNL     1      33.517  51.901  40.653  1.00  0.00     0.069 A 
HETATM    6  C   UNL     1      33.770  51.130  41.809  1.00  0.00     0.095 A 
HETATM    7  C   UNL     1      34.964  50.419  41.928  1.00  0.00     0.040 A 
HETATM    8  C   UNL     1      35.914  50.486  40.908  1.00  0.00     0.020 A 
HETATM    9  C   UNL     1      35.688  51.285  39.780  1.00  0.00     0.034 A 
HETATM   10  C   UNL     1      34.483  51.990  39.647  1.00  0.00     0.049 A 
BRANCH   6  11
HETATM   11  O   UNL     1      32.783  51.146  42.766  1.00  0.00    -0.354 OA
HETATM   12  C   UNL     1      32.087  49.920  42.966  1.00  0.00     0.210 C 
ENDBRANCH   6  11
BRANCH   9  13
HETATM   13  C   UNL     1      36.767  51.358  38.761  1.00  0.00     0.251 C 
HETATM   14  N   UNL     1      37.518  50.213  38.586  1.00  0.00    -0.361 N 
HETATM   15  C   UNL     1      38.472  50.130  37.506  1.00  0.00     0.149 C 
HETATM   16  H   UNL     1      37.197  49.348  38.997  1.00  0.00     0.162 HD
HETATM   17  O   UNL     1      36.911  52.374  38.090  1.00  0.00    -0.268 OA
ENDBRANCH   9  13
ENDBRANCH   2   5
BRANCH   1  18
HETATM   18  C   UNL     1      30.683  51.040  39.595  1.00  0.00     0.076 A 
HETATM   19  C   UNL     1      31.327  50.155  38.700  1.00  0.00     0.158 A 
HETATM   20  N   UNL     1      30.743  48.964  38.628  1.00  0.00    -0.183 NA
HETATM   21  N   UNL     1      29.727  49.042  39.515  1.00  0.00    -0.268 N 
HETATM   22  C   UNL     1      29.694  50.245  40.181  1.00  0.00     0.052 A 
BRANCH  21  23
HETATM   23  C   UNL     1      28.796  47.919  39.556  1.00  0.00     0.106 C 
HETATM   24  C   UNL     1      29.547  46.605  39.780  1.00  0.00     0.034 C 
BRANCH  23  25
HETATM   25  C   UNL     1      27.899  47.836  38.302  1.00  0.00     0.022 C 
HETATM   26  C   UNL     1      26.414  47.911  38.641  1.00  0.00     0.007 C 
ENDBRANCH  23  25
ENDBRANCH  21  23
BRANCH  22  27
HETATM   27  C   UNL     1      28.853  50.711  41.373  1.00  0.00     0.038 A 
HETATM   28  C   UNL     1      27.754  51.738  41.383  1.00  0.00     0.011 A 
HETATM   29  C   UNL     1      27.399  50.288  41.352  1.00  0.00     0.011 A 
ENDBRANCH  22  27
ENDBRANCH   1  18
TORSDOF 7
ENDMDL
MODEL 9
REMARK VINA RESULT:      -6.3      2.790      4.436
REMARK  7 active torsions:
REMARK  status: ('A' for Active; 'I' for Inactive)
REMARK    1  A    between atoms: C_2  and  C_3 
REMARK    2  A    between atoms: C_3  and  N_4 
REMARK    3  A    between atoms: C_7  and  C_8 
REMARK       I    between atoms: C_8  and  N_9 
REMARK    4  A    between atoms: N_9  and  C_10 
REMARK    5  A    between atoms: C_11  and  O_12 
REMARK    6  A    between atoms: C_16  and  C_17 
REMARK       I    between atoms: C_17  and  N_18 
REMARK    7  A    between atoms: C_23  and  C_24 
ROOT
HETATM    1  C   UNL     1      16.658  48.220  48.277  1.00  0.00     0.259 C 
HETATM    2  N   UNL     1      17.281  49.270  48.906  1.00  0.00    -0.320 N 
HETATM    3  O   UNL     1      15.428  48.176  48.343  1.00  0.00    -0.267 OA
HETATM    4  H   UNL     1      16.685  49.693  49.613  1.00  0.00     0.169 HD
ENDROOT
BRANCH   2   5
HETATM    5  C   UNL     1      18.549  49.867  48.787  1.00  0.00     0.069 A 
HETATM    6  C   UNL     1      18.568  51.271  48.641  1.00  0.00     0.095 A 
HETATM    7  C   UNL     1      19.782  51.945  48.508  1.00  0.00     0.040 A 
HETATM    8  C   UNL     1      20.976  51.223  48.502  1.00  0.00     0.020 A 
HETATM    9  C   UNL     1      20.961  49.826  48.600  1.00  0.00     0.034 A 
HETATM   10  C   UNL     1      19.745  49.144  48.749  1.00  0.00     0.049 A 
BRANCH   6  11
HETATM   11  O   UNL     1      17.338  51.887  48.637  1.00  0.00    -0.354 OA
HETATM   12  C   UNL     1      17.069  52.751  49.737  1.00  0.00     0.210 C 
ENDBRANCH   6  11
BRANCH   9  13
HETATM   13  C   UNL     1      22.265  49.118  48.525  1.00  0.00     0.251 C 
HETATM   14  N   UNL     1      22.566  48.281  49.581  1.00  0.00    -0.361 N 
HETATM   15  C   UNL     1      23.724  47.422  49.519  1.00  0.00     0.149 C 
HETATM   16  H   UNL     1      21.837  48.041  50.240  1.00  0.00     0.162 HD
HETATM   17  O   UNL     1      22.978  49.246  47.535  1.00  0.00    -0.268 OA
ENDBRANCH   9  13
ENDBRANCH   2   5
BRANCH   1  18
HETATM   18  C   UNL     1      17.441  47.132  47.700  1.00  0.00     0.076 A 
HETATM   19  C   UNL     1      17.560  45.803  48.169  1.00  0.00     0.158 A 
HETATM   20  N   UNL     1      18.285  45.027  47.371  1.00  0.00    -0.183 NA
HETATM   21  N   UNL     1      18.615  45.834  46.340  1.00  0.00    -0.268 N 
HETATM   22  C   UNL     1      18.067  47.091  46.451  1.00  0.00     0.052 A 
BRANCH  21  23
HETATM   23  C   UNL     1      19.549  45.300  45.354  1.00  0.00     0.106 C 
HETATM   24  C   UNL     1      19.751  43.798  45.562  1.00  0.00     0.034 C 
BRANCH  23  25
HETATM   25  C   UNL     1      20.902  46.044  45.343  1.00  0.00     0.022 C 
HETATM   26  C   UNL     1      21.611  45.986  46.692  1.00  0.00     0.007 C 
ENDBRANCH  23  25
ENDBRANCH  21  23
BRANCH  22  27
HETATM   27  C   UNL     1      18.020  48.258  45.462  1.00  0.00     0.038 A 
HETATM   28  C   UNL     1      18.277  48.225  43.980  1.00  0.00     0.011 A 
HETATM   29  C   UNL     1      16.869  48.235  44.478  1.00  0.00     0.011 A 
ENDBRANCH  22  27
ENDBRANCH   1  18
TORSDOF 7
ENDMDL
MODEL 10
REMARK VINA RESULT:      -6.3     21.814     24.302
REMARK  7 active torsions:
REMARK  status: ('A' for Active; 'I' for Inactive)
REMARK    1  A    between atoms: C_2  and  C_3 
REMARK    2  A    between atoms: C_3  and  N_4 
REMARK    3  A    between atoms: C_7  and  C_8 
REMARK       I    between atoms: C_8  and  N_9 
REMARK    4  A    between atoms: N_9  and  C_10 
REMARK    5  A    between atoms: C_11  and  O_12 
REMARK    6  A    between atoms: C_16  and  C_17 
REMARK       I    between atoms: C_17  and  N_18 
REMARK    7  A    between atoms: C_23  and  C_24 
ROOT
HETATM    1  C   UNL     1      36.703  47.545  64.074  1.00  0.00     0.259 C 
HETATM    2  N   UNL     1      37.118  46.307  63.650  1.00  0.00    -0.320 N 
HETATM    3  O   UNL     1      36.526  48.405  63.209  1.00  0.00    -0.267 OA
HETATM    4  H   UNL     1      37.537  46.346  62.725  1.00  0.00     0.169 HD
ENDROOT
BRANCH   2   5
HETATM    5  C   UNL     1      37.094  45.020  64.218  1.00  0.00     0.069 A 
HETATM    6  C   UNL     1      38.286  44.270  64.120  1.00  0.00     0.095 A 
HETATM    7  C   UNL     1      38.348  42.981  64.648  1.00  0.00     0.040 A 
HETATM    8  C   UNL     1      37.222  42.430  65.260  1.00  0.00     0.020 A 
HETATM    9  C   UNL     1      36.023  43.151  65.320  1.00  0.00     0.034 A 
HETATM   10  C   UNL     1      35.958  44.453  64.804  1.00  0.00     0.049 A 
BRANCH   6  11
HETATM   11  O   UNL     1      39.331  44.894  63.479  1.00  0.00    -0.354 OA
HETATM   12  C   UNL     1      40.627  44.362  63.736  1.00  0.00     0.210 C 
ENDBRANCH   6  11
BRANCH   9  13
HETATM   13  C   UNL     1      34.846  42.479  65.931  1.00  0.00     0.251 C 
HETATM   14  N   UNL     1      33.990  43.287  66.654  1.00  0.00    -0.361 N 
HETATM   15  C   UNL     1      32.736  42.763  67.138  1.00  0.00     0.149 C 
HETATM   16  H   UNL     1      34.085  44.290  66.581  1.00  0.00     0.162 HD
HETATM   17  O   UNL     1      34.647  41.286  65.729  1.00  0.00    -0.268 OA
ENDBRANCH   9  13
ENDBRANCH   2   5
BRANCH   1  18
HETATM   18  C   UNL     1      36.634  47.855  65.499  1.00  0.00     0.076 A 
HETATM   19  C   UNL     1      35.572  47.591  66.394  1.00  0.00     0.158 A 
HETATM   20  N   UNL     1      35.850  47.922  67.651  1.00  0.00    -0.183 NA
HETATM   21  N   UNL     1      37.123  48.370  67.598  1.00  0.00    -0.268 N 
HETATM   22  C   UNL     1      37.667  48.279  66.338  1.00  0.00     0.052 A 
BRANCH  21  23
HETATM   23  C   UNL     1      37.670  48.954  68.819  1.00  0.00     0.106 C 
HETATM   24  C   UNL     1      37.667  47.929  69.954  1.00  0.00     0.034 C 
BRANCH  23  25
HETATM   25  C   UNL     1      36.945  50.250  69.242  1.00  0.00     0.022 C 
HETATM   26  C   UNL     1      37.147  51.385  68.244  1.00  0.00     0.007 C 
ENDBRANCH  23  25
ENDBRANCH  21  23
BRANCH  22  27
HETATM   27  C   UNL     1      39.100  48.496  65.845  1.00  0.00     0.038 A 
HETATM   28  C   UNL     1      39.553  49.240  64.619  1.00  0.00     0.011 A 
HETATM   29  C   UNL     1      39.620  49.914  65.949  1.00  0.00     0.011 A 
ENDBRANCH  22  27
ENDBRANCH   1  18
TORSDOF 7
ENDMDL
