MODEL 1
REMARK VINA RESULT:      -9.9      0.000      0.000
REMARK  9 active torsions:
REMARK  status: ('A' for Active; 'I' for Inactive)
REMARK    1  A    between atoms: O_2  and  C_3 
REMARK    2  A    between atoms: C_6  and  N_7 
REMARK       I    between atoms: N_7  and  C_8 
REMARK    3  A    between atoms: C_8  and  C_9 
REMARK    4  A    between atoms: C_9  and  N_10 
REMARK    5  A    between atoms: N_10  and  C_12 
REMARK    6  A    between atoms: N_10  and  C_24 
REMARK    7  A    between atoms: C_12  and  S_13 
REMARK    8  A    between atoms: S_13  and  C_14 
REMARK    9  A    between atoms: C_24  and  C_25 
ROOT
HETATM    1  N   UNL     1      24.270  45.695  49.577  1.00  0.00    -0.041 N 
HETATM    2  H   UNL     1      24.659  45.772  48.612  1.00  0.00     0.282 HD
ENDROOT
BRANCH   1   3
HETATM    3  C   UNL     1      25.063  44.447  50.254  1.00  0.00     0.208 C 
HETATM    4  C   UNL     1      26.356  44.212  49.428  1.00  0.00     0.049 C 
HETATM    5  C   UNL     1      27.004  42.822  49.517  1.00  0.00     0.003 C 
HETATM    6  C   UNL     1      26.011  41.671  49.565  1.00  0.00     0.000 C 
HETATM    7  C   UNL     1      24.921  41.901  50.601  1.00  0.00     0.003 C 
HETATM    8  C   UNL     1      24.166  43.192  50.288  1.00  0.00     0.049 C 
BRANCH   3   9
HETATM    9  C   UNL     1      25.310  44.837  51.772  1.00  0.00     0.259 C 
HETATM   10  N   UNL     1      26.541  45.356  52.098  1.00  0.00    -0.325 N 
HETATM   11  H   UNL     1      27.166  45.636  51.360  1.00  0.00     0.169 HD
HETATM   12  O   UNL     1      24.404  44.612  52.577  1.00  0.00    -0.270 OA
BRANCH  10  13
HETATM   13  C   UNL     1      27.102  45.514  53.385  1.00  0.00     0.035 A 
HETATM   14  C   UNL     1      27.912  44.571  54.013  1.00  0.00     0.032 A 
HETATM   15  C   UNL     1      28.492  44.863  55.255  1.00  0.00     0.039 A 
HETATM   16  C   UNL     1      28.277  46.091  55.880  1.00  0.00     0.068 A 
HETATM   17  C   UNL     1      27.444  47.023  55.270  1.00  0.00     0.039 A 
HETATM   18  C   UNL     1      26.863  46.736  54.029  1.00  0.00     0.032 A 
BRANCH  16  19
HETATM   19  O   UNL     1      28.926  46.257  57.072  1.00  0.00    -0.356 OA
HETATM   20  C   UNL     1      30.257  45.762  57.150  1.00  0.00     0.210 C 
ENDBRANCH  16  19
ENDBRANCH  10  13
ENDBRANCH   3   9
ENDBRANCH   1   3
BRANCH   1  21
HETATM   21  C   UNL     1      22.821  45.313  49.293  1.00  0.00     0.318 C 
BRANCH  21  22
HETATM   22  S   UNL     1      22.170  45.843  47.703  1.00  0.00    -0.064 SA
BRANCH  22  23
HETATM   23  C   UNL     1      21.510  47.385  48.066  1.00  0.00     0.169 A 
HETATM   24  N   UNL     1      21.785  48.505  47.450  1.00  0.00    -0.223 NA
HETATM   25  C   UNL     1      21.080  49.461  48.156  1.00  0.00     0.086 A 
HETATM   26  C   UNL     1      20.396  48.889  49.227  1.00  0.00     0.063 A 
HETATM   27  C   UNL     1      20.994  50.846  47.954  1.00  0.00     0.034 A 
HETATM   28  N   UNL     1      20.685  47.552  49.137  1.00  0.00    -0.333 N 
HETATM   29  C   UNL     1      19.624  49.622  50.127  1.00  0.00     0.032 A 
HETATM   30  H   UNL     1      20.363  46.827  49.762  1.00  0.00     0.168 HD
HETATM   31  C   UNL     1      19.556  51.004  49.913  1.00  0.00     0.002 A 
HETATM   32  C   UNL     1      20.226  51.607  48.847  1.00  0.00     0.002 A 
ENDBRANCH  22  23
ENDBRANCH  21  22
ENDBRANCH   1  21
BRANCH   1  33
HETATM   33  C   UNL     1      24.386  47.065  50.226  1.00  0.00     0.275 C 
BRANCH  33  34
HETATM   34  C   UNL     1      25.332  48.070  49.620  1.00  0.00    -0.033 A 
HETATM   35  C   UNL     1      26.721  47.988  49.791  1.00  0.00     0.009 A 
HETATM   36  C   UNL     1      27.567  48.942  49.224  1.00  0.00     0.001 A 
HETATM   37  C   UNL     1      27.040  49.981  48.462  1.00  0.00     0.000 A 
HETATM   38  C   UNL     1      25.667  50.060  48.251  1.00  0.00     0.001 A 
HETATM   39  C   UNL     1      24.819  49.106  48.816  1.00  0.00     0.009 A 
ENDBRANCH  33  34
ENDBRANCH   1  33
TORSDOF 9
ENDMDL
MODEL 2
REMARK VINA RESULT:      -9.3      2.867      8.484
REMARK  9 active torsions:
REMARK  status: ('A' for Active; 'I' for Inactive)
REMARK    1  A    between atoms: O_2  and  C_3 
REMARK    2  A    between atoms: C_6  and  N_7 
REMARK       I    between atoms: N_7  and  C_8 
REMARK    3  A    between atoms: C_8  and  C_9 
REMARK    4  A    between atoms: C_9  and  N_10 
REMARK    5  A    between atoms: N_10  and  C_12 
REMARK    6  A    between atoms: N_10  and  C_24 
REMARK    7  A    between atoms: C_12  and  S_13 
REMARK    8  A    between atoms: S_13  and  C_14 
REMARK    9  A    between atoms: C_24  and  C_25 
ROOT
HETATM    1  N   UNL     1      25.290  45.975  51.322  1.00  0.00    -0.041 N 
HETATM    2  H   UNL     1      24.351  46.389  51.139  1.00  0.00     0.282 HD
ENDROOT
BRANCH   1   3
HETATM    3  C   UNL     1      25.221  44.476  50.694  1.00  0.00     0.208 C 
HETATM    4  C   UNL     1      25.577  43.477  51.828  1.00  0.00     0.049 C 
HETATM    5  C   UNL     1      26.083  42.089  51.410  1.00  0.00     0.003 C 
HETATM    6  C   UNL     1      27.005  42.098  50.201  1.00  0.00     0.000 C 
HETATM    7  C   UNL     1      26.427  42.906  49.048  1.00  0.00     0.003 C 
HETATM    8  C   UNL     1      26.182  44.348  49.493  1.00  0.00     0.049 C 
BRANCH   3   9
HETATM    9  C   UNL     1      23.762  44.303  50.095  1.00  0.00     0.259 C 
HETATM   10  N   UNL     1      23.498  44.909  48.889  1.00  0.00    -0.325 N 
HETATM   11  H   UNL     1      24.264  45.279  48.348  1.00  0.00     0.169 HD
HETATM   12  O   UNL     1      22.939  43.675  50.763  1.00  0.00    -0.270 OA
BRANCH  10  13
HETATM   13  C   UNL     1      22.240  45.143  48.293  1.00  0.00     0.035 A 
HETATM   14  C   UNL     1      21.550  46.352  48.356  1.00  0.00     0.032 A 
HETATM   15  C   UNL     1      20.347  46.509  47.656  1.00  0.00     0.039 A 
HETATM   16  C   UNL     1      19.821  45.472  46.885  1.00  0.00     0.068 A 
HETATM   17  C   UNL     1      20.491  44.253  46.844  1.00  0.00     0.039 A 
HETATM   18  C   UNL     1      21.694  44.093  47.542  1.00  0.00     0.032 A 
BRANCH  16  19
HETATM   19  O   UNL     1      18.658  45.768  46.230  1.00  0.00    -0.356 OA
HETATM   20  C   UNL     1      17.726  44.706  46.069  1.00  0.00     0.210 C 
ENDBRANCH  16  19
ENDBRANCH  10  13
ENDBRANCH   3   9
ENDBRANCH   1   3
BRANCH   1  21
HETATM   21  C   UNL     1      25.305  45.911  52.846  1.00  0.00     0.318 C 
BRANCH  21  22
HETATM   22  S   UNL     1      26.281  47.174  53.672  1.00  0.00    -0.064 SA
BRANCH  22  23
HETATM   23  C   UNL     1      27.525  46.257  54.417  1.00  0.00     0.169 A 
HETATM   24  N   UNL     1      28.316  46.667  55.374  1.00  0.00    -0.223 NA
HETATM   25  C   UNL     1      29.187  45.612  55.567  1.00  0.00     0.086 A 
HETATM   26  C   UNL     1      28.914  44.569  54.683  1.00  0.00     0.063 A 
HETATM   27  C   UNL     1      30.256  45.480  56.467  1.00  0.00     0.034 A 
HETATM   28  N   UNL     1      27.835  45.010  53.963  1.00  0.00    -0.333 N 
HETATM   29  C   UNL     1      29.654  43.388  54.634  1.00  0.00     0.032 A 
HETATM   30  H   UNL     1      27.368  44.512  53.218  1.00  0.00     0.168 HD
HETATM   31  C   UNL     1      30.720  43.278  55.534  1.00  0.00     0.002 A 
HETATM   32  C   UNL     1      31.016  44.303  56.435  1.00  0.00     0.002 A 
ENDBRANCH  22  23
ENDBRANCH  21  22
ENDBRANCH   1  21
BRANCH   1  33
HETATM   33  C   UNL     1      26.329  46.941  50.777  1.00  0.00     0.275 C 
BRANCH  33  34
HETATM   34  C   UNL     1      25.882  48.009  49.812  1.00  0.00    -0.033 A 
HETATM   35  C   UNL     1      24.528  48.254  49.544  1.00  0.00     0.009 A 
HETATM   36  C   UNL     1      24.150  49.245  48.635  1.00  0.00     0.001 A 
HETATM   37  C   UNL     1      25.116  50.017  47.997  1.00  0.00     0.000 A 
HETATM   38  C   UNL     1      26.464  49.812  48.277  1.00  0.00     0.001 A 
HETATM   39  C   UNL     1      26.845  48.823  49.187  1.00  0.00     0.009 A 
ENDBRANCH  33  34
ENDBRANCH   1  33
TORSDOF 9
ENDMDL
MODEL 3
REMARK VINA RESULT:      -9.0      3.207      5.838
REMARK  9 active torsions:
REMARK  status: ('A' for Active; 'I' for Inactive)
REMARK    1  A    between atoms: O_2  and  C_3 
REMARK    2  A    between atoms: C_6  and  N_7 
REMARK       I    between atoms: N_7  and  C_8 
REMARK    3  A    between atoms: C_8  and  C_9 
REMARK    4  A    between atoms: C_9  and  N_10 
REMARK    5  A    between atoms: N_10  and  C_12 
REMARK    6  A    between atoms: N_10  and  C_24 
REMARK    7  A    between atoms: C_12  and  S_13 
REMARK    8  A    between atoms: S_13  and  C_14 
REMARK    9  A    between atoms: C_24  and  C_25 
ROOT
HETATM    1  N   UNL     1      26.612  44.697  50.717  1.00  0.00    -0.041 N 
HETATM    2  H   UNL     1      27.570  44.298  50.611  1.00  0.00     0.282 HD
ENDROOT
BRANCH   1   3
HETATM    3  C   UNL     1      25.625  43.623  49.998  1.00  0.00     0.208 C 
HETATM    4  C   UNL     1      24.951  44.340  48.797  1.00  0.00     0.049 C 
HETATM    5  C   UNL     1      23.631  43.752  48.277  1.00  0.00     0.003 C 
HETATM    6  C   UNL     1      22.703  43.238  49.367  1.00  0.00     0.000 C 
HETATM    7  C   UNL     1      23.427  42.331  50.351  1.00  0.00     0.003 C 
HETATM    8  C   UNL     1      24.585  43.086  51.003  1.00  0.00     0.049 C 
BRANCH   3   9
HETATM    9  C   UNL     1      26.523  42.376  49.603  1.00  0.00     0.259 C 
HETATM   10  N   UNL     1      26.655  41.372  50.534  1.00  0.00    -0.325 N 
HETATM   11  H   UNL     1      26.051  41.369  51.340  1.00  0.00     0.169 HD
HETATM   12  O   UNL     1      27.086  42.399  48.507  1.00  0.00    -0.270 OA
BRANCH  10  13
HETATM   13  C   UNL     1      27.596  40.320  50.547  1.00  0.00     0.035 A 
HETATM   14  C   UNL     1      28.679  40.242  51.419  1.00  0.00     0.032 A 
HETATM   15  C   UNL     1      29.506  39.111  51.410  1.00  0.00     0.039 A 
HETATM   16  C   UNL     1      29.262  38.047  50.540  1.00  0.00     0.068 A 
HETATM   17  C   UNL     1      28.200  38.135  49.646  1.00  0.00     0.039 A 
HETATM   18  C   UNL     1      27.371  39.264  49.653  1.00  0.00     0.032 A 
BRANCH  16  19
HETATM   19  O   UNL     1      30.126  36.994  50.656  1.00  0.00    -0.356 OA
HETATM   20  C   UNL     1      29.877  36.076  51.714  1.00  0.00     0.210 C 
ENDBRANCH  16  19
ENDBRANCH  10  13
ENDBRANCH   3   9
ENDBRANCH   1   3
BRANCH   1  21
HETATM   21  C   UNL     1      26.715  45.968  49.879  1.00  0.00     0.318 C 
BRANCH  21  22
HETATM   22  S   UNL     1      26.321  47.500  50.732  1.00  0.00    -0.064 SA
BRANCH  22  23
HETATM   23  C   UNL     1      25.002  48.107  49.819  1.00  0.00     0.169 A 
HETATM   24  N   UNL     1      24.980  49.230  49.148  1.00  0.00    -0.223 NA
HETATM   25  C   UNL     1      23.688  49.310  48.665  1.00  0.00     0.086 A 
HETATM   26  C   UNL     1      22.928  48.219  49.085  1.00  0.00     0.063 A 
HETATM   27  C   UNL     1      23.082  50.300  47.877  1.00  0.00     0.034 A 
HETATM   28  N   UNL     1      23.803  47.459  49.817  1.00  0.00    -0.333 N 
HETATM   29  C   UNL     1      21.580  48.053  48.769  1.00  0.00     0.032 A 
HETATM   30  H   UNL     1      23.593  46.590  50.287  1.00  0.00     0.168 HD
HETATM   31  C   UNL     1      20.991  49.055  47.988  1.00  0.00     0.002 A 
HETATM   32  C   UNL     1      21.727  50.157  47.548  1.00  0.00     0.002 A 
ENDBRANCH  22  23
ENDBRANCH  21  22
ENDBRANCH   1  21
BRANCH   1  33
HETATM   33  C   UNL     1      26.403  44.997  52.193  1.00  0.00     0.275 C 
BRANCH  33  34
HETATM   34  C   UNL     1      27.514  44.669  53.158  1.00  0.00    -0.033 A 
HETATM   35  C   UNL     1      27.726  45.405  54.332  1.00  0.00     0.009 A 
HETATM   36  C   UNL     1      28.772  45.079  55.198  1.00  0.00     0.001 A 
HETATM   37  C   UNL     1      29.607  44.003  54.914  1.00  0.00     0.000 A 
HETATM   38  C   UNL     1      29.391  43.238  53.771  1.00  0.00     0.001 A 
HETATM   39  C   UNL     1      28.345  43.561  52.904  1.00  0.00     0.009 A 
ENDBRANCH  33  34
ENDBRANCH   1  33
TORSDOF 9
ENDMDL
MODEL 4
REMARK VINA RESULT:      -8.7      2.565      6.581
REMARK  9 active torsions:
REMARK  status: ('A' for Active; 'I' for Inactive)
REMARK    1  A    between atoms: O_2  and  C_3 
REMARK    2  A    between atoms: C_6  and  N_7 
REMARK       I    between atoms: N_7  and  C_8 
REMARK    3  A    between atoms: C_8  and  C_9 
REMARK    4  A    between atoms: C_9  and  N_10 
REMARK    5  A    between atoms: N_10  and  C_12 
REMARK    6  A    between atoms: N_10  and  C_24 
REMARK    7  A    between atoms: C_12  and  S_13 
REMARK    8  A    between atoms: S_13  and  C_14 
REMARK    9  A    between atoms: C_24  and  C_25 
ROOT
HETATM    1  N   UNL     1      26.912  43.672  51.190  1.00  0.00    -0.041 N 
HETATM    2  H   UNL     1      27.934  43.600  50.996  1.00  0.00     0.282 HD
ENDROOT
BRANCH   1   3
HETATM    3  C   UNL     1      26.235  42.458  50.345  1.00  0.00     0.208 C 
HETATM    4  C   UNL     1      26.446  41.151  51.156  1.00  0.00     0.049 C 
HETATM    5  C   UNL     1      26.377  39.825  50.383  1.00  0.00     0.003 C 
HETATM    6  C   UNL     1      27.006  39.875  49.000  1.00  0.00     0.000 C 
HETATM    7  C   UNL     1      26.523  41.073  48.196  1.00  0.00     0.003 C 
HETATM    8  C   UNL     1      26.856  42.368  48.936  1.00  0.00     0.049 C 
BRANCH   3   9
HETATM    9  C   UNL     1      24.716  42.857  50.119  1.00  0.00     0.259 C 
HETATM   10  N   UNL     1      24.368  43.343  48.880  1.00  0.00    -0.325 N 
HETATM   11  H   UNL     1      25.025  43.263  48.120  1.00  0.00     0.169 HD
HETATM   12  O   UNL     1      23.946  42.751  51.076  1.00  0.00    -0.270 OA
BRANCH  10  13
HETATM   13  C   UNL     1      23.182  44.017  48.514  1.00  0.00     0.035 A 
HETATM   14  C   UNL     1      22.085  44.192  49.354  1.00  0.00     0.032 A 
HETATM   15  C   UNL     1      20.990  44.954  48.924  1.00  0.00     0.039 A 
HETATM   16  C   UNL     1      20.976  45.550  47.663  1.00  0.00     0.068 A 
HETATM   17  C   UNL     1      22.057  45.352  46.811  1.00  0.00     0.039 A 
HETATM   18  C   UNL     1      23.154  44.592  47.236  1.00  0.00     0.032 A 
BRANCH  16  19
HETATM   19  O   UNL     1      19.862  46.290  47.383  1.00  0.00    -0.356 OA
HETATM   20  C   UNL     1      19.151  46.822  48.495  1.00  0.00     0.210 C 
ENDBRANCH  16  19
ENDBRANCH  10  13
ENDBRANCH   3   9
ENDBRANCH   1   3
BRANCH   1  21
HETATM   21  C   UNL     1      26.573  45.016  50.552  1.00  0.00     0.318 C 
BRANCH  21  22
HETATM   22  S   UNL     1      25.681  46.175  51.597  1.00  0.00    -0.064 SA
BRANCH  22  23
HETATM   23  C   UNL     1      25.025  47.276  50.458  1.00  0.00     0.169 A 
HETATM   24  N   UNL     1      25.674  48.236  49.851  1.00  0.00    -0.223 NA
HETATM   25  C   UNL     1      24.704  48.886  49.113  1.00  0.00     0.086 A 
HETATM   26  C   UNL     1      23.452  48.308  49.312  1.00  0.00     0.063 A 
HETATM   27  C   UNL     1      24.815  49.997  48.263  1.00  0.00     0.034 A 
HETATM   28  N   UNL     1      23.692  47.270  50.174  1.00  0.00    -0.333 N 
HETATM   29  C   UNL     1      22.283  48.777  48.713  1.00  0.00     0.032 A 
HETATM   30  H   UNL     1      23.005  46.631  50.548  1.00  0.00     0.168 HD
HETATM   31  C   UNL     1      22.412  49.890  47.874  1.00  0.00     0.002 A 
HETATM   32  C   UNL     1      23.653  50.490  47.651  1.00  0.00     0.002 A 
ENDBRANCH  22  23
ENDBRANCH  21  22
ENDBRANCH   1  21
BRANCH   1  33
HETATM   33  C   UNL     1      26.735  43.692  52.699  1.00  0.00     0.275 C 
BRANCH  33  34
HETATM   34  C   UNL     1      27.965  43.770  53.567  1.00  0.00    -0.033 A 
HETATM   35  C   UNL     1      28.124  44.756  54.551  1.00  0.00     0.009 A 
HETATM   36  C   UNL     1      29.282  44.805  55.330  1.00  0.00     0.001 A 
HETATM   37  C   UNL     1      30.288  43.860  55.150  1.00  0.00     0.000 A 
HETATM   38  C   UNL     1      30.132  42.853  54.202  1.00  0.00     0.001 A 
HETATM   39  C   UNL     1      28.975  42.800  53.424  1.00  0.00     0.009 A 
ENDBRANCH  33  34
ENDBRANCH   1  33
TORSDOF 9
ENDMDL
MODEL 5
REMARK VINA RESULT:      -8.6     12.766     15.326
REMARK  9 active torsions:
REMARK  status: ('A' for Active; 'I' for Inactive)
REMARK    1  A    between atoms: O_2  and  C_3 
REMARK    2  A    between atoms: C_6  and  N_7 
REMARK       I    between atoms: N_7  and  C_8 
REMARK    3  A    between atoms: C_8  and  C_9 
REMARK    4  A    between atoms: C_9  and  N_10 
REMARK    5  A    between atoms: N_10  and  C_12 
REMARK    6  A    between atoms: N_10  and  C_24 
REMARK    7  A    between atoms: C_12  and  S_13 
REMARK    8  A    between atoms: S_13  and  C_14 
REMARK    9  A    between atoms: C_24  and  C_25 
ROOT
HETATM    1  N   UNL     1      36.022  51.852  41.512  1.00  0.00    -0.041 N 
HETATM    2  H   UNL     1      35.203  52.466  41.713  1.00  0.00     0.282 HD
ENDROOT
BRANCH   1   3
HETATM    3  C   UNL     1      37.176  52.331  42.553  1.00  0.00     0.208 C 
HETATM    4  C   UNL     1      36.470  52.768  43.865  1.00  0.00     0.049 C 
HETATM    5  C   UNL     1      37.237  53.721  44.793  1.00  0.00     0.003 C 
HETATM    6  C   UNL     1      38.039  54.790  44.066  1.00  0.00     0.000 C 
HETATM    7  C   UNL     1      38.897  54.202  42.955  1.00  0.00     0.003 C 
HETATM    8  C   UNL     1      38.013  53.475  41.942  1.00  0.00     0.049 C 
BRANCH   3   9
HETATM    9  C   UNL     1      38.175  51.109  42.715  1.00  0.00     0.259 C 
HETATM   10  N   UNL     1      38.159  50.436  43.915  1.00  0.00    -0.325 N 
HETATM   11  H   UNL     1      37.412  50.613  44.567  1.00  0.00     0.169 HD
HETATM   12  O   UNL     1      38.937  50.863  41.778  1.00  0.00    -0.270 OA
BRANCH  10  13
HETATM   13  C   UNL     1      39.115  49.521  44.408  1.00  0.00     0.035 A 
HETATM   14  C   UNL     1      38.894  48.155  44.563  1.00  0.00     0.032 A 
HETATM   15  C   UNL     1      39.938  47.319  44.978  1.00  0.00     0.039 A 
HETATM   16  C   UNL     1      41.211  47.829  45.237  1.00  0.00     0.068 A 
HETATM   17  C   UNL     1      41.428  49.198  45.113  1.00  0.00     0.039 A 
HETATM   18  C   UNL     1      40.387  50.037  44.699  1.00  0.00     0.032 A 
BRANCH  16  19
HETATM   19  O   UNL     1      42.144  46.901  45.604  1.00  0.00    -0.356 OA
HETATM   20  C   UNL     1      41.657  45.705  46.200  1.00  0.00     0.210 C 
ENDBRANCH  16  19
ENDBRANCH  10  13
ENDBRANCH   3   9
ENDBRANCH   1   3
BRANCH   1  21
HETATM   21  C   UNL     1      36.379  52.275  40.090  1.00  0.00     0.318 C 
BRANCH  21  22
HETATM   22  S   UNL     1      35.288  53.490  39.339  1.00  0.00    -0.064 SA
BRANCH  22  23
HETATM   23  C   UNL     1      33.765  52.704  39.387  1.00  0.00     0.169 A 
HETATM   24  N   UNL     1      33.409  51.668  38.672  1.00  0.00    -0.223 NA
HETATM   25  C   UNL     1      32.083  51.468  39.004  1.00  0.00     0.086 A 
HETATM   26  C   UNL     1      31.645  52.426  39.917  1.00  0.00     0.063 A 
HETATM   27  C   UNL     1      31.178  50.498  38.547  1.00  0.00     0.034 A 
HETATM   28  N   UNL     1      32.751  53.201  40.151  1.00  0.00    -0.333 N 
HETATM   29  C   UNL     1      30.340  52.483  40.407  1.00  0.00     0.032 A 
HETATM   30  H   UNL     1      32.801  54.004  40.760  1.00  0.00     0.168 HD
HETATM   31  C   UNL     1      29.451  51.511  39.934  1.00  0.00     0.002 A 
HETATM   32  C   UNL     1      29.860  50.536  39.022  1.00  0.00     0.002 A 
ENDBRANCH  22  23
ENDBRANCH  21  22
ENDBRANCH   1  21
BRANCH   1  33
HETATM   33  C   UNL     1      35.539  50.412  41.578  1.00  0.00     0.275 C 
BRANCH  33  34
HETATM   34  C   UNL     1      34.109  50.151  41.978  1.00  0.00    -0.033 A 
HETATM   35  C   UNL     1      33.417  50.985  42.869  1.00  0.00     0.009 A 
HETATM   36  C   UNL     1      32.096  50.706  43.225  1.00  0.00     0.001 A 
HETATM   37  C   UNL     1      31.442  49.604  42.684  1.00  0.00     0.000 A 
HETATM   38  C   UNL     1      32.100  48.785  41.771  1.00  0.00     0.001 A 
HETATM   39  C   UNL     1      33.420  49.062  41.412  1.00  0.00     0.009 A 
ENDBRANCH  33  34
ENDBRANCH   1  33
TORSDOF 9
ENDMDL
MODEL 6
REMARK VINA RESULT:      -8.6      2.280      4.236
REMARK  9 active torsions:
REMARK  status: ('A' for Active; 'I' for Inactive)
REMARK    1  A    between atoms: O_2  and  C_3 
REMARK    2  A    between atoms: C_6  and  N_7 
REMARK       I    between atoms: N_7  and  C_8 
REMARK    3  A    between atoms: C_8  and  C_9 
REMARK    4  A    between atoms: C_9  and  N_10 
REMARK    5  A    between atoms: N_10  and  C_12 
REMARK    6  A    between atoms: N_10  and  C_24 
REMARK    7  A    between atoms: C_12  and  S_13 
REMARK    8  A    between atoms: S_13  and  C_14 
REMARK    9  A    between atoms: C_24  and  C_25 
ROOT
HETATM    1  N   UNL     1      25.453  43.363  50.644  1.00  0.00    -0.041 N 
HETATM    2  H   UNL     1      25.711  43.702  51.596  1.00  0.00     0.282 HD
ENDROOT
BRANCH   1   3
HETATM    3  C   UNL     1      26.461  42.120  50.350  1.00  0.00     0.208 C 
HETATM    4  C   UNL     1      26.949  42.253  48.882  1.00  0.00     0.049 C 
HETATM    5  C   UNL     1      27.473  40.982  48.198  1.00  0.00     0.003 C 
HETATM    6  C   UNL     1      26.696  39.720  48.543  1.00  0.00     0.000 C 
HETATM    7  C   UNL     1      26.498  39.565  50.044  1.00  0.00     0.003 C 
HETATM    8  C   UNL     1      25.747  40.775  50.599  1.00  0.00     0.049 C 
BRANCH   3   9
HETATM    9  C   UNL     1      27.611  42.203  51.439  1.00  0.00     0.259 C 
HETATM   10  N   UNL     1      27.294  42.771  52.651  1.00  0.00    -0.325 N 
HETATM   11  H   UNL     1      26.327  42.945  52.873  1.00  0.00     0.169 HD
HETATM   12  O   UNL     1      28.730  41.796  51.123  1.00  0.00    -0.270 OA
BRANCH  10  13
HETATM   13  C   UNL     1      28.178  43.212  53.660  1.00  0.00     0.035 A 
HETATM   14  C   UNL     1      29.177  42.428  54.231  1.00  0.00     0.032 A 
HETATM   15  C   UNL     1      30.061  42.988  55.163  1.00  0.00     0.039 A 
HETATM   16  C   UNL     1      29.964  44.330  55.531  1.00  0.00     0.068 A 
HETATM   17  C   UNL     1      28.949  45.109  54.986  1.00  0.00     0.039 A 
HETATM   18  C   UNL     1      28.064  44.553  54.054  1.00  0.00     0.032 A 
BRANCH  16  19
HETATM   19  O   UNL     1      30.907  44.756  56.425  1.00  0.00    -0.356 OA
HETATM   20  C   UNL     1      31.678  43.749  57.069  1.00  0.00     0.210 C 
ENDBRANCH  16  19
ENDBRANCH  10  13
ENDBRANCH   3   9
ENDBRANCH   1   3
BRANCH   1  21
HETATM   21  C   UNL     1      25.826  44.564  49.780  1.00  0.00     0.318 C 
BRANCH  21  22
HETATM   22  S   UNL     1      26.310  46.048  50.672  1.00  0.00    -0.064 SA
BRANCH  22  23
HETATM   23  C   UNL     1      25.273  47.240  50.005  1.00  0.00     0.169 A 
HETATM   24  N   UNL     1      23.968  47.174  49.933  1.00  0.00    -0.223 NA
HETATM   25  C   UNL     1      23.609  48.317  49.246  1.00  0.00     0.086 A 
HETATM   26  C   UNL     1      24.734  49.058  48.885  1.00  0.00     0.063 A 
HETATM   27  C   UNL     1      22.339  48.780  48.872  1.00  0.00     0.034 A 
HETATM   28  N   UNL     1      25.787  48.344  49.395  1.00  0.00    -0.333 N 
HETATM   29  C   UNL     1      24.671  50.247  48.158  1.00  0.00     0.032 A 
HETATM   30  H   UNL     1      26.765  48.582  49.315  1.00  0.00     0.168 HD
HETATM   31  C   UNL     1      23.396  50.689  47.788  1.00  0.00     0.002 A 
HETATM   32  C   UNL     1      22.250  49.972  48.138  1.00  0.00     0.002 A 
ENDBRANCH  22  23
ENDBRANCH  21  22
ENDBRANCH   1  21
BRANCH   1  33
HETATM   33  C   UNL     1      23.956  43.098  50.644  1.00  0.00     0.275 C 
BRANCH  33  34
HETATM   34  C   UNL     1      23.210  43.183  49.337  1.00  0.00    -0.033 A 
HETATM   35  C   UNL     1      23.334  42.203  48.341  1.00  0.00     0.009 A 
HETATM   36  C   UNL     1      22.636  42.319  47.138  1.00  0.00     0.001 A 
HETATM   37  C   UNL     1      21.791  43.404  46.919  1.00  0.00     0.000 A 
HETATM   38  C   UNL     1      21.629  44.368  47.910  1.00  0.00     0.001 A 
HETATM   39  C   UNL     1      22.324  44.253  49.115  1.00  0.00     0.009 A 
ENDBRANCH  33  34
ENDBRANCH   1  33
TORSDOF 9
ENDMDL
MODEL 7
REMARK VINA RESULT:      -8.5     12.038     15.853
REMARK  9 active torsions:
REMARK  status: ('A' for Active; 'I' for Inactive)
REMARK    1  A    between atoms: O_2  and  C_3 
REMARK    2  A    between atoms: C_6  and  N_7 
REMARK       I    between atoms: N_7  and  C_8 
REMARK    3  A    between atoms: C_8  and  C_9 
REMARK    4  A    between atoms: C_9  and  N_10 
REMARK    5  A    between atoms: N_10  and  C_12 
REMARK    6  A    between atoms: N_10  and  C_24 
REMARK    7  A    between atoms: C_12  and  S_13 
REMARK    8  A    between atoms: S_13  and  C_14 
REMARK    9  A    between atoms: C_24  and  C_25 
ROOT
HETATM    1  N   UNL     1      36.058  52.575  41.610  1.00  0.00    -0.041 N 
HETATM    2  H   UNL     1      35.427  53.266  42.073  1.00  0.00     0.282 HD
ENDROOT
BRANCH   1   3
HETATM    3  C   UNL     1      35.992  52.939  40.026  1.00  0.00     0.208 C 
HETATM    4  C   UNL     1      37.192  52.237  39.336  1.00  0.00     0.049 C 
HETATM    5  C   UNL     1      37.662  52.808  37.990  1.00  0.00     0.003 C 
HETATM    6  C   UNL     1      37.627  54.326  37.909  1.00  0.00     0.000 C 
HETATM    7  C   UNL     1      36.293  54.891  38.377  1.00  0.00     0.003 C 
HETATM    8  C   UNL     1      36.024  54.467  39.820  1.00  0.00     0.049 C 
BRANCH   3   9
HETATM    9  C   UNL     1      34.567  52.468  39.512  1.00  0.00     0.259 C 
HETATM   10  N   UNL     1      33.471  53.170  39.958  1.00  0.00    -0.325 N 
HETATM   11  H   UNL     1      33.610  54.046  40.435  1.00  0.00     0.169 HD
HETATM   12  O   UNL     1      34.519  51.476  38.782  1.00  0.00    -0.270 OA
BRANCH  10  13
HETATM   13  C   UNL     1      32.111  52.794  39.883  1.00  0.00     0.035 A 
HETATM   14  C   UNL     1      31.595  51.883  38.965  1.00  0.00     0.032 A 
HETATM   15  C   UNL     1      30.246  51.512  39.031  1.00  0.00     0.039 A 
HETATM   16  C   UNL     1      29.401  52.034  40.010  1.00  0.00     0.068 A 
HETATM   17  C   UNL     1      29.906  52.967  40.911  1.00  0.00     0.039 A 
HETATM   18  C   UNL     1      31.253  53.341  40.848  1.00  0.00     0.032 A 
BRANCH  16  19
HETATM   19  O   UNL     1      28.118  51.564  39.981  1.00  0.00    -0.356 OA
HETATM   20  C   UNL     1      27.772  50.717  38.891  1.00  0.00     0.210 C 
ENDBRANCH  16  19
ENDBRANCH  10  13
ENDBRANCH   3   9
ENDBRANCH   1   3
BRANCH   1  21
HETATM   21  C   UNL     1      35.329  51.263  41.884  1.00  0.00     0.318 C 
BRANCH  21  22
HETATM   22  S   UNL     1      33.973  51.354  43.062  1.00  0.00    -0.064 SA
BRANCH  22  23
HETATM   23  C   UNL     1      32.824  50.272  42.392  1.00  0.00     0.169 A 
HETATM   24  N   UNL     1      33.011  49.490  41.359  1.00  0.00    -0.223 NA
HETATM   25  C   UNL     1      31.782  48.891  41.162  1.00  0.00     0.086 A 
HETATM   26  C   UNL     1      30.846  49.352  42.087  1.00  0.00     0.063 A 
HETATM   27  C   UNL     1      31.382  47.956  40.196  1.00  0.00     0.034 A 
HETATM   28  N   UNL     1      31.548  50.232  42.869  1.00  0.00    -0.333 N 
HETATM   29  C   UNL     1      29.514  48.938  42.105  1.00  0.00     0.032 A 
HETATM   30  H   UNL     1      31.182  50.768  43.643  1.00  0.00     0.168 HD
HETATM   31  C   UNL     1      29.133  48.010  41.130  1.00  0.00     0.002 A 
HETATM   32  C   UNL     1      30.048  47.526  40.192  1.00  0.00     0.002 A 
ENDBRANCH  22  23
ENDBRANCH  21  22
ENDBRANCH   1  21
BRANCH   1  33
HETATM   33  C   UNL     1      37.403  52.643  42.314  1.00  0.00     0.275 C 
BRANCH  33  34
HETATM   34  C   UNL     1      37.646  53.761  43.296  1.00  0.00    -0.033 A 
HETATM   35  C   UNL     1      38.141  55.011  42.899  1.00  0.00     0.009 A 
HETATM   36  C   UNL     1      38.364  56.020  43.837  1.00  0.00     0.001 A 
HETATM   37  C   UNL     1      38.078  55.802  45.182  1.00  0.00     0.000 A 
HETATM   38  C   UNL     1      37.552  54.580  45.590  1.00  0.00     0.001 A 
HETATM   39  C   UNL     1      37.327  53.570  44.654  1.00  0.00     0.009 A 
ENDBRANCH  33  34
ENDBRANCH   1  33
TORSDOF 9
ENDMDL
MODEL 8
REMARK VINA RESULT:      -8.4      2.276      4.796
REMARK  9 active torsions:
REMARK  status: ('A' for Active; 'I' for Inactive)
REMARK    1  A    between atoms: O_2  and  C_3 
REMARK    2  A    between atoms: C_6  and  N_7 
REMARK       I    between atoms: N_7  and  C_8 
REMARK    3  A    between atoms: C_8  and  C_9 
REMARK    4  A    between atoms: C_9  and  N_10 
REMARK    5  A    between atoms: N_10  and  C_12 
REMARK    6  A    between atoms: N_10  and  C_24 
REMARK    7  A    between atoms: C_12  and  S_13 
REMARK    8  A    between atoms: S_13  and  C_14 
REMARK    9  A    between atoms: C_24  and  C_25 
ROOT
HETATM    1  N   UNL     1      24.277  45.640  49.646  1.00  0.00    -0.041 N 
HETATM    2  H   UNL     1      24.648  45.724  48.675  1.00  0.00     0.282 HD
ENDROOT
BRANCH   1   3
HETATM    3  C   UNL     1      25.061  44.368  50.289  1.00  0.00     0.208 C 
HETATM    4  C   UNL     1      26.273  44.053  49.371  1.00  0.00     0.049 C 
HETATM    5  C   UNL     1      26.860  42.636  49.442  1.00  0.00     0.003 C 
HETATM    6  C   UNL     1      25.820  41.536  49.593  1.00  0.00     0.000 C 
HETATM    7  C   UNL     1      24.827  41.839  50.705  1.00  0.00     0.003 C 
HETATM    8  C   UNL     1      24.111  43.159  50.422  1.00  0.00     0.049 C 
BRANCH   3   9
HETATM    9  C   UNL     1      25.445  44.775  51.774  1.00  0.00     0.259 C 
HETATM   10  N   UNL     1      26.679  45.348  51.972  1.00  0.00    -0.325 N 
HETATM   11  H   UNL     1      27.213  45.651  51.174  1.00  0.00     0.169 HD
HETATM   12  O   UNL     1      24.636  44.515  52.667  1.00  0.00    -0.270 OA
BRANCH  10  13
HETATM   13  C   UNL     1      27.361  45.536  53.195  1.00  0.00     0.035 A 
HETATM   14  C   UNL     1      27.318  46.705  53.950  1.00  0.00     0.032 A 
HETATM   15  C   UNL     1      27.960  46.758  55.195  1.00  0.00     0.039 A 
HETATM   16  C   UNL     1      28.645  45.653  55.701  1.00  0.00     0.068 A 
HETATM   17  C   UNL     1      28.716  44.494  54.935  1.00  0.00     0.039 A 
HETATM   18  C   UNL     1      28.076  44.436  53.691  1.00  0.00     0.032 A 
BRANCH  16  19
HETATM   19  O   UNL     1      29.198  45.831  56.938  1.00  0.00    -0.356 OA
HETATM   20  C   UNL     1      28.336  46.310  57.962  1.00  0.00     0.210 C 
ENDBRANCH  16  19
ENDBRANCH  10  13
ENDBRANCH   3   9
ENDBRANCH   1   3
BRANCH   1  21
HETATM   21  C   UNL     1      22.816  45.287  49.386  1.00  0.00     0.318 C 
BRANCH  21  22
HETATM   22  S   UNL     1      22.327  45.208  47.658  1.00  0.00    -0.064 SA
BRANCH  22  23
HETATM   23  C   UNL     1      22.698  43.587  47.238  1.00  0.00     0.169 A 
HETATM   24  N   UNL     1      21.989  42.531  47.542  1.00  0.00    -0.223 NA
HETATM   25  C   UNL     1      22.737  41.472  47.064  1.00  0.00     0.086 A 
HETATM   26  C   UNL     1      23.926  41.919  46.489  1.00  0.00     0.063 A 
HETATM   27  C   UNL     1      22.475  40.095  47.105  1.00  0.00     0.034 A 
HETATM   28  N   UNL     1      23.868  43.283  46.608  1.00  0.00    -0.333 N 
HETATM   29  C   UNL     1      24.888  41.066  45.949  1.00  0.00     0.032 A 
HETATM   30  H   UNL     1      24.571  43.941  46.304  1.00  0.00     0.168 HD
HETATM   31  C   UNL     1      24.612  39.695  46.006  1.00  0.00     0.002 A 
HETATM   32  C   UNL     1      23.428  39.216  46.572  1.00  0.00     0.002 A 
ENDBRANCH  22  23
ENDBRANCH  21  22
ENDBRANCH   1  21
BRANCH   1  33
HETATM   33  C   UNL     1      24.430  46.997  50.313  1.00  0.00     0.275 C 
BRANCH  33  34
HETATM   34  C   UNL     1      25.292  48.036  49.640  1.00  0.00    -0.033 A 
HETATM   35  C   UNL     1      26.691  48.019  49.730  1.00  0.00     0.009 A 
HETATM   36  C   UNL     1      27.457  49.003  49.102  1.00  0.00     0.001 A 
HETATM   37  C   UNL     1      26.838  50.007  48.362  1.00  0.00     0.000 A 
HETATM   38  C   UNL     1      25.452  50.020  48.233  1.00  0.00     0.001 A 
HETATM   39  C   UNL     1      24.685  49.036  48.857  1.00  0.00     0.009 A 
ENDBRANCH  33  34
ENDBRANCH   1  33
TORSDOF 9
ENDMDL
MODEL 9
REMARK VINA RESULT:      -8.3      9.884     12.830
REMARK  9 active torsions:
REMARK  status: ('A' for Active; 'I' for Inactive)
REMARK    1  A    between atoms: O_2  and  C_3 
REMARK    2  A    between atoms: C_6  and  N_7 
REMARK       I    between atoms: N_7  and  C_8 
REMARK    3  A    between atoms: C_8  and  C_9 
REMARK    4  A    between atoms: C_9  and  N_10 
REMARK    5  A    between atoms: N_10  and  C_12 
REMARK    6  A    between atoms: N_10  and  C_24 
REMARK    7  A    between atoms: C_12  and  S_13 
REMARK    8  A    between atoms: S_13  and  C_14 
REMARK    9  A    between atoms: C_24  and  C_25 
ROOT
HETATM    1  N   UNL     1      29.218  48.977  39.228  1.00  0.00    -0.041 N 
HETATM    2  H   UNL     1      29.503  49.021  40.231  1.00  0.00     0.282 HD
ENDROOT
BRANCH   1   3
HETATM    3  C   UNL     1      27.711  48.366  39.243  1.00  0.00     0.208 C 
HETATM    4  C   UNL     1      27.420  47.808  37.823  1.00  0.00     0.049 C 
HETATM    5  C   UNL     1      25.947  47.653  37.417  1.00  0.00     0.003 C 
HETATM    6  C   UNL     1      25.043  48.776  37.903  1.00  0.00     0.000 C 
HETATM    7  C   UNL     1      25.238  49.064  39.385  1.00  0.00     0.003 C 
HETATM    8  C   UNL     1      26.692  49.448  39.655  1.00  0.00     0.049 C 
BRANCH   3   9
HETATM    9  C   UNL     1      27.674  47.280  40.399  1.00  0.00     0.259 C 
HETATM   10  N   UNL     1      27.304  46.001  40.053  1.00  0.00    -0.325 N 
HETATM   11  H   UNL     1      27.248  45.754  39.079  1.00  0.00     0.169 HD
HETATM   12  O   UNL     1      27.934  47.654  41.545  1.00  0.00    -0.270 OA
BRANCH  10  13
HETATM   13  C   UNL     1      26.926  44.946  40.912  1.00  0.00     0.035 A 
HETATM   14  C   UNL     1      27.511  43.682  40.914  1.00  0.00     0.032 A 
HETATM   15  C   UNL     1      27.122  42.732  41.867  1.00  0.00     0.039 A 
HETATM   16  C   UNL     1      26.156  43.029  42.829  1.00  0.00     0.068 A 
HETATM   17  C   UNL     1      25.548  44.280  42.812  1.00  0.00     0.039 A 
HETATM   18  C   UNL     1      25.933  45.232  41.861  1.00  0.00     0.032 A 
BRANCH  16  19
HETATM   19  O   UNL     1      25.894  42.024  43.717  1.00  0.00    -0.356 OA
HETATM   20  C   UNL     1      24.933  41.053  43.319  1.00  0.00     0.210 C 
ENDBRANCH  16  19
ENDBRANCH  10  13
ENDBRANCH   3   9
ENDBRANCH   1   3
BRANCH   1  21
HETATM   21  C   UNL     1      30.203  47.950  38.677  1.00  0.00     0.318 C 
BRANCH  21  22
HETATM   22  S   UNL     1      31.085  46.977  39.903  1.00  0.00    -0.064 SA
BRANCH  22  23
HETATM   23  C   UNL     1      31.743  48.181  40.932  1.00  0.00     0.169 A 
HETATM   24  N   UNL     1      31.106  48.813  41.884  1.00  0.00    -0.223 NA
HETATM   25  C   UNL     1      32.027  49.728  42.357  1.00  0.00     0.086 A 
HETATM   26  C   UNL     1      33.224  49.647  41.647  1.00  0.00     0.063 A 
HETATM   27  C   UNL     1      31.904  50.681  43.379  1.00  0.00     0.034 A 
HETATM   28  N   UNL     1      33.013  48.637  40.744  1.00  0.00    -0.333 N 
HETATM   29  C   UNL     1      34.321  50.472  41.891  1.00  0.00     0.032 A 
HETATM   30  H   UNL     1      33.670  48.306  40.052  1.00  0.00     0.168 HD
HETATM   31  C   UNL     1      34.177  51.421  42.909  1.00  0.00     0.002 A 
HETATM   32  C   UNL     1      32.993  51.525  43.642  1.00  0.00     0.002 A 
ENDBRANCH  22  23
ENDBRANCH  21  22
ENDBRANCH   1  21
BRANCH   1  33
HETATM   33  C   UNL     1      29.434  50.359  38.632  1.00  0.00     0.275 C 
BRANCH  33  34
HETATM   34  C   UNL     1      30.023  51.436  39.507  1.00  0.00    -0.033 A 
HETATM   35  C   UNL     1      29.291  52.045  40.537  1.00  0.00     0.009 A 
HETATM   36  C   UNL     1      29.864  53.047  41.321  1.00  0.00     0.001 A 
HETATM   37  C   UNL     1      31.181  53.443  41.101  1.00  0.00     0.000 A 
HETATM   38  C   UNL     1      31.934  52.825  40.107  1.00  0.00     0.001 A 
HETATM   39  C   UNL     1      31.364  51.821  39.323  1.00  0.00     0.009 A 
ENDBRANCH  33  34
ENDBRANCH   1  33
TORSDOF 9
ENDMDL
MODEL 10
REMARK VINA RESULT:      -8.2      2.821      6.033
REMARK  9 active torsions:
REMARK  status: ('A' for Active; 'I' for Inactive)
REMARK    1  A    between atoms: O_2  and  C_3 
REMARK    2  A    between atoms: C_6  and  N_7 
REMARK       I    between atoms: N_7  and  C_8 
REMARK    3  A    between atoms: C_8  and  C_9 
REMARK    4  A    between atoms: C_9  and  N_10 
REMARK    5  A    between atoms: N_10  and  C_12 
REMARK    6  A    between atoms: N_10  and  C_24 
REMARK    7  A    between atoms: C_12  and  S_13 
REMARK    8  A    between atoms: S_13  and  C_14 
REMARK    9  A    between atoms: C_24  and  C_25 
ROOT
HETATM    1  N   UNL     1      24.072  45.894  49.491  1.00  0.00    -0.041 N 
HETATM    2  H   UNL     1      24.477  45.948  48.531  1.00  0.00     0.282 HD
ENDROOT
BRANCH   1   3
HETATM    3  C   UNL     1      24.776  44.596  50.174  1.00  0.00     0.208 C 
HETATM    4  C   UNL     1      24.781  44.821  51.710  1.00  0.00     0.049 C 
HETATM    5  C   UNL     1      25.811  44.033  52.533  1.00  0.00     0.003 C 
HETATM    6  C   UNL     1      27.169  43.892  51.864  1.00  0.00     0.000 C 
HETATM    7  C   UNL     1      27.049  43.415  50.423  1.00  0.00     0.003 C 
HETATM    8  C   UNL     1      26.201  44.398  49.617  1.00  0.00     0.049 C 
BRANCH   3   9
HETATM    9  C   UNL     1      23.949  43.329  49.695  1.00  0.00     0.259 C 
HETATM   10  N   UNL     1      24.067  42.959  48.375  1.00  0.00    -0.325 N 
HETATM   11  H   UNL     1      24.792  43.376  47.812  1.00  0.00     0.169 HD
HETATM   12  O   UNL     1      23.217  42.778  50.518  1.00  0.00    -0.270 OA
BRANCH  10  13
HETATM   13  C   UNL     1      23.246  42.071  47.647  1.00  0.00     0.035 A 
HETATM   14  C   UNL     1      22.137  42.458  46.898  1.00  0.00     0.032 A 
HETATM   15  C   UNL     1      21.439  41.509  46.139  1.00  0.00     0.039 A 
HETATM   16  C   UNL     1      21.838  40.172  46.112  1.00  0.00     0.068 A 
HETATM   17  C   UNL     1      22.927  39.777  46.883  1.00  0.00     0.039 A 
HETATM   18  C   UNL     1      23.627  40.722  47.642  1.00  0.00     0.032 A 
BRANCH  16  19
HETATM   19  O   UNL     1      21.090  39.359  45.308  1.00  0.00    -0.356 OA
HETATM   20  C   UNL     1      20.783  38.066  45.814  1.00  0.00     0.210 C 
ENDBRANCH  16  19
ENDBRANCH  10  13
ENDBRANCH   3   9
ENDBRANCH   1   3
BRANCH   1  21
HETATM   21  C   UNL     1      22.605  45.605  49.188  1.00  0.00     0.318 C 
BRANCH  21  22
HETATM   22  S   UNL     1      21.992  46.234  47.620  1.00  0.00    -0.064 SA
BRANCH  22  23
HETATM   23  C   UNL     1      21.240  47.707  48.077  1.00  0.00     0.169 A 
HETATM   24  N   UNL     1      21.436  48.876  47.525  1.00  0.00    -0.223 NA
HETATM   25  C   UNL     1      20.681  49.742  48.292  1.00  0.00     0.086 A 
HETATM   26  C   UNL     1      20.046  49.067  49.333  1.00  0.00     0.063 A 
HETATM   27  C   UNL     1      20.505  51.129  48.171  1.00  0.00     0.034 A 
HETATM   28  N   UNL     1      20.419  47.758  49.163  1.00  0.00    -0.333 N 
HETATM   29  C   UNL     1      19.240  49.696  50.281  1.00  0.00     0.032 A 
HETATM   30  H   UNL     1      20.151  46.979  49.747  1.00  0.00     0.168 HD
HETATM   31  C   UNL     1      19.082  51.081  50.149  1.00  0.00     0.002 A 
HETATM   32  C   UNL     1      19.700  51.786  49.114  1.00  0.00     0.002 A 
ENDBRANCH  22  23
ENDBRANCH  21  22
ENDBRANCH   1  21
BRANCH   1  33
HETATM   33  C   UNL     1      24.267  47.252  50.146  1.00  0.00     0.275 C 
BRANCH  33  34
HETATM   34  C   UNL     1      25.277  48.199  49.551  1.00  0.00    -0.033 A 
HETATM   35  C   UNL     1      26.653  48.071  49.789  1.00  0.00     0.009 A 
HETATM   36  C   UNL     1      27.560  48.973  49.229  1.00  0.00     0.001 A 
HETATM   37  C   UNL     1      27.108  50.003  48.410  1.00  0.00     0.000 A 
HETATM   38  C   UNL     1      25.750  50.126  48.134  1.00  0.00     0.001 A 
HETATM   39  C   UNL     1      24.841  49.224  48.690  1.00  0.00     0.009 A 
ENDBRANCH  33  34
ENDBRANCH   1  33
TORSDOF 9
ENDMDL
