MODEL 1
REMARK VINA RESULT:      -9.7      0.000      0.000
REMARK  7 active torsions:
REMARK  status: ('A' for Active; 'I' for Inactive)
REMARK    1  A    between atoms: C_2  and  C_3 
REMARK    2  A    between atoms: C_3  and  O_4 
REMARK    3  A    between atoms: O_4  and  C_5 
REMARK    4  A    between atoms: C_8  and  C_9 
REMARK    5  A    between atoms: C_15  and  C_16 
REMARK    6  A    between atoms: C_19  and  N_20 
REMARK       I    between atoms: N_20  and  C_21 
REMARK    7  A    between atoms: C_29  and  N_30 
ROOT
HETATM    1  C   UNL     1      27.710  41.891  52.017  1.00  0.00     0.072 A 
HETATM    2  N   UNL     1      28.715  40.979  51.768  1.00  0.00    -0.274 N 
HETATM    3  H   UNL     1      29.588  40.871  52.273  1.00  0.00     0.189 HD
HETATM    4  N   UNL     1      28.474  40.157  50.727  1.00  0.00    -0.148 NA
HETATM    5  C   UNL     1      27.277  40.560  50.323  1.00  0.00     0.199 A 
HETATM    6  C   UNL     1      26.739  41.615  51.067  1.00  0.00     0.040 A 
HETATM    7  C   UNL     1      25.401  42.171  50.721  1.00  0.00     0.106 A 
HETATM    8  C   UNL     1      24.800  41.455  49.517  1.00  0.00     0.081 A 
HETATM    9  C   UNL     1      23.494  41.865  49.118  1.00  0.00     0.100 C 
HETATM   10  N   UNL     1      22.429  42.202  48.800  1.00  0.00    -0.191 NA
HETATM   11  C   UNL     1      25.430  40.439  48.872  1.00  0.00     0.140 A 
HETATM   12  O   UNL     1      26.692  39.974  49.264  1.00  0.00    -0.277 OA
ENDROOT
BRANCH   7  13
HETATM   13  C   UNL     1      25.582  43.668  50.501  1.00  0.00    -0.044 A 
HETATM   14  C   UNL     1      24.720  44.627  51.056  1.00  0.00     0.010 A 
HETATM   15  C   UNL     1      24.928  45.996  50.836  1.00  0.00     0.030 A 
HETATM   16  C   UNL     1      26.008  46.436  50.072  1.00  0.00     0.034 A 
HETATM   17  C   UNL     1      26.882  45.487  49.534  1.00  0.00     0.030 A 
HETATM   18  C   UNL     1      26.676  44.121  49.748  1.00  0.00     0.010 A 
BRANCH  16  19
HETATM   19  N   UNL     1      26.289  47.791  49.803  1.00  0.00    -0.328 N 
HETATM   20  C   UNL     1      27.376  48.310  49.123  1.00  0.00     0.218 C 
HETATM   21  C   UNL     1      27.316  49.814  49.023  1.00  0.00     0.117 C 
HETATM   22  O   UNL     1      28.299  47.683  48.617  1.00  0.00    -0.274 OA
HETATM   23  H   UNL     1      25.611  48.457  50.150  1.00  0.00     0.169 HD
ENDBRANCH  16  19
ENDBRANCH   7  13
BRANCH  11  24
HETATM   24  N   UNL     1      24.927  39.753  47.787  1.00  0.00    -0.282 NA
HETATM   25  H   UNL     1      24.367  40.303  47.139  1.00  0.00     0.126 HD
HETATM   26  H   UNL     1      25.647  39.205  47.321  1.00  0.00     0.126 HD
ENDBRANCH  11  24
BRANCH   1  27
HETATM   27  C   UNL     1      27.808  42.906  53.059  1.00  0.00    -0.007 A 
HETATM   28  C   UNL     1      26.666  43.301  53.768  1.00  0.00     0.016 A 
HETATM   29  C   UNL     1      26.751  44.242  54.802  1.00  0.00     0.037 A 
HETATM   30  C   UNL     1      27.984  44.795  55.145  1.00  0.00     0.068 A 
HETATM   31  C   UNL     1      29.122  44.415  54.431  1.00  0.00     0.037 A 
HETATM   32  C   UNL     1      29.037  43.480  53.393  1.00  0.00     0.016 A 
BRANCH  30  33
HETATM   33  O   UNL     1      28.207  45.697  56.148  1.00  0.00    -0.351 OA
BRANCH  33  34
HETATM   34  C   UNL     1      29.566  46.056  56.404  1.00  0.00     0.175 C 
BRANCH  34  35
HETATM   35  C   UNL     1      29.807  45.951  57.907  1.00  0.00     0.022 C 
HETATM   36  C   UNL     1      30.896  44.945  58.233  1.00  0.00     0.007 C 
ENDBRANCH  34  35
ENDBRANCH  33  34
ENDBRANCH  30  33
ENDBRANCH   1  27
TORSDOF 7
ENDMDL
MODEL 2
REMARK VINA RESULT:      -8.7      1.399      2.177
REMARK  7 active torsions:
REMARK  status: ('A' for Active; 'I' for Inactive)
REMARK    1  A    between atoms: C_2  and  C_3 
REMARK    2  A    between atoms: C_3  and  O_4 
REMARK    3  A    between atoms: O_4  and  C_5 
REMARK    4  A    between atoms: C_8  and  C_9 
REMARK    5  A    between atoms: C_15  and  C_16 
REMARK    6  A    between atoms: C_19  and  N_20 
REMARK       I    between atoms: N_20  and  C_21 
REMARK    7  A    between atoms: C_29  and  N_30 
ROOT
HETATM    1  C   UNL     1      26.909  41.962  51.850  1.00  0.00     0.072 A 
HETATM    2  N   UNL     1      27.502  40.761  51.521  1.00  0.00    -0.274 N 
HETATM    3  H   UNL     1      28.324  40.342  51.942  1.00  0.00     0.189 HD
HETATM    4  N   UNL     1      26.890  40.097  50.519  1.00  0.00    -0.148 NA
HETATM    5  C   UNL     1      25.879  40.903  50.224  1.00  0.00     0.199 A 
HETATM    6  C   UNL     1      25.819  42.065  51.000  1.00  0.00     0.040 A 
HETATM    7  C   UNL     1      24.737  43.063  50.775  1.00  0.00     0.106 A 
HETATM    8  C   UNL     1      23.812  42.629  49.643  1.00  0.00     0.081 A 
HETATM    9  C   UNL     1      22.703  43.479  49.364  1.00  0.00     0.100 C 
HETATM   10  N   UNL     1      21.800  44.175  49.143  1.00  0.00    -0.191 NA
HETATM   11  C   UNL     1      23.981  41.469  48.956  1.00  0.00     0.140 A 
HETATM   12  O   UNL     1      25.029  40.582  49.233  1.00  0.00    -0.277 OA
ENDROOT
BRANCH   7  13
HETATM   13  C   UNL     1      25.412  44.405  50.518  1.00  0.00    -0.044 A 
HETATM   14  C   UNL     1      26.556  44.539  49.716  1.00  0.00     0.010 A 
HETATM   15  C   UNL     1      27.141  45.794  49.499  1.00  0.00     0.030 A 
HETATM   16  C   UNL     1      26.586  46.943  50.062  1.00  0.00     0.034 A 
HETATM   17  C   UNL     1      25.433  46.819  50.845  1.00  0.00     0.030 A 
HETATM   18  C   UNL     1      24.851  45.568  51.067  1.00  0.00     0.010 A 
BRANCH  16  19
HETATM   19  N   UNL     1      27.109  48.241  49.894  1.00  0.00    -0.328 N 
HETATM   20  C   UNL     1      26.833  49.138  48.878  1.00  0.00     0.218 C 
HETATM   21  C   UNL     1      27.578  50.438  49.054  1.00  0.00     0.117 C 
HETATM   22  O   UNL     1      26.070  48.975  47.934  1.00  0.00    -0.274 OA
HETATM   23  H   UNL     1      27.763  48.546  50.604  1.00  0.00     0.169 HD
ENDBRANCH  16  19
ENDBRANCH   7  13
BRANCH  11  24
HETATM   24  N   UNL     1      23.170  41.025  47.933  1.00  0.00    -0.282 NA
HETATM   25  H   UNL     1      22.258  40.673  48.216  1.00  0.00     0.126 HD
HETATM   26  H   UNL     1      23.114  41.703  47.176  1.00  0.00     0.126 HD
ENDBRANCH  11  24
BRANCH   1  27
HETATM   27  C   UNL     1      27.455  42.858  52.864  1.00  0.00    -0.007 A 
HETATM   28  C   UNL     1      28.806  43.226  52.825  1.00  0.00     0.016 A 
HETATM   29  C   UNL     1      29.335  44.120  53.764  1.00  0.00     0.037 A 
HETATM   30  C   UNL     1      28.515  44.665  54.750  1.00  0.00     0.068 A 
HETATM   31  C   UNL     1      27.171  44.290  54.801  1.00  0.00     0.037 A 
HETATM   32  C   UNL     1      26.643  43.391  53.868  1.00  0.00     0.016 A 
BRANCH  30  33
HETATM   33  O   UNL     1      28.898  45.567  55.704  1.00  0.00    -0.351 OA
BRANCH  33  34
HETATM   34  C   UNL     1      27.975  46.613  56.012  1.00  0.00     0.175 C 
BRANCH  34  35
HETATM   35  C   UNL     1      27.869  47.524  54.793  1.00  0.00     0.022 C 
HETATM   36  C   UNL     1      26.424  47.765  54.396  1.00  0.00     0.007 C 
ENDBRANCH  34  35
ENDBRANCH  33  34
ENDBRANCH  30  33
ENDBRANCH   1  27
TORSDOF 7
ENDMDL
MODEL 3
REMARK VINA RESULT:      -8.6      6.004      9.544
REMARK  7 active torsions:
REMARK  status: ('A' for Active; 'I' for Inactive)
REMARK    1  A    between atoms: C_2  and  C_3 
REMARK    2  A    between atoms: C_3  and  O_4 
REMARK    3  A    between atoms: O_4  and  C_5 
REMARK    4  A    between atoms: C_8  and  C_9 
REMARK    5  A    between atoms: C_15  and  C_16 
REMARK    6  A    between atoms: C_19  and  N_20 
REMARK       I    between atoms: N_20  and  C_21 
REMARK    7  A    between atoms: C_29  and  N_30 
ROOT
HETATM    1  C   UNL     1      20.257  49.757  49.093  1.00  0.00     0.072 A 
HETATM    2  N   UNL     1      19.699  50.400  50.178  1.00  0.00    -0.274 N 
HETATM    3  H   UNL     1      20.178  50.956  50.878  1.00  0.00     0.189 HD
HETATM    4  N   UNL     1      18.364  50.248  50.288  1.00  0.00    -0.148 NA
HETATM    5  C   UNL     1      18.079  49.498  49.231  1.00  0.00     0.199 A 
HETATM    6  C   UNL     1      19.185  49.160  48.446  1.00  0.00     0.040 A 
HETATM    7  C   UNL     1      19.013  48.317  47.231  1.00  0.00     0.106 A 
HETATM    8  C   UNL     1      17.553  47.921  47.035  1.00  0.00     0.081 A 
HETATM    9  C   UNL     1      17.251  47.153  45.872  1.00  0.00     0.100 C 
HETATM   10  N   UNL     1      17.011  46.529  44.923  1.00  0.00    -0.191 NA
HETATM   11  C   UNL     1      16.563  48.314  47.879  1.00  0.00     0.140 A 
HETATM   12  O   UNL     1      16.812  49.110  49.004  1.00  0.00    -0.277 OA
ENDROOT
BRANCH   7  13
HETATM   13  C   UNL     1      19.945  47.120  47.379  1.00  0.00    -0.044 A 
HETATM   14  C   UNL     1      20.989  46.854  46.480  1.00  0.00     0.010 A 
HETATM   15  C   UNL     1      21.829  45.746  46.659  1.00  0.00     0.030 A 
HETATM   16  C   UNL     1      21.655  44.891  47.747  1.00  0.00     0.034 A 
HETATM   17  C   UNL     1      20.629  45.162  48.657  1.00  0.00     0.030 A 
HETATM   18  C   UNL     1      19.787  46.264  48.480  1.00  0.00     0.010 A 
BRANCH  16  19
HETATM   19  N   UNL     1      22.453  43.757  48.000  1.00  0.00    -0.328 N 
HETATM   20  C   UNL     1      23.759  43.727  48.454  1.00  0.00     0.218 C 
HETATM   21  C   UNL     1      24.269  42.317  48.619  1.00  0.00     0.117 C 
HETATM   22  O   UNL     1      24.467  44.688  48.733  1.00  0.00    -0.274 OA
HETATM   23  H   UNL     1      22.012  42.863  47.827  1.00  0.00     0.169 HD
ENDBRANCH  16  19
ENDBRANCH   7  13
BRANCH  11  24
HETATM   24  N   UNL     1      15.229  47.993  47.742  1.00  0.00    -0.282 NA
HETATM   25  H   UNL     1      14.588  48.783  47.708  1.00  0.00     0.126 HD
HETATM   26  H   UNL     1      15.077  47.327  46.988  1.00  0.00     0.126 HD
ENDBRANCH  11  24
BRANCH   1  27
HETATM   27  C   UNL     1      21.692  49.748  48.834  1.00  0.00    -0.007 A 
HETATM   28  C   UNL     1      22.481  48.678  49.277  1.00  0.00     0.016 A 
HETATM   29  C   UNL     1      23.852  48.633  48.997  1.00  0.00     0.037 A 
HETATM   30  C   UNL     1      24.451  49.655  48.263  1.00  0.00     0.068 A 
HETATM   31  C   UNL     1      23.671  50.729  47.832  1.00  0.00     0.037 A 
HETATM   32  C   UNL     1      22.302  50.780  48.116  1.00  0.00     0.016 A 
BRANCH  30  33
HETATM   33  O   UNL     1      25.768  49.716  47.899  1.00  0.00    -0.351 OA
BRANCH  33  34
HETATM   34  C   UNL     1      26.720  49.911  48.945  1.00  0.00     0.175 C 
BRANCH  34  35
HETATM   35  C   UNL     1      27.672  48.719  48.945  1.00  0.00     0.022 C 
HETATM   36  C   UNL     1      27.050  47.503  49.606  1.00  0.00     0.007 C 
ENDBRANCH  34  35
ENDBRANCH  33  34
ENDBRANCH  30  33
ENDBRANCH   1  27
TORSDOF 7
ENDMDL
MODEL 4
REMARK VINA RESULT:      -8.6      8.890     12.353
REMARK  7 active torsions:
REMARK  status: ('A' for Active; 'I' for Inactive)
REMARK    1  A    between atoms: C_2  and  C_3 
REMARK    2  A    between atoms: C_3  and  O_4 
REMARK    3  A    between atoms: O_4  and  C_5 
REMARK    4  A    between atoms: C_8  and  C_9 
REMARK    5  A    between atoms: C_15  and  C_16 
REMARK    6  A    between atoms: C_19  and  N_20 
REMARK       I    between atoms: N_20  and  C_21 
REMARK    7  A    between atoms: C_29  and  N_30 
ROOT
HETATM    1  C   UNL     1      18.475  46.511  47.780  1.00  0.00     0.072 A 
HETATM    2  N   UNL     1      18.525  45.237  48.308  1.00  0.00    -0.274 N 
HETATM    3  H   UNL     1      17.767  44.566  48.372  1.00  0.00     0.189 HD
HETATM    4  N   UNL     1      19.734  44.882  48.786  1.00  0.00    -0.148 NA
HETATM    5  C   UNL     1      20.463  45.961  48.535  1.00  0.00     0.199 A 
HETATM    6  C   UNL     1      19.765  47.001  47.915  1.00  0.00     0.040 A 
HETATM    7  C   UNL     1      20.458  48.275  47.579  1.00  0.00     0.106 A 
HETATM    8  C   UNL     1      21.920  48.239  48.010  1.00  0.00     0.081 A 
HETATM    9  C   UNL     1      22.706  49.386  47.696  1.00  0.00     0.100 C 
HETATM   10  N   UNL     1      23.341  50.323  47.436  1.00  0.00    -0.191 NA
HETATM   11  C   UNL     1      22.485  47.161  48.614  1.00  0.00     0.140 A 
HETATM   12  O   UNL     1      21.758  45.996  48.894  1.00  0.00    -0.277 OA
ENDROOT
BRANCH   7  13
HETATM   13  C   UNL     1      19.667  49.402  48.233  1.00  0.00    -0.044 A 
HETATM   14  C   UNL     1      19.519  49.519  49.624  1.00  0.00     0.010 A 
HETATM   15  C   UNL     1      18.789  50.576  50.185  1.00  0.00     0.030 A 
HETATM   16  C   UNL     1      18.207  51.547  49.371  1.00  0.00     0.034 A 
HETATM   17  C   UNL     1      18.368  51.448  47.986  1.00  0.00     0.030 A 
HETATM   18  C   UNL     1      19.091  50.392  47.423  1.00  0.00     0.010 A 
BRANCH  16  19
HETATM   19  N   UNL     1      17.459  52.640  49.852  1.00  0.00    -0.328 N 
HETATM   20  C   UNL     1      16.082  52.759  49.918  1.00  0.00     0.218 C 
HETATM   21  C   UNL     1      15.655  54.078  50.512  1.00  0.00     0.117 C 
HETATM   22  O   UNL     1      15.251  51.925  49.578  1.00  0.00    -0.274 OA
HETATM   23  H   UNL     1      17.998  53.428  50.188  1.00  0.00     0.169 HD
ENDBRANCH  16  19
ENDBRANCH   7  13
BRANCH  11  24
HETATM   24  N   UNL     1      23.801  47.073  49.014  1.00  0.00    -0.282 NA
HETATM   25  H   UNL     1      24.042  47.595  49.853  1.00  0.00     0.126 HD
HETATM   26  H   UNL     1      24.122  46.107  49.043  1.00  0.00     0.126 HD
ENDBRANCH  11  24
BRANCH   1  27
HETATM   27  C   UNL     1      17.244  47.104  47.271  1.00  0.00    -0.007 A 
HETATM   28  C   UNL     1      16.411  47.841  48.123  1.00  0.00     0.016 A 
HETATM   29  C   UNL     1      15.250  48.455  47.639  1.00  0.00     0.037 A 
HETATM   30  C   UNL     1      14.910  48.347  46.292  1.00  0.00     0.068 A 
HETATM   31  C   UNL     1      15.730  47.602  45.442  1.00  0.00     0.037 A 
HETATM   32  C   UNL     1      16.887  46.982  45.925  1.00  0.00     0.016 A 
BRANCH  30  33
HETATM   33  O   UNL     1      13.825  48.920  45.690  1.00  0.00    -0.351 OA
BRANCH  33  34
HETATM   34  C   UNL     1      14.085  49.870  44.656  1.00  0.00     0.175 C 
BRANCH  34  35
HETATM   35  C   UNL     1      14.565  51.162  45.311  1.00  0.00     0.022 C 
HETATM   36  C   UNL     1      15.994  51.493  44.919  1.00  0.00     0.007 C 
ENDBRANCH  34  35
ENDBRANCH  33  34
ENDBRANCH  30  33
ENDBRANCH   1  27
TORSDOF 7
ENDMDL
MODEL 5
REMARK VINA RESULT:      -8.6      5.217      9.171
REMARK  7 active torsions:
REMARK  status: ('A' for Active; 'I' for Inactive)
REMARK    1  A    between atoms: C_2  and  C_3 
REMARK    2  A    between atoms: C_3  and  O_4 
REMARK    3  A    between atoms: O_4  and  C_5 
REMARK    4  A    between atoms: C_8  and  C_9 
REMARK    5  A    between atoms: C_15  and  C_16 
REMARK    6  A    between atoms: C_19  and  N_20 
REMARK       I    between atoms: N_20  and  C_21 
REMARK    7  A    between atoms: C_29  and  N_30 
ROOT
HETATM    1  C   UNL     1      24.292  49.516  48.868  1.00  0.00     0.072 A 
HETATM    2  N   UNL     1      25.443  50.153  48.451  1.00  0.00    -0.274 N 
HETATM    3  H   UNL     1      25.531  51.103  48.107  1.00  0.00     0.189 HD
HETATM    4  N   UNL     1      26.554  49.394  48.523  1.00  0.00    -0.148 NA
HETATM    5  C   UNL     1      26.085  48.254  49.011  1.00  0.00     0.199 A 
HETATM    6  C   UNL     1      24.708  48.252  49.255  1.00  0.00     0.040 A 
HETATM    7  C   UNL     1      24.044  47.035  49.799  1.00  0.00     0.106 A 
HETATM    8  C   UNL     1      25.046  45.904  50.005  1.00  0.00     0.081 A 
HETATM    9  C   UNL     1      24.540  44.699  50.573  1.00  0.00     0.100 C 
HETATM   10  N   UNL     1      24.122  43.720  51.037  1.00  0.00    -0.191 NA
HETATM   11  C   UNL     1      26.370  46.031  49.723  1.00  0.00     0.140 A 
HETATM   12  O   UNL     1      26.915  47.216  49.212  1.00  0.00    -0.277 OA
ENDROOT
BRANCH   7  13
HETATM   13  C   UNL     1      22.918  46.671  48.840  1.00  0.00    -0.044 A 
HETATM   14  C   UNL     1      23.121  45.899  47.686  1.00  0.00     0.010 A 
HETATM   15  C   UNL     1      22.055  45.580  46.835  1.00  0.00     0.030 A 
HETATM   16  C   UNL     1      20.761  46.011  47.126  1.00  0.00     0.034 A 
HETATM   17  C   UNL     1      20.547  46.763  48.285  1.00  0.00     0.030 A 
HETATM   18  C   UNL     1      21.609  47.086  49.134  1.00  0.00     0.010 A 
BRANCH  16  19
HETATM   19  N   UNL     1      19.634  45.735  46.325  1.00  0.00    -0.328 N 
HETATM   20  C   UNL     1      18.661  44.775  46.537  1.00  0.00     0.218 C 
HETATM   21  C   UNL     1      17.601  44.796  45.464  1.00  0.00     0.117 C 
HETATM   22  O   UNL     1      18.591  43.987  47.472  1.00  0.00    -0.274 OA
HETATM   23  H   UNL     1      19.531  46.311  45.499  1.00  0.00     0.169 HD
ENDBRANCH  16  19
ENDBRANCH   7  13
BRANCH  11  24
HETATM   24  N   UNL     1      27.317  45.046  49.900  1.00  0.00    -0.282 NA
HETATM   25  H   UNL     1      27.806  45.060  50.793  1.00  0.00     0.126 HD
HETATM   26  H   UNL     1      26.953  44.125  49.663  1.00  0.00     0.126 HD
ENDBRANCH  11  24
BRANCH   1  27
HETATM   27  C   UNL     1      22.978  50.145  48.808  1.00  0.00    -0.007 A 
HETATM   28  C   UNL     1      22.263  50.172  47.604  1.00  0.00     0.016 A 
HETATM   29  C   UNL     1      20.981  50.731  47.541  1.00  0.00     0.037 A 
HETATM   30  C   UNL     1      20.393  51.266  48.686  1.00  0.00     0.068 A 
HETATM   31  C   UNL     1      21.108  51.254  49.886  1.00  0.00     0.037 A 
HETATM   32  C   UNL     1      22.392  50.702  49.949  1.00  0.00     0.016 A 
BRANCH  30  33
HETATM   33  O   UNL     1      19.143  51.813  48.766  1.00  0.00    -0.351 OA
BRANCH  33  34
HETATM   34  C   UNL     1      18.280  51.308  49.786  1.00  0.00     0.175 C 
BRANCH  34  35
HETATM   35  C   UNL     1      17.976  49.847  49.467  1.00  0.00     0.022 C 
HETATM   36  C   UNL     1      18.463  48.919  50.566  1.00  0.00     0.007 C 
ENDBRANCH  34  35
ENDBRANCH  33  34
ENDBRANCH  30  33
ENDBRANCH   1  27
TORSDOF 7
ENDMDL
MODEL 6
REMARK VINA RESULT:      -8.4      9.581     13.312
REMARK  7 active torsions:
REMARK  status: ('A' for Active; 'I' for Inactive)
REMARK    1  A    between atoms: C_2  and  C_3 
REMARK    2  A    between atoms: C_3  and  O_4 
REMARK    3  A    between atoms: O_4  and  C_5 
REMARK    4  A    between atoms: C_8  and  C_9 
REMARK    5  A    between atoms: C_15  and  C_16 
REMARK    6  A    between atoms: C_19  and  N_20 
REMARK       I    between atoms: N_20  and  C_21 
REMARK    7  A    between atoms: C_29  and  N_30 
ROOT
HETATM    1  C   UNL     1      18.919  48.499  46.127  1.00  0.00     0.072 A 
HETATM    2  N   UNL     1      18.760  47.138  45.964  1.00  0.00    -0.274 N 
HETATM    3  H   UNL     1      18.082  46.662  45.378  1.00  0.00     0.189 HD
HETATM    4  N   UNL     1      19.620  46.389  46.682  1.00  0.00    -0.148 NA
HETATM    5  C   UNL     1      20.346  47.311  47.301  1.00  0.00     0.199 A 
HETATM    6  C   UNL     1      19.981  48.628  47.008  1.00  0.00     0.040 A 
HETATM    7  C   UNL     1      20.708  49.766  47.637  1.00  0.00     0.106 A 
HETATM    8  C   UNL     1      21.803  49.270  48.575  1.00  0.00     0.081 A 
HETATM    9  C   UNL     1      22.607  50.268  49.201  1.00  0.00     0.100 C 
HETATM   10  N   UNL     1      23.259  51.085  49.706  1.00  0.00    -0.191 NA
HETATM   11  C   UNL     1      22.058  47.952  48.781  1.00  0.00     0.140 A 
HETATM   12  O   UNL     1      21.324  46.941  48.146  1.00  0.00    -0.277 OA
ENDROOT
BRANCH   7  13
HETATM   13  C   UNL     1      19.667  50.633  48.334  1.00  0.00    -0.044 A 
HETATM   14  C   UNL     1      19.425  51.968  47.973  1.00  0.00     0.010 A 
HETATM   15  C   UNL     1      18.452  52.728  48.634  1.00  0.00     0.030 A 
HETATM   16  C   UNL     1      17.688  52.168  49.658  1.00  0.00     0.034 A 
HETATM   17  C   UNL     1      17.910  50.833  50.009  1.00  0.00     0.030 A 
HETATM   18  C   UNL     1      18.883  50.073  49.354  1.00  0.00     0.010 A 
BRANCH  16  19
HETATM   19  N   UNL     1      16.691  52.861  50.374  1.00  0.00    -0.328 N 
HETATM   20  C   UNL     1      15.405  53.158  49.959  1.00  0.00     0.218 C 
HETATM   21  C   UNL     1      14.627  53.901  51.016  1.00  0.00     0.117 C 
HETATM   22  O   UNL     1      14.887  52.863  48.889  1.00  0.00    -0.274 OA
HETATM   23  H   UNL     1      16.953  53.175  51.300  1.00  0.00     0.169 HD
ENDBRANCH  16  19
ENDBRANCH   7  13
BRANCH  11  24
HETATM   24  N   UNL     1      23.041  47.451  49.609  1.00  0.00    -0.282 NA
HETATM   25  H   UNL     1      22.855  46.534  50.008  1.00  0.00     0.126 HD
HETATM   26  H   UNL     1      23.962  47.517  49.182  1.00  0.00     0.126 HD
ENDBRANCH  11  24
BRANCH   1  27
HETATM   27  C   UNL     1      18.046  49.476  45.486  1.00  0.00    -0.007 A 
HETATM   28  C   UNL     1      16.776  49.741  46.015  1.00  0.00     0.016 A 
HETATM   29  C   UNL     1      15.945  50.709  45.438  1.00  0.00     0.037 A 
HETATM   30  C   UNL     1      16.378  51.432  44.328  1.00  0.00     0.068 A 
HETATM   31  C   UNL     1      17.637  51.161  43.789  1.00  0.00     0.037 A 
HETATM   32  C   UNL     1      18.467  50.189  44.360  1.00  0.00     0.016 A 
BRANCH  30  33
HETATM   33  O   UNL     1      15.679  52.419  43.691  1.00  0.00    -0.351 OA
BRANCH  33  34
HETATM   34  C   UNL     1      16.116  53.762  43.904  1.00  0.00     0.175 C 
BRANCH  34  35
HETATM   35  C   UNL     1      14.903  54.594  44.310  1.00  0.00     0.022 C 
HETATM   36  C   UNL     1      14.366  54.180  45.669  1.00  0.00     0.007 C 
ENDBRANCH  34  35
ENDBRANCH  33  34
ENDBRANCH  30  33
ENDBRANCH   1  27
TORSDOF 7
ENDMDL
MODEL 7
REMARK VINA RESULT:      -8.3     10.387     13.761
REMARK  7 active torsions:
REMARK  status: ('A' for Active; 'I' for Inactive)
REMARK    1  A    between atoms: C_2  and  C_3 
REMARK    2  A    between atoms: C_3  and  O_4 
REMARK    3  A    between atoms: O_4  and  C_5 
REMARK    4  A    between atoms: C_8  and  C_9 
REMARK    5  A    between atoms: C_15  and  C_16 
REMARK    6  A    between atoms: C_19  and  N_20 
REMARK       I    between atoms: N_20  and  C_21 
REMARK    7  A    between atoms: C_29  and  N_30 
ROOT
HETATM    1  C   UNL     1      16.948  52.618  49.283  1.00  0.00     0.072 A 
HETATM    2  N   UNL     1      16.350  53.164  50.400  1.00  0.00    -0.274 N 
HETATM    3  H   UNL     1      16.713  53.182  51.347  1.00  0.00     0.189 HD
HETATM    4  N   UNL     1      15.147  53.725  50.167  1.00  0.00    -0.148 NA
HETATM    5  C   UNL     1      14.997  53.536  48.863  1.00  0.00     0.199 A 
HETATM    6  C   UNL     1      16.061  52.869  48.248  1.00  0.00     0.040 A 
HETATM    7  C   UNL     1      16.024  52.584  46.787  1.00  0.00     0.106 A 
HETATM    8  C   UNL     1      14.732  53.092  46.157  1.00  0.00     0.081 A 
HETATM    9  C   UNL     1      14.600  52.924  44.748  1.00  0.00     0.100 C 
HETATM   10  N   UNL     1      14.499  52.785  43.600  1.00  0.00    -0.191 NA
HETATM   11  C   UNL     1      13.763  53.726  46.869  1.00  0.00     0.140 A 
HETATM   12  O   UNL     1      13.878  53.955  48.247  1.00  0.00    -0.277 OA
ENDROOT
BRANCH   7  13
HETATM   13  C   UNL     1      16.225  51.083  46.618  1.00  0.00    -0.044 A 
HETATM   14  C   UNL     1      15.302  50.135  47.086  1.00  0.00     0.010 A 
HETATM   15  C   UNL     1      15.521  48.763  46.901  1.00  0.00     0.030 A 
HETATM   16  C   UNL     1      16.658  48.310  46.232  1.00  0.00     0.034 A 
HETATM   17  C   UNL     1      17.572  49.250  45.745  1.00  0.00     0.030 A 
HETATM   18  C   UNL     1      17.358  50.619  45.931  1.00  0.00     0.010 A 
BRANCH  16  19
HETATM   19  N   UNL     1      16.955  46.951  46.004  1.00  0.00    -0.328 N 
HETATM   20  C   UNL     1      17.434  46.027  46.915  1.00  0.00     0.218 C 
HETATM   21  C   UNL     1      17.613  44.662  46.296  1.00  0.00     0.117 C 
HETATM   22  O   UNL     1      17.682  46.216  48.100  1.00  0.00    -0.274 OA
HETATM   23  H   UNL     1      16.797  46.619  45.061  1.00  0.00     0.169 HD
ENDBRANCH  16  19
ENDBRANCH   7  13
BRANCH  11  24
HETATM   24  N   UNL     1      12.584  54.213  46.348  1.00  0.00    -0.282 NA
HETATM   25  H   UNL     1      12.551  54.295  45.335  1.00  0.00     0.126 HD
HETATM   26  H   UNL     1      11.774  53.729  46.732  1.00  0.00     0.126 HD
ENDBRANCH  11  24
BRANCH   1  27
HETATM   27  C   UNL     1      18.222  51.910  49.339  1.00  0.00    -0.007 A 
HETATM   28  C   UNL     1      18.357  50.762  50.130  1.00  0.00     0.016 A 
HETATM   29  C   UNL     1      19.559  50.046  50.158  1.00  0.00     0.037 A 
HETATM   30  C   UNL     1      20.642  50.464  49.387  1.00  0.00     0.068 A 
HETATM   31  C   UNL     1      20.517  51.616  48.607  1.00  0.00     0.037 A 
HETATM   32  C   UNL     1      19.318  52.337  48.584  1.00  0.00     0.016 A 
BRANCH  30  33
HETATM   33  O   UNL     1      21.856  49.841  49.302  1.00  0.00    -0.351 OA
BRANCH  33  34
HETATM   34  C   UNL     1      22.999  50.674  49.102  1.00  0.00     0.175 C 
BRANCH  34  35
HETATM   35  C   UNL     1      23.765  50.142  47.895  1.00  0.00     0.022 C 
HETATM   36  C   UNL     1      25.224  49.881  48.226  1.00  0.00     0.007 C 
ENDBRANCH  34  35
ENDBRANCH  33  34
ENDBRANCH  30  33
ENDBRANCH   1  27
TORSDOF 7
ENDMDL
MODEL 8
REMARK VINA RESULT:      -8.2      2.760      6.815
REMARK  7 active torsions:
REMARK  status: ('A' for Active; 'I' for Inactive)
REMARK    1  A    between atoms: C_2  and  C_3 
REMARK    2  A    between atoms: C_3  and  O_4 
REMARK    3  A    between atoms: O_4  and  C_5 
REMARK    4  A    between atoms: C_8  and  C_9 
REMARK    5  A    between atoms: C_15  and  C_16 
REMARK    6  A    between atoms: C_19  and  N_20 
REMARK       I    between atoms: N_20  and  C_21 
REMARK    7  A    between atoms: C_29  and  N_30 
ROOT
HETATM    1  C   UNL     1      26.944  42.655  52.669  1.00  0.00     0.072 A 
HETATM    2  N   UNL     1      26.998  42.410  54.026  1.00  0.00    -0.274 N 
HETATM    3  H   UNL     1      27.212  41.532  54.486  1.00  0.00     0.189 HD
HETATM    4  N   UNL     1      26.727  43.484  54.795  1.00  0.00    -0.148 NA
HETATM    5  C   UNL     1      26.511  44.429  53.890  1.00  0.00     0.199 A 
HETATM    6  C   UNL     1      26.631  44.002  52.565  1.00  0.00     0.040 A 
HETATM    7  C   UNL     1      26.410  44.958  51.445  1.00  0.00     0.106 A 
HETATM    8  C   UNL     1      26.051  46.345  51.965  1.00  0.00     0.081 A 
HETATM    9  C   UNL     1      25.865  47.365  50.987  1.00  0.00     0.100 C 
HETATM   10  N   UNL     1      25.716  48.192  50.185  1.00  0.00    -0.191 NA
HETATM   11  C   UNL     1      25.960  46.636  53.290  1.00  0.00     0.140 A 
HETATM   12  O   UNL     1      26.185  45.673  54.283  1.00  0.00    -0.277 OA
ENDROOT
BRANCH   7  13
HETATM   13  C   UNL     1      25.336  44.356  50.547  1.00  0.00    -0.044 A 
HETATM   14  C   UNL     1      24.016  44.148  50.976  1.00  0.00     0.010 A 
HETATM   15  C   UNL     1      23.056  43.599  50.115  1.00  0.00     0.030 A 
HETATM   16  C   UNL     1      23.389  43.263  48.803  1.00  0.00     0.034 A 
HETATM   17  C   UNL     1      24.697  43.488  48.363  1.00  0.00     0.030 A 
HETATM   18  C   UNL     1      25.658  44.031  49.221  1.00  0.00     0.010 A 
BRANCH  16  19
HETATM   19  N   UNL     1      22.487  42.708  47.873  1.00  0.00    -0.328 N 
HETATM   20  C   UNL     1      21.782  43.368  46.882  1.00  0.00     0.218 C 
HETATM   21  C   UNL     1      20.926  42.425  46.074  1.00  0.00     0.117 C 
HETATM   22  O   UNL     1      21.819  44.564  46.620  1.00  0.00    -0.274 OA
HETATM   23  H   UNL     1      22.342  41.709  47.944  1.00  0.00     0.169 HD
ENDBRANCH  16  19
ENDBRANCH   7  13
BRANCH  11  24
HETATM   24  N   UNL     1      25.649  47.873  53.812  1.00  0.00    -0.282 NA
HETATM   25  H   UNL     1      26.443  48.440  54.103  1.00  0.00     0.126 HD
HETATM   26  H   UNL     1      24.998  48.380  53.217  1.00  0.00     0.126 HD
ENDBRANCH  11  24
BRANCH   1  27
HETATM   27  C   UNL     1      27.144  41.610  51.672  1.00  0.00    -0.007 A 
HETATM   28  C   UNL     1      28.433  41.142  51.389  1.00  0.00     0.016 A 
HETATM   29  C   UNL     1      28.637  40.108  50.468  1.00  0.00     0.037 A 
HETATM   30  C   UNL     1      27.550  39.522  49.821  1.00  0.00     0.068 A 
HETATM   31  C   UNL     1      26.264  39.996  50.089  1.00  0.00     0.037 A 
HETATM   32  C   UNL     1      26.059  41.033  51.005  1.00  0.00     0.016 A 
BRANCH  30  33
HETATM   33  O   UNL     1      27.610  38.491  48.926  1.00  0.00    -0.351 OA
BRANCH  33  34
HETATM   34  C   UNL     1      28.476  38.658  47.803  1.00  0.00     0.175 C 
BRANCH  34  35
HETATM   35  C   UNL     1      27.669  39.291  46.673  1.00  0.00     0.022 C 
HETATM   36  C   UNL     1      28.048  40.745  46.456  1.00  0.00     0.007 C 
ENDBRANCH  34  35
ENDBRANCH  33  34
ENDBRANCH  30  33
ENDBRANCH   1  27
TORSDOF 7
ENDMDL
MODEL 9
REMARK VINA RESULT:      -7.9      6.438     10.223
REMARK  7 active torsions:
REMARK  status: ('A' for Active; 'I' for Inactive)
REMARK    1  A    between atoms: C_2  and  C_3 
REMARK    2  A    between atoms: C_3  and  O_4 
REMARK    3  A    between atoms: O_4  and  C_5 
REMARK    4  A    between atoms: C_8  and  C_9 
REMARK    5  A    between atoms: C_15  and  C_16 
REMARK    6  A    between atoms: C_19  and  N_20 
REMARK       I    between atoms: N_20  and  C_21 
REMARK    7  A    between atoms: C_29  and  N_30 
ROOT
HETATM    1  C   UNL     1      23.011  49.934  48.749  1.00  0.00     0.072 A 
HETATM    2  N   UNL     1      24.082  50.712  48.359  1.00  0.00    -0.274 N 
HETATM    3  H   UNL     1      24.064  51.682  48.065  1.00  0.00     0.189 HD
HETATM    4  N   UNL     1      25.269  50.074  48.385  1.00  0.00    -0.148 NA
HETATM    5  C   UNL     1      24.930  48.867  48.816  1.00  0.00     0.199 A 
HETATM    6  C   UNL     1      23.565  48.703  49.067  1.00  0.00     0.040 A 
HETATM    7  C   UNL     1      23.042  47.396  49.551  1.00  0.00     0.106 A 
HETATM    8  C   UNL     1      24.162  46.371  49.693  1.00  0.00     0.081 A 
HETATM    9  C   UNL     1      23.794  45.090  50.199  1.00  0.00     0.100 C 
HETATM   10  N   UNL     1      23.489  44.050  50.614  1.00  0.00    -0.191 NA
HETATM   11  C   UNL     1      25.461  46.654  49.410  1.00  0.00     0.140 A 
HETATM   12  O   UNL     1      25.869  47.915  48.958  1.00  0.00    -0.277 OA
ENDROOT
BRANCH   7  13
HETATM   13  C   UNL     1      21.950  46.962  48.580  1.00  0.00    -0.044 A 
HETATM   14  C   UNL     1      20.585  47.170  48.830  1.00  0.00     0.010 A 
HETATM   15  C   UNL     1      19.613  46.764  47.906  1.00  0.00     0.030 A 
HETATM   16  C   UNL     1      19.984  46.156  46.707  1.00  0.00     0.034 A 
HETATM   17  C   UNL     1      21.344  45.964  46.443  1.00  0.00     0.030 A 
HETATM   18  C   UNL     1      22.315  46.365  47.364  1.00  0.00     0.010 A 
BRANCH  16  19
HETATM   19  N   UNL     1      19.073  45.717  45.724  1.00  0.00    -0.328 N 
HETATM   20  C   UNL     1      17.943  44.941  45.907  1.00  0.00     0.218 C 
HETATM   21  C   UNL     1      17.211  44.693  44.611  1.00  0.00     0.117 C 
HETATM   22  O   UNL     1      17.515  44.495  46.964  1.00  0.00    -0.274 OA
HETATM   23  H   UNL     1      19.275  46.009  44.776  1.00  0.00     0.169 HD
ENDBRANCH  16  19
ENDBRANCH   7  13
BRANCH  11  24
HETATM   24  N   UNL     1      26.511  45.769  49.531  1.00  0.00    -0.282 NA
HETATM   25  H   UNL     1      26.427  45.086  50.280  1.00  0.00     0.126 HD
HETATM   26  H   UNL     1      26.752  45.347  48.637  1.00  0.00     0.126 HD
ENDBRANCH  11  24
BRANCH   1  27
HETATM   27  C   UNL     1      21.636  50.419  48.729  1.00  0.00    -0.007 A 
HETATM   28  C   UNL     1      21.038  50.893  49.904  1.00  0.00     0.016 A 
HETATM   29  C   UNL     1      19.735  51.404  49.892  1.00  0.00     0.037 A 
HETATM   30  C   UNL     1      19.014  51.457  48.701  1.00  0.00     0.068 A 
HETATM   31  C   UNL     1      19.601  50.973  47.529  1.00  0.00     0.037 A 
HETATM   32  C   UNL     1      20.901  50.455  47.541  1.00  0.00     0.016 A 
BRANCH  30  33
HETATM   33  O   UNL     1      17.751  51.956  48.548  1.00  0.00    -0.351 OA
BRANCH  33  34
HETATM   34  C   UNL     1      16.829  51.719  49.612  1.00  0.00     0.175 C 
BRANCH  34  35
HETATM   35  C   UNL     1      16.241  53.062  50.036  1.00  0.00     0.022 C 
HETATM   36  C   UNL     1      14.761  52.952  50.358  1.00  0.00     0.007 C 
ENDBRANCH  34  35
ENDBRANCH  33  34
ENDBRANCH  30  33
ENDBRANCH   1  27
TORSDOF 7
ENDMDL
MODEL 10
REMARK VINA RESULT:      -7.8      9.064     12.053
REMARK  7 active torsions:
REMARK  status: ('A' for Active; 'I' for Inactive)
REMARK    1  A    between atoms: C_2  and  C_3 
REMARK    2  A    between atoms: C_3  and  O_4 
REMARK    3  A    between atoms: O_4  and  C_5 
REMARK    4  A    between atoms: C_8  and  C_9 
REMARK    5  A    between atoms: C_15  and  C_16 
REMARK    6  A    between atoms: C_19  and  N_20 
REMARK       I    between atoms: N_20  and  C_21 
REMARK    7  A    between atoms: C_29  and  N_30 
ROOT
HETATM    1  C   UNL     1      20.734  49.905  48.340  1.00  0.00     0.072 A 
HETATM    2  N   UNL     1      22.025  50.332  48.109  1.00  0.00    -0.274 N 
HETATM    3  H   UNL     1      22.398  51.266  48.241  1.00  0.00     0.189 HD
HETATM    4  N   UNL     1      22.854  49.371  47.656  1.00  0.00    -0.148 NA
HETATM    5  C   UNL     1      22.060  48.310  47.616  1.00  0.00     0.199 A 
HETATM    6  C   UNL     1      20.746  48.555  48.026  1.00  0.00     0.040 A 
HETATM    7  C   UNL     1      19.743  47.454  48.027  1.00  0.00     0.106 A 
HETATM    8  C   UNL     1      20.356  46.148  47.533  1.00  0.00     0.081 A 
HETATM    9  C   UNL     1      19.506  45.003  47.537  1.00  0.00     0.100 C 
HETATM   10  N   UNL     1      18.810  44.074  47.544  1.00  0.00    -0.191 NA
HETATM   11  C   UNL     1      21.656  46.039  47.155  1.00  0.00     0.140 A 
HETATM   12  O   UNL     1      22.536  47.129  47.185  1.00  0.00    -0.277 OA
ENDROOT
BRANCH   7  13
HETATM   13  C   UNL     1      18.563  47.921  47.184  1.00  0.00    -0.044 A 
HETATM   14  C   UNL     1      18.690  48.280  45.833  1.00  0.00     0.010 A 
HETATM   15  C   UNL     1      17.577  48.697  45.090  1.00  0.00     0.030 A 
HETATM   16  C   UNL     1      16.312  48.747  45.675  1.00  0.00     0.034 A 
HETATM   17  C   UNL     1      16.175  48.370  47.015  1.00  0.00     0.030 A 
HETATM   18  C   UNL     1      17.284  47.959  47.759  1.00  0.00     0.010 A 
BRANCH  16  19
HETATM   19  N   UNL     1      15.142  49.153  45.002  1.00  0.00    -0.328 N 
HETATM   20  C   UNL     1      14.544  50.400  45.024  1.00  0.00     0.218 C 
HETATM   21  C   UNL     1      13.309  50.451  44.159  1.00  0.00     0.117 C 
HETATM   22  O   UNL     1      14.928  51.394  45.629  1.00  0.00    -0.274 OA
HETATM   23  H   UNL     1      14.692  48.444  44.437  1.00  0.00     0.169 HD
ENDBRANCH  16  19
ENDBRANCH   7  13
BRANCH  11  24
HETATM   24  N   UNL     1      22.261  44.883  46.711  1.00  0.00    -0.282 NA
HETATM   25  H   UNL     1      21.837  44.450  45.894  1.00  0.00     0.126 HD
HETATM   26  H   UNL     1      23.269  44.996  46.620  1.00  0.00     0.126 HD
ENDBRANCH  11  24
BRANCH   1  27
HETATM   27  C   UNL     1      19.672  50.805  48.773  1.00  0.00    -0.007 A 
HETATM   28  C   UNL     1      19.440  52.004  48.085  1.00  0.00     0.016 A 
HETATM   29  C   UNL     1      18.395  52.857  48.460  1.00  0.00     0.037 A 
HETATM   30  C   UNL     1      17.561  52.518  49.524  1.00  0.00     0.068 A 
HETATM   31  C   UNL     1      17.797  51.331  50.220  1.00  0.00     0.037 A 
HETATM   32  C   UNL     1      18.845  50.481  49.852  1.00  0.00     0.016 A 
BRANCH  30  33
HETATM   33  O   UNL     1      16.493  53.245  49.970  1.00  0.00    -0.351 OA
BRANCH  33  34
HETATM   34  C   UNL     1      15.218  52.603  49.947  1.00  0.00     0.175 C 
BRANCH  34  35
HETATM   35  C   UNL     1      14.147  53.669  50.158  1.00  0.00     0.022 C 
HETATM   36  C   UNL     1      14.469  54.946  49.402  1.00  0.00     0.007 C 
ENDBRANCH  34  35
ENDBRANCH  33  34
ENDBRANCH  30  33
ENDBRANCH   1  27
TORSDOF 7
ENDMDL
