MODEL 1
REMARK VINA RESULT:      -9.7      0.000      0.000
REMARK  11 active torsions:
REMARK  status: ('A' for Active; 'I' for Inactive)
REMARK    1  A    between atoms: O_2  and  C_3 
REMARK    2  A    between atoms: C_6  and  C_7 
REMARK    3  A    between atoms: C_7  and  N_8 
REMARK    4  A    between atoms: N_8  and  C_9 
REMARK    5  A    between atoms: N_8  and  C_22 
REMARK    6  A    between atoms: C_9  and  N_10 
REMARK    7  A    between atoms: N_10  and  C_11 
REMARK    8  A    between atoms: C_11  and  C_12 
REMARK    9  A    between atoms: C_12  and  C_13 
REMARK   10  A    between atoms: C_13  and  N_14 
REMARK   11  A    between atoms: C_22  and  C_23 
ROOT
HETATM    1  N   UNL     1      25.330  45.370  51.215  1.00  0.00    -0.350 N 
ENDROOT
BRANCH   1   2
HETATM    2  C   UNL     1      26.346  46.412  50.939  1.00  0.00     0.164 C 
BRANCH   2   3
HETATM    3  C   UNL     1      25.906  47.581  50.091  1.00  0.00    -0.040 A 
HETATM    4  C   UNL     1      26.823  48.428  49.456  1.00  0.00     0.011 A 
HETATM    5  C   UNL     1      26.371  49.446  48.608  1.00  0.00     0.037 A 
HETATM    6  C   UNL     1      25.004  49.615  48.384  1.00  0.00     0.068 A 
HETATM    7  C   UNL     1      24.084  48.795  49.028  1.00  0.00     0.037 A 
HETATM    8  C   UNL     1      24.532  47.773  49.861  1.00  0.00     0.011 A 
BRANCH   6   9
HETATM    9  O   UNL     1      24.482  50.593  47.585  1.00  0.00    -0.356 OA
HETATM   10  C   UNL     1      23.062  50.693  47.667  1.00  0.00     0.210 C 
ENDBRANCH   6   9
ENDBRANCH   2   3
ENDBRANCH   1   2
BRANCH   1  11
HETATM   11  C   UNL     1      25.186  44.259  50.358  1.00  0.00     0.170 C 
HETATM   12  S   UNL     1      23.736  43.499  49.973  1.00  0.00    -0.041 SA
BRANCH  11  13
HETATM   13  N   UNL     1      26.410  43.810  49.883  1.00  0.00    -0.367 N 
HETATM   14  H   UNL     1      26.984  44.518  49.443  1.00  0.00     0.161 HD
BRANCH  13  15
HETATM   15  C   UNL     1      26.770  42.434  49.571  1.00  0.00     0.123 C 
BRANCH  15  16
HETATM   16  C   UNL     1      26.848  41.554  50.814  1.00  0.00     0.047 C 
BRANCH  16  17
HETATM   17  C   UNL     1      28.241  41.056  51.193  1.00  0.00     0.236 C 
BRANCH  17  18
HETATM   18  N   UNL     1      28.571  39.682  50.671  1.00  0.00    -0.067 N 
HETATM   19  H   UNL     1      27.718  39.101  50.767  1.00  0.00     0.280 HD
HETATM   20  C   UNL     1      29.008  39.644  49.214  1.00  0.00     0.261 C 
HETATM   21  C   UNL     1      29.359  38.208  48.808  1.00  0.00     0.195 C 
HETATM   22  O   UNL     1      30.381  37.672  49.656  1.00  0.00    -0.388 OA
HETATM   23  C   UNL     1      29.944  37.606  51.017  1.00  0.00     0.195 C 
HETATM   24  C   UNL     1      29.621  39.004  51.554  1.00  0.00     0.261 C 
ENDBRANCH  17  18
ENDBRANCH  16  17
ENDBRANCH  15  16
ENDBRANCH  13  15
ENDBRANCH  11  13
ENDBRANCH   1  11
BRANCH   1  25
HETATM   25  C   UNL     1      25.140  45.104  52.671  1.00  0.00     0.169 C 
BRANCH  25  26
HETATM   26  C   UNL     1      26.416  45.428  53.406  1.00  0.00     0.029 C 
HETATM   27  C   UNL     1      26.433  46.677  54.229  1.00  0.00     0.253 C 
HETATM   28  O   UNL     1      25.550  47.526  54.130  1.00  0.00    -0.268 OA
HETATM   29  N   UNL     1      27.454  46.811  55.130  1.00  0.00    -0.322 N 
HETATM   30  C   UNL     1      28.473  45.866  55.295  1.00  0.00     0.048 A 
HETATM   31  H   UNL     1      27.424  47.632  55.721  1.00  0.00     0.169 HD
HETATM   32  C   UNL     1      28.529  44.761  54.418  1.00  0.00    -0.006 A 
HETATM   33  C   UNL     1      29.377  45.997  56.350  1.00  0.00     0.070 A 
HETATM   34  C   UNL     1      29.496  43.766  54.601  1.00  0.00     0.053 A 
HETATM   35  C   UNL     1      27.479  44.602  53.413  1.00  0.00     0.028 C 
HETATM   36  C   UNL     1      30.348  43.897  55.675  1.00  0.00     0.106 A 
HETATM   37  C   UNL     1      30.289  44.978  56.525  1.00  0.00     0.107 A 
HETATM   38  O   UNL     1      31.288  42.992  56.051  1.00  0.00    -0.323 OA
HETATM   39  O   UNL     1      31.188  44.884  57.540  1.00  0.00    -0.323 OA
HETATM   40  C   UNL     1      31.774  43.592  57.270  1.00  0.00     0.352 A 
ENDBRANCH  25  26
ENDBRANCH   1  25
TORSDOF 11
ENDMDL
MODEL 2
REMARK VINA RESULT:      -9.3      2.108      7.513
REMARK  11 active torsions:
REMARK  status: ('A' for Active; 'I' for Inactive)
REMARK    1  A    between atoms: O_2  and  C_3 
REMARK    2  A    between atoms: C_6  and  C_7 
REMARK    3  A    between atoms: C_7  and  N_8 
REMARK    4  A    between atoms: N_8  and  C_9 
REMARK    5  A    between atoms: N_8  and  C_22 
REMARK    6  A    between atoms: C_9  and  N_10 
REMARK    7  A    between atoms: N_10  and  C_11 
REMARK    8  A    between atoms: C_11  and  C_12 
REMARK    9  A    between atoms: C_12  and  C_13 
REMARK   10  A    between atoms: C_13  and  N_14 
REMARK   11  A    between atoms: C_22  and  C_23 
ROOT
HETATM    1  N   UNL     1      25.492  44.786  51.555  1.00  0.00    -0.350 N 
ENDROOT
BRANCH   1   2
HETATM    2  C   UNL     1      25.126  43.381  51.259  1.00  0.00     0.164 C 
BRANCH   2   3
HETATM    3  C   UNL     1      26.207  42.508  50.670  1.00  0.00    -0.040 A 
HETATM    4  C   UNL     1      27.087  41.770  51.472  1.00  0.00     0.011 A 
HETATM    5  C   UNL     1      28.019  40.906  50.884  1.00  0.00     0.037 A 
HETATM    6  C   UNL     1      28.067  40.769  49.495  1.00  0.00     0.068 A 
HETATM    7  C   UNL     1      27.214  41.515  48.690  1.00  0.00     0.037 A 
HETATM    8  C   UNL     1      26.278  42.365  49.274  1.00  0.00     0.011 A 
BRANCH   6   9
HETATM    9  O   UNL     1      28.955  39.960  48.844  1.00  0.00    -0.356 OA
HETATM   10  C   UNL     1      28.922  38.606  49.295  1.00  0.00     0.210 C 
ENDBRANCH   6   9
ENDBRANCH   2   3
ENDBRANCH   1   2
BRANCH   1  11
HETATM   11  C   UNL     1      25.339  45.792  50.578  1.00  0.00     0.170 C 
HETATM   12  S   UNL     1      26.592  46.612  49.812  1.00  0.00    -0.041 SA
BRANCH  11  13
HETATM   13  N   UNL     1      24.004  46.079  50.336  1.00  0.00    -0.367 N 
HETATM   14  H   UNL     1      23.486  46.414  51.139  1.00  0.00     0.161 HD
BRANCH  13  15
HETATM   15  C   UNL     1      23.193  45.578  49.235  1.00  0.00     0.123 C 
BRANCH  15  16
HETATM   16  C   UNL     1      22.677  46.695  48.333  1.00  0.00     0.047 C 
BRANCH  16  17
HETATM   17  C   UNL     1      22.978  48.119  48.795  1.00  0.00     0.236 C 
BRANCH  17  18
HETATM   18  N   UNL     1      21.847  48.781  49.538  1.00  0.00    -0.067 N 
HETATM   19  H   UNL     1      21.896  48.464  50.523  1.00  0.00     0.280 HD
HETATM   20  C   UNL     1      21.883  50.301  49.525  1.00  0.00     0.261 C 
HETATM   21  C   UNL     1      20.665  50.861  50.269  1.00  0.00     0.195 C 
HETATM   22  O   UNL     1      19.446  50.381  49.690  1.00  0.00    -0.388 OA
HETATM   23  C   UNL     1      19.353  48.956  49.789  1.00  0.00     0.195 C 
HETATM   24  C   UNL     1      20.495  48.281  49.022  1.00  0.00     0.261 C 
ENDBRANCH  17  18
ENDBRANCH  16  17
ENDBRANCH  15  16
ENDBRANCH  13  15
ENDBRANCH  11  13
ENDBRANCH   1  11
BRANCH   1  25
HETATM   25  C   UNL     1      25.194  45.187  52.962  1.00  0.00     0.169 C 
BRANCH  25  26
HETATM   26  C   UNL     1      26.487  45.491  53.677  1.00  0.00     0.029 C 
HETATM   27  C   UNL     1      26.522  46.718  54.530  1.00  0.00     0.253 C 
HETATM   28  O   UNL     1      25.639  47.570  54.473  1.00  0.00    -0.268 OA
HETATM   29  N   UNL     1      27.563  46.829  55.413  1.00  0.00    -0.322 N 
HETATM   30  C   UNL     1      28.585  45.879  55.531  1.00  0.00     0.048 A 
HETATM   31  H   UNL     1      27.546  47.634  56.025  1.00  0.00     0.169 HD
HETATM   32  C   UNL     1      28.620  44.798  54.624  1.00  0.00    -0.006 A 
HETATM   33  C   UNL     1      29.511  45.983  56.569  1.00  0.00     0.070 A 
HETATM   34  C   UNL     1      29.590  43.797  54.761  1.00  0.00     0.053 A 
HETATM   35  C   UNL     1      27.548  44.664  53.639  1.00  0.00     0.028 C 
HETATM   36  C   UNL     1      30.466  43.901  55.819  1.00  0.00     0.106 A 
HETATM   37  C   UNL     1      30.426  44.960  56.697  1.00  0.00     0.107 A 
HETATM   38  O   UNL     1      31.413  42.986  56.151  1.00  0.00    -0.323 OA
HETATM   39  O   UNL     1      31.347  44.839  57.690  1.00  0.00    -0.323 OA
HETATM   40  C   UNL     1      31.926  43.554  57.374  1.00  0.00     0.352 A 
ENDBRANCH  25  26
ENDBRANCH   1  25
TORSDOF 11
ENDMDL
MODEL 3
REMARK VINA RESULT:      -9.2      2.977      5.036
REMARK  11 active torsions:
REMARK  status: ('A' for Active; 'I' for Inactive)
REMARK    1  A    between atoms: O_2  and  C_3 
REMARK    2  A    between atoms: C_6  and  C_7 
REMARK    3  A    between atoms: C_7  and  N_8 
REMARK    4  A    between atoms: N_8  and  C_9 
REMARK    5  A    between atoms: N_8  and  C_22 
REMARK    6  A    between atoms: C_9  and  N_10 
REMARK    7  A    between atoms: N_10  and  C_11 
REMARK    8  A    between atoms: C_11  and  C_12 
REMARK    9  A    between atoms: C_12  and  C_13 
REMARK   10  A    between atoms: C_13  and  N_14 
REMARK   11  A    between atoms: C_22  and  C_23 
ROOT
HETATM    1  N   UNL     1      25.496  45.394  51.493  1.00  0.00    -0.350 N 
ENDROOT
BRANCH   1   2
HETATM    2  C   UNL     1      26.381  46.515  51.100  1.00  0.00     0.164 C 
BRANCH   2   3
HETATM    3  C   UNL     1      25.813  47.515  50.122  1.00  0.00    -0.040 A 
HETATM    4  C   UNL     1      24.436  47.643  49.902  1.00  0.00     0.011 A 
HETATM    5  C   UNL     1      23.948  48.642  49.051  1.00  0.00     0.037 A 
HETATM    6  C   UNL     1      24.833  49.523  48.427  1.00  0.00     0.068 A 
HETATM    7  C   UNL     1      26.204  49.389  48.620  1.00  0.00     0.037 A 
HETATM    8  C   UNL     1      26.690  48.404  49.476  1.00  0.00     0.011 A 
BRANCH   6   9
HETATM    9  O   UNL     1      24.439  50.514  47.572  1.00  0.00    -0.356 OA
HETATM   10  C   UNL     1      23.112  50.977  47.818  1.00  0.00     0.210 C 
ENDBRANCH   6   9
ENDBRANCH   2   3
ENDBRANCH   1   2
BRANCH   1  11
HETATM   11  C   UNL     1      25.568  44.151  50.829  1.00  0.00     0.170 C 
HETATM   12  S   UNL     1      26.914  43.550  50.018  1.00  0.00    -0.041 SA
BRANCH  11  13
HETATM   13  N   UNL     1      24.361  43.470  50.873  1.00  0.00    -0.367 N 
HETATM   14  H   UNL     1      24.009  43.281  51.804  1.00  0.00     0.161 HD
BRANCH  13  15
HETATM   15  C   UNL     1      23.781  42.659  49.811  1.00  0.00     0.123 C 
BRANCH  15  16
HETATM   16  C   UNL     1      23.377  43.488  48.596  1.00  0.00     0.047 C 
BRANCH  16  17
HETATM   17  C   UNL     1      22.508  44.711  48.881  1.00  0.00     0.236 C 
BRANCH  17  18
HETATM   18  N   UNL     1      21.308  44.841  47.981  1.00  0.00    -0.067 N 
HETATM   19  H   UNL     1      21.464  45.666  47.373  1.00  0.00     0.280 HD
HETATM   20  C   UNL     1      21.049  43.637  47.088  1.00  0.00     0.261 C 
HETATM   21  C   UNL     1      19.784  43.863  46.254  1.00  0.00     0.195 C 
HETATM   22  O   UNL     1      18.654  44.119  47.096  1.00  0.00    -0.388 OA
HETATM   23  C   UNL     1      18.841  45.310  47.867  1.00  0.00     0.195 C 
HETATM   24  C   UNL     1      20.054  45.174  48.794  1.00  0.00     0.261 C 
ENDBRANCH  17  18
ENDBRANCH  16  17
ENDBRANCH  15  16
ENDBRANCH  13  15
ENDBRANCH  11  13
ENDBRANCH   1  11
BRANCH   1  25
HETATM   25  C   UNL     1      25.236  45.337  52.962  1.00  0.00     0.169 C 
BRANCH  25  26
HETATM   26  C   UNL     1      26.519  45.614  53.705  1.00  0.00     0.029 C 
HETATM   27  C   UNL     1      26.549  46.819  54.590  1.00  0.00     0.253 C 
HETATM   28  O   UNL     1      25.672  47.678  54.540  1.00  0.00    -0.268 OA
HETATM   29  N   UNL     1      27.575  46.900  55.492  1.00  0.00    -0.322 N 
HETATM   30  C   UNL     1      28.589  45.939  55.602  1.00  0.00     0.048 A 
HETATM   31  H   UNL     1      27.555  47.689  56.124  1.00  0.00     0.169 HD
HETATM   32  C   UNL     1      28.632  44.881  54.669  1.00  0.00    -0.006 A 
HETATM   33  C   UNL     1      29.499  46.010  56.658  1.00  0.00     0.070 A 
HETATM   34  C   UNL     1      29.592  43.870  54.796  1.00  0.00     0.053 A 
HETATM   35  C   UNL     1      27.575  44.781  53.664  1.00  0.00     0.028 C 
HETATM   36  C   UNL     1      30.451  43.941  55.870  1.00  0.00     0.106 A 
HETATM   37  C   UNL     1      30.404  44.977  56.775  1.00  0.00     0.107 A 
HETATM   38  O   UNL     1      31.386  43.010  56.194  1.00  0.00    -0.323 OA
HETATM   39  O   UNL     1      31.307  44.824  57.779  1.00  0.00    -0.323 OA
HETATM   40  C   UNL     1      31.883  43.544  57.440  1.00  0.00     0.352 A 
ENDBRANCH  25  26
ENDBRANCH   1  25
TORSDOF 11
ENDMDL
MODEL 4
REMARK VINA RESULT:      -8.6      2.527      9.083
REMARK  11 active torsions:
REMARK  status: ('A' for Active; 'I' for Inactive)
REMARK    1  A    between atoms: O_2  and  C_3 
REMARK    2  A    between atoms: C_6  and  C_7 
REMARK    3  A    between atoms: C_7  and  N_8 
REMARK    4  A    between atoms: N_8  and  C_9 
REMARK    5  A    between atoms: N_8  and  C_22 
REMARK    6  A    between atoms: C_9  and  N_10 
REMARK    7  A    between atoms: N_10  and  C_11 
REMARK    8  A    between atoms: C_11  and  C_12 
REMARK    9  A    between atoms: C_12  and  C_13 
REMARK   10  A    between atoms: C_13  and  N_14 
REMARK   11  A    between atoms: C_22  and  C_23 
ROOT
HETATM    1  N   UNL     1      25.946  44.857  52.155  1.00  0.00    -0.350 N 
ENDROOT
BRANCH   1   2
HETATM    2  C   UNL     1      27.298  44.475  51.687  1.00  0.00     0.164 C 
BRANCH   2   3
HETATM    3  C   UNL     1      28.274  44.011  52.741  1.00  0.00    -0.040 A 
HETATM    4  C   UNL     1      29.302  43.103  52.456  1.00  0.00     0.011 A 
HETATM    5  C   UNL     1      30.238  42.767  53.442  1.00  0.00     0.037 A 
HETATM    6  C   UNL     1      30.156  43.344  54.710  1.00  0.00     0.068 A 
HETATM    7  C   UNL     1      29.125  44.228  55.010  1.00  0.00     0.037 A 
HETATM    8  C   UNL     1      28.202  44.574  54.027  1.00  0.00     0.011 A 
BRANCH   6   9
HETATM    9  O   UNL     1      31.020  43.058  55.730  1.00  0.00    -0.356 OA
HETATM   10  C   UNL     1      31.123  44.105  56.693  1.00  0.00     0.210 C 
ENDBRANCH   6   9
ENDBRANCH   2   3
ENDBRANCH   1   2
BRANCH   1  11
HETATM   11  C   UNL     1      25.551  46.211  52.189  1.00  0.00     0.170 C 
HETATM   12  S   UNL     1      25.914  47.307  53.412  1.00  0.00    -0.041 SA
BRANCH  11  13
HETATM   13  N   UNL     1      24.767  46.549  51.095  1.00  0.00    -0.367 N 
HETATM   14  H   UNL     1      24.155  45.814  50.763  1.00  0.00     0.161 HD
BRANCH  13  15
HETATM   15  C   UNL     1      25.014  47.629  50.150  1.00  0.00     0.123 C 
BRANCH  15  16
HETATM   16  C   UNL     1      23.839  47.860  49.206  1.00  0.00     0.047 C 
BRANCH  16  17
HETATM   17  C   UNL     1      23.279  49.281  49.173  1.00  0.00     0.236 C 
BRANCH  17  18
HETATM   18  N   UNL     1      21.876  49.406  49.706  1.00  0.00    -0.067 N 
HETATM   19  H   UNL     1      21.896  49.118  50.702  1.00  0.00     0.280 HD
HETATM   20  C   UNL     1      21.289  50.807  49.629  1.00  0.00     0.261 C 
HETATM   21  C   UNL     1      19.850  50.803  50.155  1.00  0.00     0.195 C 
HETATM   22  O   UNL     1      19.040  49.877  49.423  1.00  0.00    -0.388 OA
HETATM   23  C   UNL     1      19.522  48.537  49.572  1.00  0.00     0.195 C 
HETATM   24  C   UNL     1      20.944  48.405  49.017  1.00  0.00     0.261 C 
ENDBRANCH  17  18
ENDBRANCH  16  17
ENDBRANCH  15  16
ENDBRANCH  13  15
ENDBRANCH  11  13
ENDBRANCH   1  11
BRANCH   1  25
HETATM   25  C   UNL     1      24.891  43.876  51.767  1.00  0.00     0.169 C 
BRANCH  25  26
HETATM   26  C   UNL     1      25.474  42.872  50.806  1.00  0.00     0.029 C 
HETATM   27  C   UNL     1      25.609  43.293  49.377  1.00  0.00     0.253 C 
HETATM   28  O   UNL     1      25.061  44.305  48.948  1.00  0.00    -0.268 OA
HETATM   29  N   UNL     1      26.410  42.523  48.577  1.00  0.00    -0.322 N 
HETATM   30  C   UNL     1      27.072  41.371  49.021  1.00  0.00     0.048 A 
HETATM   31  H   UNL     1      26.541  42.849  47.629  1.00  0.00     0.169 HD
HETATM   32  C   UNL     1      26.825  40.902  50.329  1.00  0.00    -0.006 A 
HETATM   33  C   UNL     1      28.000  40.743  48.191  1.00  0.00     0.070 A 
HETATM   34  C   UNL     1      27.522  39.794  50.823  1.00  0.00     0.053 A 
HETATM   35  C   UNL     1      25.943  41.675  51.203  1.00  0.00     0.028 C 
HETATM   36  C   UNL     1      28.464  39.217  49.999  1.00  0.00     0.106 A 
HETATM   37  C   UNL     1      28.698  39.680  48.724  1.00  0.00     0.107 A 
HETATM   38  O   UNL     1      29.287  38.192  50.339  1.00  0.00    -0.323 OA
HETATM   39  O   UNL     1      29.698  38.998  48.104  1.00  0.00    -0.323 OA
HETATM   40  C   UNL     1      30.110  38.098  49.157  1.00  0.00     0.352 A 
ENDBRANCH  25  26
ENDBRANCH   1  25
TORSDOF 11
ENDMDL
MODEL 5
REMARK VINA RESULT:      -8.5     11.155     13.673
REMARK  11 active torsions:
REMARK  status: ('A' for Active; 'I' for Inactive)
REMARK    1  A    between atoms: O_2  and  C_3 
REMARK    2  A    between atoms: C_6  and  C_7 
REMARK    3  A    between atoms: C_7  and  N_8 
REMARK    4  A    between atoms: N_8  and  C_9 
REMARK    5  A    between atoms: N_8  and  C_22 
REMARK    6  A    between atoms: C_9  and  N_10 
REMARK    7  A    between atoms: N_10  and  C_11 
REMARK    8  A    between atoms: C_11  and  C_12 
REMARK    9  A    between atoms: C_12  and  C_13 
REMARK   10  A    between atoms: C_13  and  N_14 
REMARK   11  A    between atoms: C_22  and  C_23 
ROOT
HETATM    1  N   UNL     1      27.181  48.885  39.634  1.00  0.00    -0.350 N 
ENDROOT
BRANCH   1   2
HETATM    2  C   UNL     1      27.752  48.554  40.959  1.00  0.00     0.164 C 
BRANCH   2   3
HETATM    3  C   UNL     1      29.258  48.499  41.054  1.00  0.00    -0.040 A 
HETATM    4  C   UNL     1      29.959  49.084  42.116  1.00  0.00     0.011 A 
HETATM    5  C   UNL     1      31.348  48.935  42.210  1.00  0.00     0.037 A 
HETATM    6  C   UNL     1      32.039  48.192  41.250  1.00  0.00     0.068 A 
HETATM    7  C   UNL     1      31.355  47.627  40.180  1.00  0.00     0.037 A 
HETATM    8  C   UNL     1      29.971  47.763  40.092  1.00  0.00     0.011 A 
BRANCH   6   9
HETATM    9  O   UNL     1      33.393  48.012  41.262  1.00  0.00    -0.356 OA
HETATM   10  C   UNL     1      34.124  49.227  41.416  1.00  0.00     0.210 C 
ENDBRANCH   6   9
ENDBRANCH   2   3
ENDBRANCH   1   2
BRANCH   1  11
HETATM   11  C   UNL     1      26.380  47.954  38.940  1.00  0.00     0.170 C 
HETATM   12  S   UNL     1      26.900  46.950  37.696  1.00  0.00    -0.041 SA
BRANCH  11  13
HETATM   13  N   UNL     1      25.063  47.981  39.373  1.00  0.00    -0.367 N 
HETATM   14  H   UNL     1      24.481  48.682  38.931  1.00  0.00     0.161 HD
BRANCH  13  15
HETATM   15  C   UNL     1      24.547  47.442  40.624  1.00  0.00     0.123 C 
BRANCH  15  16
HETATM   16  C   UNL     1      24.726  45.931  40.727  1.00  0.00     0.047 C 
BRANCH  16  17
HETATM   17  C   UNL     1      25.923  45.455  41.547  1.00  0.00     0.236 C 
BRANCH  17  18
HETATM   18  N   UNL     1      26.517  44.153  41.077  1.00  0.00    -0.067 N 
HETATM   19  H   UNL     1      25.776  43.643  40.561  1.00  0.00     0.280 HD
HETATM   20  C   UNL     1      27.721  44.299  40.159  1.00  0.00     0.261 C 
HETATM   21  C   UNL     1      28.265  42.916  39.783  1.00  0.00     0.195 C 
HETATM   22  O   UNL     1      28.611  42.167  40.953  1.00  0.00    -0.388 OA
HETATM   23  C   UNL     1      27.463  41.933  41.777  1.00  0.00     0.195 C 
HETATM   24  C   UNL     1      26.867  43.256  42.267  1.00  0.00     0.261 C 
ENDBRANCH  17  18
ENDBRANCH  16  17
ENDBRANCH  15  16
ENDBRANCH  13  15
ENDBRANCH  11  13
ENDBRANCH   1  11
BRANCH   1  25
HETATM   25  C   UNL     1      26.778  50.317  39.509  1.00  0.00     0.169 C 
BRANCH  25  26
HETATM   26  C   UNL     1      28.003  51.190  39.620  1.00  0.00     0.029 C 
HETATM   27  C   UNL     1      28.061  52.141  40.773  1.00  0.00     0.253 C 
HETATM   28  O   UNL     1      27.072  52.382  41.460  1.00  0.00    -0.268 OA
HETATM   29  N   UNL     1      29.278  52.699  41.055  1.00  0.00    -0.322 N 
HETATM   30  C   UNL     1      30.439  52.444  40.315  1.00  0.00     0.048 A 
HETATM   31  H   UNL     1      29.319  53.296  41.871  1.00  0.00     0.169 HD
HETATM   32  C   UNL     1      30.345  51.658  39.146  1.00  0.00    -0.006 A 
HETATM   33  C   UNL     1      31.670  52.917  40.770  1.00  0.00     0.070 A 
HETATM   34  C   UNL     1      31.498  51.331  38.423  1.00  0.00     0.053 A 
HETATM   35  C   UNL     1      29.053  51.076  38.786  1.00  0.00     0.028 C 
HETATM   36  C   UNL     1      32.705  51.775  38.918  1.00  0.00     0.106 A 
HETATM   37  C   UNL     1      32.788  52.542  40.058  1.00  0.00     0.107 A 
HETATM   38  O   UNL     1      33.926  51.485  38.396  1.00  0.00    -0.323 OA
HETATM   39  O   UNL     1      34.075  52.830  40.391  1.00  0.00    -0.323 OA
HETATM   40  C   UNL     1      34.793  52.103  39.370  1.00  0.00     0.352 A 
ENDBRANCH  25  26
ENDBRANCH   1  25
TORSDOF 11
ENDMDL
MODEL 6
REMARK VINA RESULT:      -8.5      2.931      9.038
REMARK  11 active torsions:
REMARK  status: ('A' for Active; 'I' for Inactive)
REMARK    1  A    between atoms: O_2  and  C_3 
REMARK    2  A    between atoms: C_6  and  C_7 
REMARK    3  A    between atoms: C_7  and  N_8 
REMARK    4  A    between atoms: N_8  and  C_9 
REMARK    5  A    between atoms: N_8  and  C_22 
REMARK    6  A    between atoms: C_9  and  N_10 
REMARK    7  A    between atoms: N_10  and  C_11 
REMARK    8  A    between atoms: C_11  and  C_12 
REMARK    9  A    between atoms: C_12  and  C_13 
REMARK   10  A    between atoms: C_13  and  N_14 
REMARK   11  A    between atoms: C_22  and  C_23 
ROOT
HETATM    1  N   UNL     1      25.289  45.923  51.454  1.00  0.00    -0.350 N 
ENDROOT
BRANCH   1   2
HETATM    2  C   UNL     1      26.610  45.348  51.798  1.00  0.00     0.164 C 
BRANCH   2   3
HETATM    3  C   UNL     1      27.157  45.675  53.166  1.00  0.00    -0.040 A 
HETATM    4  C   UNL     1      26.802  46.845  53.850  1.00  0.00     0.011 A 
HETATM    5  C   UNL     1      27.265  47.067  55.153  1.00  0.00     0.037 A 
HETATM    6  C   UNL     1      28.074  46.118  55.779  1.00  0.00     0.068 A 
HETATM    7  C   UNL     1      28.452  44.965  55.100  1.00  0.00     0.037 A 
HETATM    8  C   UNL     1      27.982  44.736  53.809  1.00  0.00     0.011 A 
BRANCH   6   9
HETATM    9  O   UNL     1      28.578  46.266  57.041  1.00  0.00    -0.356 OA
HETATM   10  C   UNL     1      29.918  45.795  57.173  1.00  0.00     0.210 C 
ENDBRANCH   6   9
ENDBRANCH   2   3
ENDBRANCH   1   2
BRANCH   1  11
HETATM   11  C   UNL     1      25.187  47.021  50.575  1.00  0.00     0.170 C 
HETATM   12  S   UNL     1      26.479  47.891  49.941  1.00  0.00    -0.041 SA
BRANCH  11  13
HETATM   13  N   UNL     1      23.867  47.352  50.310  1.00  0.00    -0.367 N 
HETATM   14  H   UNL     1      23.192  46.627  50.522  1.00  0.00     0.161 HD
BRANCH  13  15
HETATM   15  C   UNL     1      23.396  48.396  49.410  1.00  0.00     0.123 C 
BRANCH  15  16
HETATM   16  C   UNL     1      22.307  47.905  48.462  1.00  0.00     0.047 C 
BRANCH  16  17
HETATM   17  C   UNL     1      21.437  48.987  47.827  1.00  0.00     0.236 C 
BRANCH  17  18
HETATM   18  N   UNL     1      20.160  49.271  48.572  1.00  0.00    -0.067 N 
HETATM   19  H   UNL     1      19.431  49.486  47.867  1.00  0.00     0.280 HD
HETATM   20  C   UNL     1      19.659  48.124  49.436  1.00  0.00     0.261 C 
HETATM   21  C   UNL     1      18.385  48.542  50.178  1.00  0.00     0.195 C 
HETATM   22  O   UNL     1      18.615  49.709  50.974  1.00  0.00    -0.388 OA
HETATM   23  C   UNL     1      18.987  50.827  50.160  1.00  0.00     0.195 C 
HETATM   24  C   UNL     1      20.294  50.544  49.412  1.00  0.00     0.261 C 
ENDBRANCH  17  18
ENDBRANCH  16  17
ENDBRANCH  15  16
ENDBRANCH  13  15
ENDBRANCH  11  13
ENDBRANCH   1  11
BRANCH   1  25
HETATM   25  C   UNL     1      24.210  44.897  51.350  1.00  0.00     0.169 C 
BRANCH  25  26
HETATM   26  C   UNL     1      24.707  43.735  50.527  1.00  0.00     0.029 C 
HETATM   27  C   UNL     1      24.623  43.865  49.040  1.00  0.00     0.253 C 
HETATM   28  O   UNL     1      23.969  44.759  48.507  1.00  0.00    -0.268 OA
HETATM   29  N   UNL     1      25.345  42.970  48.298  1.00  0.00    -0.322 N 
HETATM   30  C   UNL     1      26.120  41.946  48.856  1.00  0.00     0.048 A 
HETATM   31  H   UNL     1      25.328  43.103  47.295  1.00  0.00     0.169 HD
HETATM   32  C   UNL     1      26.080  41.742  50.252  1.00  0.00    -0.006 A 
HETATM   33  C   UNL     1      26.958  41.187  48.038  1.00  0.00     0.070 A 
HETATM   34  C   UNL     1      26.895  40.771  50.845  1.00  0.00     0.053 A 
HETATM   35  C   UNL     1      25.288  42.653  51.078  1.00  0.00     0.028 C 
HETATM   36  C   UNL     1      27.743  40.064  50.022  1.00  0.00     0.106 A 
HETATM   37  C   UNL     1      27.775  40.268  48.661  1.00  0.00     0.107 A 
HETATM   38  O   UNL     1      28.657  39.147  50.432  1.00  0.00    -0.323 OA
HETATM   39  O   UNL     1      28.715  39.500  48.048  1.00  0.00    -0.323 OA
HETATM   40  C   UNL     1      29.314  38.839  49.184  1.00  0.00     0.352 A 
ENDBRANCH  25  26
ENDBRANCH   1  25
TORSDOF 11
ENDMDL
MODEL 7
REMARK VINA RESULT:      -8.5      2.373      7.395
REMARK  11 active torsions:
REMARK  status: ('A' for Active; 'I' for Inactive)
REMARK    1  A    between atoms: O_2  and  C_3 
REMARK    2  A    between atoms: C_6  and  C_7 
REMARK    3  A    between atoms: C_7  and  N_8 
REMARK    4  A    between atoms: N_8  and  C_9 
REMARK    5  A    between atoms: N_8  and  C_22 
REMARK    6  A    between atoms: C_9  and  N_10 
REMARK    7  A    between atoms: N_10  and  C_11 
REMARK    8  A    between atoms: C_11  and  C_12 
REMARK    9  A    between atoms: C_12  and  C_13 
REMARK   10  A    between atoms: C_13  and  N_14 
REMARK   11  A    between atoms: C_22  and  C_23 
ROOT
HETATM    1  N   UNL     1      27.503  43.018  52.159  1.00  0.00    -0.350 N 
ENDROOT
BRANCH   1   2
HETATM    2  C   UNL     1      28.794  43.716  52.360  1.00  0.00     0.164 C 
BRANCH   2   3
HETATM    3  C   UNL     1      29.117  44.151  53.769  1.00  0.00    -0.040 A 
HETATM    4  C   UNL     1      30.126  43.541  54.525  1.00  0.00     0.011 A 
HETATM    5  C   UNL     1      30.451  44.033  55.795  1.00  0.00     0.037 A 
HETATM    6  C   UNL     1      29.776  45.142  56.309  1.00  0.00     0.068 A 
HETATM    7  C   UNL     1      28.756  45.740  55.576  1.00  0.00     0.037 A 
HETATM    8  C   UNL     1      28.441  45.260  54.308  1.00  0.00     0.011 A 
BRANCH   6   9
HETATM    9  O   UNL     1      30.022  45.673  57.543  1.00  0.00    -0.356 OA
HETATM   10  C   UNL     1      31.015  44.959  58.278  1.00  0.00     0.210 C 
ENDBRANCH   6   9
ENDBRANCH   2   3
ENDBRANCH   1   2
BRANCH   1  11
HETATM   11  C   UNL     1      27.418  41.614  52.266  1.00  0.00     0.170 C 
HETATM   12  S   UNL     1      28.404  40.643  53.222  1.00  0.00    -0.041 SA
BRANCH  11  13
HETATM   13  N   UNL     1      26.435  41.090  51.439  1.00  0.00    -0.367 N 
HETATM   14  H   UNL     1      25.858  40.373  51.861  1.00  0.00     0.161 HD
BRANCH  13  15
HETATM   15  C   UNL     1      26.409  41.136  49.984  1.00  0.00     0.123 C 
BRANCH  15  16
HETATM   16  C   UNL     1      27.782  40.892  49.366  1.00  0.00     0.047 C 
BRANCH  16  17
HETATM   17  C   UNL     1      28.265  39.444  49.362  1.00  0.00     0.236 C 
BRANCH  17  18
HETATM   18  N   UNL     1      28.506  38.876  47.988  1.00  0.00    -0.067 N 
HETATM   19  H   UNL     1      29.523  38.945  47.798  1.00  0.00     0.280 HD
HETATM   20  C   UNL     1      28.090  37.422  47.819  1.00  0.00     0.261 C 
HETATM   21  C   UNL     1      28.339  36.969  46.376  1.00  0.00     0.195 C 
HETATM   22  O   UNL     1      27.640  37.805  45.448  1.00  0.00    -0.388 OA
HETATM   23  C   UNL     1      28.096  39.160  45.525  1.00  0.00     0.195 C 
HETATM   24  C   UNL     1      27.838  39.743  46.918  1.00  0.00     0.261 C 
ENDBRANCH  17  18
ENDBRANCH  16  17
ENDBRANCH  15  16
ENDBRANCH  13  15
ENDBRANCH  11  13
ENDBRANCH   1  11
BRANCH   1  25
HETATM   25  C   UNL     1      26.333  43.786  52.675  1.00  0.00     0.169 C 
BRANCH  25  26
HETATM   26  C   UNL     1      25.690  44.538  51.537  1.00  0.00     0.029 C 
HETATM   27  C   UNL     1      24.355  44.055  51.067  1.00  0.00     0.253 C 
HETATM   28  O   UNL     1      23.905  42.965  51.414  1.00  0.00    -0.268 OA
HETATM   29  N   UNL     1      23.636  44.900  50.267  1.00  0.00    -0.322 N 
HETATM   30  C   UNL     1      24.095  46.158  49.857  1.00  0.00     0.048 A 
HETATM   31  H   UNL     1      22.711  44.588  50.002  1.00  0.00     0.169 HD
HETATM   32  C   UNL     1      25.412  46.546  50.187  1.00  0.00    -0.006 A 
HETATM   33  C   UNL     1      23.233  47.026  49.185  1.00  0.00     0.070 A 
HETATM   34  C   UNL     1      25.875  47.823  49.850  1.00  0.00     0.053 A 
HETATM   35  C   UNL     1      26.227  45.653  51.008  1.00  0.00     0.028 C 
HETATM   36  C   UNL     1      24.991  48.675  49.225  1.00  0.00     0.106 A 
HETATM   37  C   UNL     1      23.709  48.289  48.905  1.00  0.00     0.107 A 
HETATM   38  O   UNL     1      25.240  49.970  48.900  1.00  0.00    -0.323 OA
HETATM   39  O   UNL     1      22.995  49.297  48.336  1.00  0.00    -0.323 OA
HETATM   40  C   UNL     1      23.951  50.378  48.395  1.00  0.00     0.352 A 
ENDBRANCH  25  26
ENDBRANCH   1  25
TORSDOF 11
ENDMDL
MODEL 8
REMARK VINA RESULT:      -8.5     12.214     14.777
REMARK  11 active torsions:
REMARK  status: ('A' for Active; 'I' for Inactive)
REMARK    1  A    between atoms: O_2  and  C_3 
REMARK    2  A    between atoms: C_6  and  C_7 
REMARK    3  A    between atoms: C_7  and  N_8 
REMARK    4  A    between atoms: N_8  and  C_9 
REMARK    5  A    between atoms: N_8  and  C_22 
REMARK    6  A    between atoms: C_9  and  N_10 
REMARK    7  A    between atoms: N_10  and  C_11 
REMARK    8  A    between atoms: C_11  and  C_12 
REMARK    9  A    between atoms: C_12  and  C_13 
REMARK   10  A    between atoms: C_13  and  N_14 
REMARK   11  A    between atoms: C_22  and  C_23 
ROOT
HETATM    1  N   UNL     1      27.408  48.525  39.827  1.00  0.00    -0.350 N 
ENDROOT
BRANCH   1   2
HETATM    2  C   UNL     1      28.038  48.369  41.158  1.00  0.00     0.164 C 
BRANCH   2   3
HETATM    3  C   UNL     1      29.544  48.261  41.187  1.00  0.00    -0.040 A 
HETATM    4  C   UNL     1      30.250  47.454  40.287  1.00  0.00     0.011 A 
HETATM    5  C   UNL     1      31.651  47.451  40.293  1.00  0.00     0.037 A 
HETATM    6  C   UNL     1      32.348  48.262  41.190  1.00  0.00     0.068 A 
HETATM    7  C   UNL     1      31.655  49.049  42.104  1.00  0.00     0.037 A 
HETATM    8  C   UNL     1      30.263  49.063  42.090  1.00  0.00     0.011 A 
BRANCH   6   9
HETATM    9  O   UNL     1      33.711  48.305  41.269  1.00  0.00    -0.356 OA
HETATM   10  C   UNL     1      34.216  49.589  41.634  1.00  0.00     0.210 C 
ENDBRANCH   6   9
ENDBRANCH   2   3
ENDBRANCH   1   2
BRANCH   1  11
HETATM   11  C   UNL     1      26.661  47.473  39.255  1.00  0.00     0.170 C 
HETATM   12  S   UNL     1      26.064  47.438  37.683  1.00  0.00    -0.041 SA
BRANCH  11  13
HETATM   13  N   UNL     1      26.420  46.455  40.166  1.00  0.00    -0.367 N 
HETATM   14  H   UNL     1      27.235  45.916  40.431  1.00  0.00     0.161 HD
BRANCH  13  15
HETATM   15  C   UNL     1      25.138  45.823  40.444  1.00  0.00     0.123 C 
BRANCH  15  16
HETATM   16  C   UNL     1      24.169  46.757  41.162  1.00  0.00     0.047 C 
BRANCH  16  17
HETATM   17  C   UNL     1      22.951  47.203  40.358  1.00  0.00     0.236 C 
BRANCH  17  18
HETATM   18  N   UNL     1      22.786  48.697  40.259  1.00  0.00    -0.067 N 
HETATM   19  H   UNL     1      23.414  49.125  40.963  1.00  0.00     0.280 HD
HETATM   20  C   UNL     1      23.127  49.285  38.899  1.00  0.00     0.261 C 
HETATM   21  C   UNL     1      22.879  50.798  38.903  1.00  0.00     0.195 C 
HETATM   22  O   UNL     1      21.523  51.093  39.255  1.00  0.00    -0.388 OA
HETATM   23  C   UNL     1      21.219  50.636  40.577  1.00  0.00     0.195 C 
HETATM   24  C   UNL     1      21.373  49.114  40.675  1.00  0.00     0.261 C 
ENDBRANCH  17  18
ENDBRANCH  16  17
ENDBRANCH  15  16
ENDBRANCH  13  15
ENDBRANCH  11  13
ENDBRANCH   1  11
BRANCH   1  25
HETATM   25  C   UNL     1      26.896  49.904  39.577  1.00  0.00     0.169 C 
BRANCH  25  26
HETATM   26  C   UNL     1      28.049  50.875  39.601  1.00  0.00     0.029 C 
HETATM   27  C   UNL     1      28.016  51.950  40.640  1.00  0.00     0.253 C 
HETATM   28  O   UNL     1      26.999  52.190  41.287  1.00  0.00    -0.268 OA
HETATM   29  N   UNL     1      29.183  52.627  40.869  1.00  0.00    -0.322 N 
HETATM   30  C   UNL     1      30.373  52.381  40.173  1.00  0.00     0.048 A 
HETATM   31  H   UNL     1      29.164  53.312  41.613  1.00  0.00     0.169 HD
HETATM   32  C   UNL     1      30.358  51.466  39.098  1.00  0.00    -0.006 A 
HETATM   33  C   UNL     1      31.556  52.995  40.583  1.00  0.00     0.070 A 
HETATM   34  C   UNL     1      31.545  51.149  38.428  1.00  0.00     0.053 A 
HETATM   35  C   UNL     1      29.120  50.750  38.795  1.00  0.00     0.028 C 
HETATM   36  C   UNL     1      32.706  51.736  38.880  1.00  0.00     0.106 A 
HETATM   37  C   UNL     1      32.712  52.629  39.927  1.00  0.00     0.107 A 
HETATM   38  O   UNL     1      33.954  51.484  38.405  1.00  0.00    -0.323 OA
HETATM   39  O   UNL     1      33.967  53.050  40.238  1.00  0.00    -0.323 OA
HETATM   40  C   UNL     1      34.756  52.271  39.311  1.00  0.00     0.352 A 
ENDBRANCH  25  26
ENDBRANCH   1  25
TORSDOF 11
ENDMDL
MODEL 9
REMARK VINA RESULT:      -8.4      2.922      7.894
REMARK  11 active torsions:
REMARK  status: ('A' for Active; 'I' for Inactive)
REMARK    1  A    between atoms: O_2  and  C_3 
REMARK    2  A    between atoms: C_6  and  C_7 
REMARK    3  A    between atoms: C_7  and  N_8 
REMARK    4  A    between atoms: N_8  and  C_9 
REMARK    5  A    between atoms: N_8  and  C_22 
REMARK    6  A    between atoms: C_9  and  N_10 
REMARK    7  A    between atoms: N_10  and  C_11 
REMARK    8  A    between atoms: C_11  and  C_12 
REMARK    9  A    between atoms: C_12  and  C_13 
REMARK   10  A    between atoms: C_13  and  N_14 
REMARK   11  A    between atoms: C_22  and  C_23 
ROOT
HETATM    1  N   UNL     1      27.463  43.045  52.101  1.00  0.00    -0.350 N 
ENDROOT
BRANCH   1   2
HETATM    2  C   UNL     1      28.784  43.684  52.299  1.00  0.00     0.164 C 
BRANCH   2   3
HETATM    3  C   UNL     1      29.147  44.067  53.713  1.00  0.00    -0.040 A 
HETATM    4  C   UNL     1      30.171  43.422  54.420  1.00  0.00     0.011 A 
HETATM    5  C   UNL     1      30.532  43.867  55.698  1.00  0.00     0.037 A 
HETATM    6  C   UNL     1      29.881  44.961  56.268  1.00  0.00     0.068 A 
HETATM    7  C   UNL     1      28.847  45.593  55.584  1.00  0.00     0.037 A 
HETATM    8  C   UNL     1      28.495  45.161  54.308  1.00  0.00     0.011 A 
BRANCH   6   9
HETATM    9  O   UNL     1      30.164  45.447  57.514  1.00  0.00    -0.356 OA
HETATM   10  C   UNL     1      31.186  44.714  58.187  1.00  0.00     0.210 C 
ENDBRANCH   6   9
ENDBRANCH   2   3
ENDBRANCH   1   2
BRANCH   1  11
HETATM   11  C   UNL     1      27.319  41.645  52.192  1.00  0.00     0.170 C 
HETATM   12  S   UNL     1      28.274  40.620  53.121  1.00  0.00    -0.041 SA
BRANCH  11  13
HETATM   13  N   UNL     1      26.301  41.175  51.374  1.00  0.00    -0.367 N 
HETATM   14  H   UNL     1      25.369  41.469  51.638  1.00  0.00     0.161 HD
BRANCH  13  15
HETATM   15  C   UNL     1      26.364  40.024  50.484  1.00  0.00     0.123 C 
BRANCH  15  16
HETATM   16  C   UNL     1      26.312  40.419  49.012  1.00  0.00     0.047 C 
BRANCH  16  17
HETATM   17  C   UNL     1      25.653  41.762  48.704  1.00  0.00     0.236 C 
BRANCH  17  18
HETATM   18  N   UNL     1      24.987  41.829  47.355  1.00  0.00    -0.067 N 
HETATM   19  H   UNL     1      25.662  42.260  46.697  1.00  0.00     0.280 HD
HETATM   20  C   UNL     1      24.564  40.483  46.787  1.00  0.00     0.261 C 
HETATM   21  C   UNL     1      23.859  40.679  45.440  1.00  0.00     0.195 C 
HETATM   22  O   UNL     1      22.729  41.547  45.575  1.00  0.00    -0.388 OA
HETATM   23  C   UNL     1      23.126  42.852  46.010  1.00  0.00     0.195 C 
HETATM   24  C   UNL     1      23.792  42.786  47.389  1.00  0.00     0.261 C 
ENDBRANCH  17  18
ENDBRANCH  16  17
ENDBRANCH  15  16
ENDBRANCH  13  15
ENDBRANCH  11  13
ENDBRANCH   1  11
BRANCH   1  25
HETATM   25  C   UNL     1      26.331  43.857  52.636  1.00  0.00     0.169 C 
BRANCH  25  26
HETATM   26  C   UNL     1      25.676  44.606  51.503  1.00  0.00     0.029 C 
HETATM   27  C   UNL     1      24.339  44.118  51.044  1.00  0.00     0.253 C 
HETATM   28  O   UNL     1      23.896  43.027  51.396  1.00  0.00    -0.268 OA
HETATM   29  N   UNL     1      23.610  44.961  50.250  1.00  0.00    -0.322 N 
HETATM   30  C   UNL     1      24.062  46.220  49.836  1.00  0.00     0.048 A 
HETATM   31  H   UNL     1      22.685  44.645  49.993  1.00  0.00     0.169 HD
HETATM   32  C   UNL     1      25.380  46.612  50.154  1.00  0.00    -0.006 A 
HETATM   33  C   UNL     1      23.191  47.084  49.170  1.00  0.00     0.070 A 
HETATM   34  C   UNL     1      25.835  47.891  49.813  1.00  0.00     0.053 A 
HETATM   35  C   UNL     1      26.205  45.722  50.969  1.00  0.00     0.028 C 
HETATM   36  C   UNL     1      24.943  48.739  49.195  1.00  0.00     0.106 A 
HETATM   37  C   UNL     1      23.660  48.348  48.886  1.00  0.00     0.107 A 
HETATM   38  O   UNL     1      25.185  50.035  48.867  1.00  0.00    -0.323 OA
HETATM   39  O   UNL     1      22.938  49.354  48.323  1.00  0.00    -0.323 OA
HETATM   40  C   UNL     1      23.890  50.438  48.372  1.00  0.00     0.352 A 
ENDBRANCH  25  26
ENDBRANCH   1  25
TORSDOF 11
ENDMDL
MODEL 10
REMARK VINA RESULT:      -8.3      2.794      5.967
REMARK  11 active torsions:
REMARK  status: ('A' for Active; 'I' for Inactive)
REMARK    1  A    between atoms: O_2  and  C_3 
REMARK    2  A    between atoms: C_6  and  C_7 
REMARK    3  A    between atoms: C_7  and  N_8 
REMARK    4  A    between atoms: N_8  and  C_9 
REMARK    5  A    between atoms: N_8  and  C_22 
REMARK    6  A    between atoms: C_9  and  N_10 
REMARK    7  A    between atoms: N_10  and  C_11 
REMARK    8  A    between atoms: C_11  and  C_12 
REMARK    9  A    between atoms: C_12  and  C_13 
REMARK   10  A    between atoms: C_13  and  N_14 
REMARK   11  A    between atoms: C_22  and  C_23 
ROOT
HETATM    1  N   UNL     1      25.663  44.044  50.981  1.00  0.00    -0.350 N 
ENDROOT
BRANCH   1   2
HETATM    2  C   UNL     1      25.120  42.667  50.922  1.00  0.00     0.164 C 
BRANCH   2   3
HETATM    3  C   UNL     1      26.122  41.550  50.755  1.00  0.00    -0.040 A 
HETATM    4  C   UNL     1      25.879  40.451  49.922  1.00  0.00     0.011 A 
HETATM    5  C   UNL     1      26.871  39.481  49.729  1.00  0.00     0.037 A 
HETATM    6  C   UNL     1      28.110  39.613  50.358  1.00  0.00     0.068 A 
HETATM    7  C   UNL     1      28.352  40.688  51.206  1.00  0.00     0.037 A 
HETATM    8  C   UNL     1      27.371  41.660  51.389  1.00  0.00     0.011 A 
BRANCH   6   9
HETATM    9  O   UNL     1      29.123  38.704  50.234  1.00  0.00    -0.356 OA
HETATM   10  C   UNL     1      29.522  38.485  48.882  1.00  0.00     0.210 C 
ENDBRANCH   6   9
ENDBRANCH   2   3
ENDBRANCH   1   2
BRANCH   1  11
HETATM   11  C   UNL     1      25.824  44.806  49.805  1.00  0.00     0.170 C 
HETATM   12  S   UNL     1      26.847  46.129  49.627  1.00  0.00    -0.041 SA
BRANCH  11  13
HETATM   13  N   UNL     1      24.991  44.368  48.786  1.00  0.00    -0.367 N 
HETATM   14  H   UNL     1      25.458  43.884  48.029  1.00  0.00     0.161 HD
BRANCH  13  15
HETATM   15  C   UNL     1      23.658  44.867  48.478  1.00  0.00     0.123 C 
BRANCH  15  16
HETATM   16  C   UNL     1      22.757  43.795  47.875  1.00  0.00     0.047 C 
BRANCH  16  17
HETATM   17  C   UNL     1      23.345  42.387  47.810  1.00  0.00     0.236 C 
BRANCH  17  18
HETATM   18  N   UNL     1      23.584  41.880  46.413  1.00  0.00    -0.067 N 
HETATM   19  H   UNL     1      22.879  41.143  46.226  1.00  0.00     0.280 HD
HETATM   20  C   UNL     1      23.467  42.936  45.324  1.00  0.00     0.261 C 
HETATM   21  C   UNL     1      23.774  42.316  43.956  1.00  0.00     0.195 C 
HETATM   22  O   UNL     1      25.076  41.721  43.944  1.00  0.00    -0.388 OA
HETATM   23  C   UNL     1      25.167  40.654  44.894  1.00  0.00     0.195 C 
HETATM   24  C   UNL     1      24.938  41.172  46.318  1.00  0.00     0.261 C 
ENDBRANCH  17  18
ENDBRANCH  16  17
ENDBRANCH  15  16
ENDBRANCH  13  15
ENDBRANCH  11  13
ENDBRANCH   1  11
BRANCH   1  25
HETATM   25  C   UNL     1      25.229  44.796  52.195  1.00  0.00     0.169 C 
BRANCH  25  26
HETATM   26  C   UNL     1      26.445  45.223  52.977  1.00  0.00     0.029 C 
HETATM   27  C   UNL     1      26.393  46.559  53.646  1.00  0.00     0.253 C 
HETATM   28  O   UNL     1      25.514  47.377  53.384  1.00  0.00    -0.268 OA
HETATM   29  N   UNL     1      27.343  46.814  54.597  1.00  0.00    -0.322 N 
HETATM   30  C   UNL     1      28.354  45.910  54.946  1.00  0.00     0.048 A 
HETATM   31  H   UNL     1      27.264  47.698  55.084  1.00  0.00     0.169 HD
HETATM   32  C   UNL     1      28.482  44.712  54.211  1.00  0.00    -0.006 A 
HETATM   33  C   UNL     1      29.177  46.178  56.040  1.00  0.00     0.070 A 
HETATM   34  C   UNL     1      29.440  43.759  54.579  1.00  0.00     0.053 A 
HETATM   35  C   UNL     1      27.510  44.420  53.158  1.00  0.00     0.028 C 
HETATM   36  C   UNL     1      30.210  44.029  55.689  1.00  0.00     0.106 A 
HETATM   37  C   UNL     1      30.080  45.201  56.399  1.00  0.00     0.107 A 
HETATM   38  O   UNL     1      31.126  43.188  56.236  1.00  0.00    -0.323 OA
HETATM   39  O   UNL     1      30.902  45.240  57.481  1.00  0.00    -0.323 OA
HETATM   40  C   UNL     1      31.516  43.935  57.408  1.00  0.00     0.352 A 
ENDBRANCH  25  26
ENDBRANCH   1  25
TORSDOF 11
ENDMDL
