MODEL 1
REMARK VINA RESULT:      -8.9      0.000      0.000
REMARK  4 active torsions:
REMARK  status: ('A' for Active; 'I' for Inactive)
REMARK    1  A    between atoms: N_7  and  N_8 
REMARK       I    between atoms: N_8  and  C_9 
REMARK    2  A    between atoms: C_9  and  C_10 
REMARK    3  A    between atoms: C_10  and  N_11 
REMARK    4  A    between atoms: N_11  and  C_12 
ROOT
HETATM    1  N   UNL     1      27.583  44.925  52.749  1.00  0.00    -0.245 N 
HETATM    2  C   UNL     1      26.683  44.141  52.044  1.00  0.00     0.250 C 
HETATM    3  O   UNL     1      26.602  42.915  52.114  1.00  0.00    -0.270 OA
HETATM    4  H   UNL     1      27.483  45.942  52.765  1.00  0.00     0.192 HD
ENDROOT
BRANCH   1   5
HETATM    5  N   UNL     1      28.536  44.337  53.534  1.00  0.00    -0.166 NA
HETATM    6  C   UNL     1      28.809  44.923  54.655  1.00  0.00     0.157 A 
HETATM    7  C   UNL     1      29.795  44.477  55.630  1.00  0.00     0.027 A 
HETATM    8  C   UNL     1      28.196  46.202  55.235  1.00  0.00     0.277 A 
HETATM    9  C   UNL     1      30.652  43.396  55.613  1.00  0.00     0.016 A 
HETATM   10  C   UNL     1      29.759  45.392  56.680  1.00  0.00     0.048 A 
HETATM   11  C   UNL     1      31.502  43.247  56.713  1.00  0.00     0.001 A 
HETATM   12  C   UNL     1      31.469  44.168  57.782  1.00  0.00     0.002 A 
HETATM   13  C   UNL     1      30.588  45.257  57.774  1.00  0.00     0.030 A 
HETATM   14  N   UNL     1      28.819  46.395  56.448  1.00  0.00    -0.321 N 
HETATM   15  H   UNL     1      28.617  47.169  57.062  1.00  0.00     0.169 HD
HETATM   16  O   UNL     1      27.347  46.872  54.685  1.00  0.00    -0.266 OA
ENDBRANCH   1   5
BRANCH   2  17
HETATM   17  C   UNL     1      25.743  44.954  51.151  1.00  0.00     0.197 C 
BRANCH  17  18
HETATM   18  N   UNL     1      26.448  46.072  50.512  1.00  0.00    -0.284 NA
HETATM   19  H   UNL     1      27.133  45.714  49.845  1.00  0.00     0.128 HD
BRANCH  18  20
HETATM   20  C   UNL     1      25.742  47.163  50.002  1.00  0.00     0.008 A 
HETATM   21  C   UNL     1      26.356  48.278  49.421  1.00  0.00     0.025 A 
HETATM   22  C   UNL     1      25.599  49.305  48.840  1.00  0.00     0.021 A 
HETATM   23  C   UNL     1      24.212  49.209  48.808  1.00  0.00     0.011 A 
HETATM   24 BR   UNL     1      23.192  50.585  48.010  1.00  0.00    -0.051 Br
HETATM   25  C   UNL     1      23.579  48.094  49.342  1.00  0.00     0.021 A 
HETATM   26  C   UNL     1      24.343  47.075  49.919  1.00  0.00     0.025 A 
ENDBRANCH  18  20
ENDBRANCH  17  18
ENDBRANCH   2  17
TORSDOF 4
ENDMDL
MODEL 2
REMARK VINA RESULT:      -8.8      2.452      3.274
REMARK  4 active torsions:
REMARK  status: ('A' for Active; 'I' for Inactive)
REMARK    1  A    between atoms: N_7  and  N_8 
REMARK       I    between atoms: N_8  and  C_9 
REMARK    2  A    between atoms: C_9  and  C_10 
REMARK    3  A    between atoms: C_10  and  N_11 
REMARK    4  A    between atoms: N_11  and  C_12 
ROOT
HETATM    1  N   UNL     1      29.477  42.428  52.594  1.00  0.00    -0.245 N 
HETATM    2  C   UNL     1      28.608  41.359  52.454  1.00  0.00     0.250 C 
HETATM    3  O   UNL     1      28.313  40.561  53.344  1.00  0.00    -0.270 OA
HETATM    4  H   UNL     1      29.544  43.141  51.863  1.00  0.00     0.192 HD
ENDROOT
BRANCH   1   5
HETATM    5  N   UNL     1      30.157  42.610  53.766  1.00  0.00    -0.166 NA
HETATM    6  C   UNL     1      29.782  43.601  54.509  1.00  0.00     0.157 A 
HETATM    7  C   UNL     1      30.375  43.980  55.784  1.00  0.00     0.027 A 
HETATM    8  C   UNL     1      28.657  44.610  54.255  1.00  0.00     0.277 A 
HETATM    9  C   UNL     1      31.432  43.434  56.483  1.00  0.00     0.016 A 
HETATM   10  C   UNL     1      29.667  45.091  56.239  1.00  0.00     0.048 A 
HETATM   11  C   UNL     1      31.773  44.048  57.692  1.00  0.00     0.001 A 
HETATM   12  C   UNL     1      31.058  45.170  58.160  1.00  0.00     0.002 A 
HETATM   13  C   UNL     1      29.989  45.705  57.430  1.00  0.00     0.030 A 
HETATM   14  N   UNL     1      28.660  45.451  55.345  1.00  0.00    -0.321 N 
HETATM   15  H   UNL     1      28.020  46.224  55.455  1.00  0.00     0.169 HD
HETATM   16  O   UNL     1      27.950  44.621  53.268  1.00  0.00    -0.266 OA
ENDBRANCH   1   5
BRANCH   2  17
HETATM   17  C   UNL     1      27.996  41.254  51.055  1.00  0.00     0.197 C 
BRANCH  17  18
HETATM   18  N   UNL     1      26.560  41.554  51.077  1.00  0.00    -0.284 NA
HETATM   19  H   UNL     1      26.133  41.150  51.912  1.00  0.00     0.128 HD
BRANCH  18  20
HETATM   20  C   UNL     1      26.096  42.847  50.828  1.00  0.00     0.008 A 
HETATM   21  C   UNL     1      24.996  43.414  51.482  1.00  0.00     0.025 A 
HETATM   22  C   UNL     1      24.628  44.748  51.263  1.00  0.00     0.021 A 
HETATM   23  C   UNL     1      25.382  45.543  50.406  1.00  0.00     0.011 A 
HETATM   24 BR   UNL     1      24.897  47.347  50.123  1.00  0.00    -0.051 Br
HETATM   25  C   UNL     1      26.503  45.018  49.776  1.00  0.00     0.021 A 
HETATM   26  C   UNL     1      26.862  43.685  50.000  1.00  0.00     0.025 A 
ENDBRANCH  18  20
ENDBRANCH  17  18
ENDBRANCH   2  17
TORSDOF 4
ENDMDL
MODEL 3
REMARK VINA RESULT:      -8.8      3.520      8.962
REMARK  4 active torsions:
REMARK  status: ('A' for Active; 'I' for Inactive)
REMARK    1  A    between atoms: N_7  and  N_8 
REMARK       I    between atoms: N_8  and  C_9 
REMARK    2  A    between atoms: C_9  and  C_10 
REMARK    3  A    between atoms: C_10  and  N_11 
REMARK    4  A    between atoms: N_11  and  C_12 
ROOT
HETATM    1  N   UNL     1      25.494  45.778  50.782  1.00  0.00    -0.245 N 
HETATM    2  C   UNL     1      25.356  44.912  51.854  1.00  0.00     0.250 C 
HETATM    3  O   UNL     1      24.286  44.538  52.332  1.00  0.00    -0.270 OA
HETATM    4  H   UNL     1      26.406  45.912  50.338  1.00  0.00     0.192 HD
ENDROOT
BRANCH   1   5
HETATM    5  N   UNL     1      24.390  46.361  50.225  1.00  0.00    -0.166 NA
HETATM    6  C   UNL     1      24.563  47.512  49.659  1.00  0.00     0.157 A 
HETATM    7  C   UNL     1      23.525  48.310  49.020  1.00  0.00     0.027 A 
HETATM    8  C   UNL     1      25.857  48.321  49.519  1.00  0.00     0.277 A 
HETATM    9  C   UNL     1      22.173  48.077  48.872  1.00  0.00     0.016 A 
HETATM   10  C   UNL     1      24.145  49.464  48.544  1.00  0.00     0.048 A 
HETATM   11  C   UNL     1      21.431  49.060  48.211  1.00  0.00     0.001 A 
HETATM   12  C   UNL     1      22.053  50.229  47.724  1.00  0.00     0.002 A 
HETATM   13  C   UNL     1      23.428  50.441  47.888  1.00  0.00     0.030 A 
HETATM   14  N   UNL     1      25.509  49.463  48.833  1.00  0.00    -0.321 N 
HETATM   15  H   UNL     1      26.164  50.191  48.594  1.00  0.00     0.169 HD
HETATM   16  O   UNL     1      26.936  47.978  49.957  1.00  0.00    -0.266 OA
ENDBRANCH   1   5
BRANCH   2  17
HETATM   17  C   UNL     1      26.694  44.417  52.409  1.00  0.00     0.197 C 
BRANCH  17  18
HETATM   18  N   UNL     1      27.218  45.330  53.431  1.00  0.00    -0.284 NA
HETATM   19  H   UNL     1      26.449  45.708  53.988  1.00  0.00     0.128 HD
BRANCH  18  20
HETATM   20  C   UNL     1      28.307  44.965  54.225  1.00  0.00     0.008 A 
HETATM   21  C   UNL     1      28.775  45.733  55.297  1.00  0.00     0.025 A 
HETATM   22  C   UNL     1      29.813  45.276  56.120  1.00  0.00     0.021 A 
HETATM   23  C   UNL     1      30.374  44.024  55.896  1.00  0.00     0.011 A 
HETATM   24 BR   UNL     1      31.763  43.400  57.016  1.00  0.00    -0.051 Br
HETATM   25  C   UNL     1      29.901  43.224  54.864  1.00  0.00     0.021 A 
HETATM   26  C   UNL     1      28.866  43.689  54.048  1.00  0.00     0.025 A 
ENDBRANCH  18  20
ENDBRANCH  17  18
ENDBRANCH   2  17
TORSDOF 4
ENDMDL
MODEL 4
REMARK VINA RESULT:      -8.7      1.299      1.969
REMARK  4 active torsions:
REMARK  status: ('A' for Active; 'I' for Inactive)
REMARK    1  A    between atoms: N_7  and  N_8 
REMARK       I    between atoms: N_8  and  C_9 
REMARK    2  A    between atoms: C_9  and  C_10 
REMARK    3  A    between atoms: C_10  and  N_11 
REMARK    4  A    between atoms: N_11  and  C_12 
ROOT
HETATM    1  N   UNL     1      26.881  45.509  53.292  1.00  0.00    -0.245 N 
HETATM    2  C   UNL     1      25.614  44.947  53.282  1.00  0.00     0.250 C 
HETATM    3  O   UNL     1      24.955  44.664  54.283  1.00  0.00    -0.270 OA
HETATM    4  H   UNL     1      27.295  45.866  52.427  1.00  0.00     0.192 HD
ENDROOT
BRANCH   1   5
HETATM    5  N   UNL     1      27.534  45.708  54.475  1.00  0.00    -0.166 NA
HETATM    6  C   UNL     1      28.573  44.968  54.698  1.00  0.00     0.157 A 
HETATM    7  C   UNL     1      29.403  45.006  55.895  1.00  0.00     0.027 A 
HETATM    8  C   UNL     1      29.184  43.888  53.800  1.00  0.00     0.277 A 
HETATM    9  C   UNL     1      29.301  45.773  57.037  1.00  0.00     0.016 A 
HETATM   10  C   UNL     1      30.405  44.055  55.715  1.00  0.00     0.048 A 
HETATM   11  C   UNL     1      30.263  45.559  58.029  1.00  0.00     0.001 A 
HETATM   12  C   UNL     1      31.282  44.600  57.853  1.00  0.00     0.002 A 
HETATM   13  C   UNL     1      31.362  43.834  56.683  1.00  0.00     0.030 A 
HETATM   14  N   UNL     1      30.277  43.408  54.487  1.00  0.00    -0.321 N 
HETATM   15  H   UNL     1      30.880  42.680  54.137  1.00  0.00     0.169 HD
HETATM   16  O   UNL     1      28.743  43.559  52.718  1.00  0.00    -0.266 OA
ENDBRANCH   1   5
BRANCH   2  17
HETATM   17  C   UNL     1      25.064  44.716  51.873  1.00  0.00     0.197 C 
BRANCH  17  18
HETATM   18  N   UNL     1      25.883  45.396  50.863  1.00  0.00    -0.284 NA
HETATM   19  H   UNL     1      26.198  44.724  50.161  1.00  0.00     0.128 HD
BRANCH  18  20
HETATM   20  C   UNL     1      25.455  46.593  50.285  1.00  0.00     0.008 A 
HETATM   21  C   UNL     1      26.325  47.618  49.897  1.00  0.00     0.025 A 
HETATM   22  C   UNL     1      25.853  48.761  49.236  1.00  0.00     0.021 A 
HETATM   23  C   UNL     1      24.502  48.874  48.928  1.00  0.00     0.011 A 
HETATM   24 BR   UNL     1      23.868  50.406  48.022  1.00  0.00    -0.051 Br
HETATM   25  C   UNL     1      23.623  47.853  49.266  1.00  0.00     0.021 A 
HETATM   26  C   UNL     1      24.104  46.717  49.925  1.00  0.00     0.025 A 
ENDBRANCH  18  20
ENDBRANCH  17  18
ENDBRANCH   2  17
TORSDOF 4
ENDMDL
MODEL 5
REMARK VINA RESULT:      -8.7      3.532      5.380
REMARK  4 active torsions:
REMARK  status: ('A' for Active; 'I' for Inactive)
REMARK    1  A    between atoms: N_7  and  N_8 
REMARK       I    between atoms: N_8  and  C_9 
REMARK    2  A    between atoms: C_9  and  C_10 
REMARK    3  A    between atoms: C_10  and  N_11 
REMARK    4  A    between atoms: N_11  and  C_12 
ROOT
HETATM    1  N   UNL     1      24.047  47.152  50.493  1.00  0.00    -0.245 N 
HETATM    2  C   UNL     1      23.807  48.195  49.614  1.00  0.00     0.250 C 
HETATM    3  O   UNL     1      24.433  49.255  49.582  1.00  0.00    -0.270 OA
HETATM    4  H   UNL     1      23.600  46.243  50.352  1.00  0.00     0.192 HD
ENDROOT
BRANCH   1   5
HETATM    5  N   UNL     1      24.982  47.288  51.481  1.00  0.00    -0.166 NA
HETATM    6  C   UNL     1      25.277  46.222  52.154  1.00  0.00     0.157 A 
HETATM    7  C   UNL     1      26.232  46.147  53.252  1.00  0.00     0.027 A 
HETATM    8  C   UNL     1      24.719  44.805  51.988  1.00  0.00     0.277 A 
HETATM    9  C   UNL     1      27.009  47.125  53.837  1.00  0.00     0.016 A 
HETATM   10  C   UNL     1      26.242  44.822  53.681  1.00  0.00     0.048 A 
HETATM   11  C   UNL     1      27.827  46.730  54.900  1.00  0.00     0.001 A 
HETATM   12  C   UNL     1      27.844  45.389  55.338  1.00  0.00     0.002 A 
HETATM   13  C   UNL     1      27.045  44.415  54.725  1.00  0.00     0.030 A 
HETATM   14  N   UNL     1      25.361  44.040  52.936  1.00  0.00    -0.321 N 
HETATM   15  H   UNL     1      25.192  43.054  53.064  1.00  0.00     0.169 HD
HETATM   16  O   UNL     1      23.874  44.487  51.176  1.00  0.00    -0.266 OA
ENDBRANCH   1   5
BRANCH   2  17
HETATM   17  C   UNL     1      22.673  47.908  48.628  1.00  0.00     0.197 C 
BRANCH  17  18
HETATM   18  N   UNL     1      21.376  47.848  49.311  1.00  0.00    -0.284 NA
HETATM   19  H   UNL     1      21.474  47.359  50.202  1.00  0.00     0.128 HD
BRANCH  18  20
HETATM   20  C   UNL     1      20.576  48.986  49.426  1.00  0.00     0.008 A 
HETATM   21  C   UNL     1      20.890  50.216  48.835  1.00  0.00     0.025 A 
HETATM   22  C   UNL     1      20.007  51.302  48.904  1.00  0.00     0.021 A 
HETATM   23  C   UNL     1      18.780  51.158  49.541  1.00  0.00     0.011 A 
HETATM   24 BR   UNL     1      17.582  52.617  49.620  1.00  0.00    -0.051 Br
HETATM   25  C   UNL     1      18.425  49.937  50.101  1.00  0.00     0.021 A 
HETATM   26  C   UNL     1      19.313  48.859  50.028  1.00  0.00     0.025 A 
ENDBRANCH  18  20
ENDBRANCH  17  18
ENDBRANCH   2  17
TORSDOF 4
ENDMDL
MODEL 6
REMARK VINA RESULT:      -8.6      3.603      9.292
REMARK  4 active torsions:
REMARK  status: ('A' for Active; 'I' for Inactive)
REMARK    1  A    between atoms: N_7  and  N_8 
REMARK       I    between atoms: N_8  and  C_9 
REMARK    2  A    between atoms: C_9  and  C_10 
REMARK    3  A    between atoms: C_10  and  N_11 
REMARK    4  A    between atoms: N_11  and  C_12 
ROOT
HETATM    1  N   UNL     1      26.063  46.898  50.826  1.00  0.00    -0.245 N 
HETATM    2  C   UNL     1      26.092  46.743  52.203  1.00  0.00     0.250 C 
HETATM    3  O   UNL     1      25.571  47.509  53.014  1.00  0.00    -0.270 OA
HETATM    4  H   UNL     1      26.372  46.139  50.213  1.00  0.00     0.192 HD
ENDROOT
BRANCH   1   5
HETATM    5  N   UNL     1      25.501  48.014  50.272  1.00  0.00    -0.166 NA
HETATM    6  C   UNL     1      24.353  47.862  49.694  1.00  0.00     0.157 A 
HETATM    7  C   UNL     1      23.589  48.911  49.032  1.00  0.00     0.027 A 
HETATM    8  C   UNL     1      23.522  46.583  49.548  1.00  0.00     0.277 A 
HETATM    9  C   UNL     1      23.871  50.248  48.843  1.00  0.00     0.016 A 
HETATM   10  C   UNL     1      22.424  48.314  48.555  1.00  0.00     0.048 A 
HETATM   11  C   UNL     1      22.924  51.000  48.143  1.00  0.00     0.001 A 
HETATM   12  C   UNL     1      21.741  50.403  47.660  1.00  0.00     0.002 A 
HETATM   13  C   UNL     1      21.478  49.043  47.865  1.00  0.00     0.030 A 
HETATM   14  N   UNL     1      22.386  46.955  48.864  1.00  0.00    -0.321 N 
HETATM   15  H   UNL     1      21.647  46.314  48.620  1.00  0.00     0.169 HD
HETATM   16  O   UNL     1      23.856  45.492  49.961  1.00  0.00    -0.266 OA
ENDBRANCH   1   5
BRANCH   2  17
HETATM   17  C   UNL     1      26.831  45.483  52.656  1.00  0.00     0.197 C 
BRANCH  17  18
HETATM   18  N   UNL     1      26.934  45.422  54.118  1.00  0.00    -0.284 NA
HETATM   19  H   UNL     1      26.140  44.907  54.502  1.00  0.00     0.128 HD
BRANCH  18  20
HETATM   20  C   UNL     1      28.135  45.065  54.735  1.00  0.00     0.008 A 
HETATM   21  C   UNL     1      28.729  45.811  55.760  1.00  0.00     0.025 A 
HETATM   22  C   UNL     1      29.887  45.360  56.410  1.00  0.00     0.021 A 
HETATM   23  C   UNL     1      30.445  44.136  56.060  1.00  0.00     0.011 A 
HETATM   24 BR   UNL     1      31.995  43.520  56.947  1.00  0.00    -0.051 Br
HETATM   25  C   UNL     1      29.852  43.357  55.074  1.00  0.00     0.021 A 
HETATM   26  C   UNL     1      28.698  43.815  54.431  1.00  0.00     0.025 A 
ENDBRANCH  18  20
ENDBRANCH  17  18
ENDBRANCH   2  17
TORSDOF 4
ENDMDL
MODEL 7
REMARK VINA RESULT:      -8.5      2.113      3.739
REMARK  4 active torsions:
REMARK  status: ('A' for Active; 'I' for Inactive)
REMARK    1  A    between atoms: N_7  and  N_8 
REMARK       I    between atoms: N_8  and  C_9 
REMARK    2  A    between atoms: C_9  and  C_10 
REMARK    3  A    between atoms: C_10  and  N_11 
REMARK    4  A    between atoms: N_11  and  C_12 
ROOT
HETATM    1  N   UNL     1      25.482  45.711  51.848  1.00  0.00    -0.245 N 
HETATM    2  C   UNL     1      25.395  46.863  51.082  1.00  0.00     0.250 C 
HETATM    3  O   UNL     1      26.165  47.820  51.148  1.00  0.00    -0.270 OA
HETATM    4  H   UNL     1      24.909  44.895  51.622  1.00  0.00     0.192 HD
ENDROOT
BRANCH   1   5
HETATM    5  N   UNL     1      26.427  45.611  52.830  1.00  0.00    -0.166 NA
HETATM    6  C   UNL     1      27.303  44.667  52.702  1.00  0.00     0.157 A 
HETATM    7  C   UNL     1      28.383  44.376  53.635  1.00  0.00     0.027 A 
HETATM    8  C   UNL     1      27.432  43.634  51.578  1.00  0.00     0.277 A 
HETATM    9  C   UNL     1      28.727  44.976  54.829  1.00  0.00     0.016 A 
HETATM   10  C   UNL     1      29.082  43.291  53.110  1.00  0.00     0.048 A 
HETATM   11  C   UNL     1      29.828  44.445  55.508  1.00  0.00     0.001 A 
HETATM   12  C   UNL     1      30.542  43.348  54.981  1.00  0.00     0.002 A 
HETATM   13  C   UNL     1      30.172  42.758  53.766  1.00  0.00     0.030 A 
HETATM   14  N   UNL     1      28.526  42.864  51.905  1.00  0.00    -0.321 N 
HETATM   15  H   UNL     1      28.856  42.095  51.342  1.00  0.00     0.169 HD
HETATM   16  O   UNL     1      26.684  43.553  50.625  1.00  0.00    -0.266 OA
ENDBRANCH   1   5
BRANCH   2  17
HETATM   17  C   UNL     1      24.231  46.842  50.088  1.00  0.00     0.197 C 
BRANCH  17  18
HETATM   18  N   UNL     1      24.321  47.958  49.139  1.00  0.00    -0.284 NA
HETATM   19  H   UNL     1      24.722  47.634  48.258  1.00  0.00     0.128 HD
BRANCH  18  20
HETATM   20  C   UNL     1      23.234  48.811  48.935  1.00  0.00     0.008 A 
HETATM   21  C   UNL     1      21.900  48.395  49.008  1.00  0.00     0.025 A 
HETATM   22  C   UNL     1      20.845  49.310  48.887  1.00  0.00     0.021 A 
HETATM   23  C   UNL     1      21.118  50.663  48.722  1.00  0.00     0.011 A 
HETATM   24 BR   UNL     1      19.697  51.900  48.575  1.00  0.00    -0.051 Br
HETATM   25  C   UNL     1      22.434  51.109  48.687  1.00  0.00     0.021 A 
HETATM   26  C   UNL     1      23.479  50.188  48.808  1.00  0.00     0.025 A 
ENDBRANCH  18  20
ENDBRANCH  17  18
ENDBRANCH   2  17
TORSDOF 4
ENDMDL
MODEL 8
REMARK VINA RESULT:      -8.5      2.242      3.117
REMARK  4 active torsions:
REMARK  status: ('A' for Active; 'I' for Inactive)
REMARK    1  A    between atoms: N_7  and  N_8 
REMARK       I    between atoms: N_8  and  C_9 
REMARK    2  A    between atoms: C_9  and  C_10 
REMARK    3  A    between atoms: C_10  and  N_11 
REMARK    4  A    between atoms: N_11  and  C_12 
ROOT
HETATM    1  N   UNL     1      25.045  45.576  51.359  1.00  0.00    -0.245 N 
HETATM    2  C   UNL     1      25.193  45.911  50.022  1.00  0.00     0.250 C 
HETATM    3  O   UNL     1      26.173  45.644  49.327  1.00  0.00    -0.270 OA
HETATM    4  H   UNL     1      24.140  45.684  51.822  1.00  0.00     0.192 HD
ENDROOT
BRANCH   1   5
HETATM    5  N   UNL     1      26.072  44.977  52.033  1.00  0.00    -0.166 NA
HETATM    6  C   UNL     1      26.586  45.641  53.018  1.00  0.00     0.157 A 
HETATM    7  C   UNL     1      27.691  45.197  53.858  1.00  0.00     0.027 A 
HETATM    8  C   UNL     1      26.190  47.024  53.546  1.00  0.00     0.277 A 
HETATM    9  C   UNL     1      28.443  44.041  53.819  1.00  0.00     0.016 A 
HETATM   10  C   UNL     1      27.916  46.209  54.789  1.00  0.00     0.048 A 
HETATM   11  C   UNL     1      29.460  43.918  54.770  1.00  0.00     0.001 A 
HETATM   12  C   UNL     1      29.691  44.937  55.718  1.00  0.00     0.002 A 
HETATM   13  C   UNL     1      28.913  46.101  55.735  1.00  0.00     0.030 A 
HETATM   14  N   UNL     1      27.033  47.272  54.606  1.00  0.00    -0.321 N 
HETATM   15  H   UNL     1      27.005  48.118  55.154  1.00  0.00     0.169 HD
HETATM   16  O   UNL     1      25.313  47.717  53.074  1.00  0.00    -0.266 OA
ENDBRANCH   1   5
BRANCH   2  17
HETATM   17  C   UNL     1      23.983  46.649  49.445  1.00  0.00     0.197 C 
BRANCH  17  18
HETATM   18  N   UNL     1      24.272  48.074  49.249  1.00  0.00    -0.284 NA
HETATM   19  H   UNL     1      24.962  48.189  48.505  1.00  0.00     0.128 HD
BRANCH  18  20
HETATM   20  C   UNL     1      23.237  49.005  49.148  1.00  0.00     0.008 A 
HETATM   21  C   UNL     1      23.442  50.365  48.890  1.00  0.00     0.025 A 
HETATM   22  C   UNL     1      22.364  51.242  48.707  1.00  0.00     0.021 A 
HETATM   23  C   UNL     1      21.062  50.756  48.750  1.00  0.00     0.011 A 
HETATM   24 BR   UNL     1      19.608  51.934  48.487  1.00  0.00    -0.051 Br
HETATM   25  C   UNL     1      20.830  49.403  48.965  1.00  0.00     0.021 A 
HETATM   26  C   UNL     1      21.913  48.537  49.147  1.00  0.00     0.025 A 
ENDBRANCH  18  20
ENDBRANCH  17  18
ENDBRANCH   2  17
TORSDOF 4
ENDMDL
MODEL 9
REMARK VINA RESULT:      -8.3      4.010      9.680
REMARK  4 active torsions:
REMARK  status: ('A' for Active; 'I' for Inactive)
REMARK    1  A    between atoms: N_7  and  N_8 
REMARK       I    between atoms: N_8  and  C_9 
REMARK    2  A    between atoms: C_9  and  C_10 
REMARK    3  A    between atoms: C_10  and  N_11 
REMARK    4  A    between atoms: N_11  and  C_12 
ROOT
HETATM    1  N   UNL     1      24.974  47.534  49.653  1.00  0.00    -0.245 N 
HETATM    2  C   UNL     1      25.391  47.086  50.896  1.00  0.00     0.250 C 
HETATM    3  O   UNL     1      25.017  47.539  51.977  1.00  0.00    -0.270 OA
HETATM    4  H   UNL     1      25.199  47.004  48.808  1.00  0.00     0.192 HD
ENDROOT
BRANCH   1   5
HETATM    5  N   UNL     1      24.149  48.620  49.557  1.00  0.00    -0.166 NA
HETATM    6  C   UNL     1      23.010  48.435  48.972  1.00  0.00     0.157 A 
HETATM    7  C   UNL     1      21.991  49.454  48.752  1.00  0.00     0.027 A 
HETATM    8  C   UNL     1      22.446  47.144  48.368  1.00  0.00     0.277 A 
HETATM    9  C   UNL     1      21.977  50.796  49.071  1.00  0.00     0.016 A 
HETATM   10  C   UNL     1      20.934  48.826  48.097  1.00  0.00     0.048 A 
HETATM   11  C   UNL     1      20.838  51.519  48.707  1.00  0.00     0.001 A 
HETATM   12  C   UNL     1      19.762  50.889  48.046  1.00  0.00     0.002 A 
HETATM   13  C   UNL     1      19.802  49.524  47.734  1.00  0.00     0.030 A 
HETATM   14  N   UNL     1      21.202  47.475  47.880  1.00  0.00    -0.321 N 
HETATM   15  H   UNL     1      20.590  46.817  47.421  1.00  0.00     0.169 HD
HETATM   16  O   UNL     1      23.032  46.081  48.345  1.00  0.00    -0.266 OA
ENDBRANCH   1   5
BRANCH   2  17
HETATM   17  C   UNL     1      26.376  45.917  50.819  1.00  0.00     0.197 C 
BRANCH  17  18
HETATM   18  N   UNL     1      26.131  44.942  51.888  1.00  0.00    -0.284 NA
HETATM   19  H   UNL     1      25.617  44.141  51.517  1.00  0.00     0.128 HD
BRANCH  18  20
HETATM   20  C   UNL     1      27.161  44.549  52.745  1.00  0.00     0.008 A 
HETATM   21  C   UNL     1      28.171  43.651  52.380  1.00  0.00     0.025 A 
HETATM   22  C   UNL     1      29.233  43.360  53.247  1.00  0.00     0.021 A 
HETATM   23  C   UNL     1      29.312  43.994  54.482  1.00  0.00     0.011 A 
HETATM   24 BR   UNL     1      30.752  43.615  55.645  1.00  0.00    -0.051 Br
HETATM   25  C   UNL     1      28.344  44.919  54.853  1.00  0.00     0.021 A 
HETATM   26  C   UNL     1      27.288  45.202  53.981  1.00  0.00     0.025 A 
ENDBRANCH  18  20
ENDBRANCH  17  18
ENDBRANCH   2  17
TORSDOF 4
ENDMDL
MODEL 10
REMARK VINA RESULT:      -7.8      4.970     10.478
REMARK  4 active torsions:
REMARK  status: ('A' for Active; 'I' for Inactive)
REMARK    1  A    between atoms: N_7  and  N_8 
REMARK       I    between atoms: N_8  and  C_9 
REMARK    2  A    between atoms: C_9  and  C_10 
REMARK    3  A    between atoms: C_10  and  N_11 
REMARK    4  A    between atoms: N_11  and  C_12 
ROOT
HETATM    1  N   UNL     1      22.675  47.777  49.509  1.00  0.00    -0.245 N 
HETATM    2  C   UNL     1      24.048  47.680  49.668  1.00  0.00     0.250 C 
HETATM    3  O   UNL     1      24.823  48.633  49.741  1.00  0.00    -0.270 OA
HETATM    4  H   UNL     1      22.081  46.952  49.622  1.00  0.00     0.192 HD
ENDROOT
BRANCH   1   5
HETATM    5  N   UNL     1      22.090  48.998  49.327  1.00  0.00    -0.166 NA
HETATM    6  C   UNL     1      20.861  49.001  48.920  1.00  0.00     0.157 A 
HETATM    7  C   UNL     1      20.057  50.186  48.651  1.00  0.00     0.027 A 
HETATM    8  C   UNL     1      19.955  47.803  48.618  1.00  0.00     0.277 A 
HETATM    9  C   UNL     1      20.372  51.526  48.735  1.00  0.00     0.016 A 
HETATM   10  C   UNL     1      18.804  49.732  48.243  1.00  0.00     0.048 A 
HETATM   11  C   UNL     1      19.367  52.434  48.390  1.00  0.00     0.001 A 
HETATM   12  C   UNL     1      18.095  51.982  47.978  1.00  0.00     0.002 A 
HETATM   13  C   UNL     1      17.801  50.615  47.902  1.00  0.00     0.030 A 
HETATM   14  N   UNL     1      18.748  48.339  48.230  1.00  0.00    -0.321 N 
HETATM   15  H   UNL     1      17.949  47.783  47.966  1.00  0.00     0.169 HD
HETATM   16  O   UNL     1      20.295  46.641  48.708  1.00  0.00    -0.266 OA
ENDBRANCH   1   5
BRANCH   2  17
HETATM   17  C   UNL     1      24.545  46.237  49.774  1.00  0.00     0.197 C 
BRANCH  17  18
HETATM   18  N   UNL     1      24.376  45.713  51.135  1.00  0.00    -0.284 NA
HETATM   19  H   UNL     1      23.508  45.178  51.196  1.00  0.00     0.128 HD
BRANCH  18  20
HETATM   20  C   UNL     1      25.431  45.075  51.790  1.00  0.00     0.008 A 
HETATM   21  C   UNL     1      26.596  44.644  51.145  1.00  0.00     0.025 A 
HETATM   22  C   UNL     1      27.664  44.092  51.864  1.00  0.00     0.021 A 
HETATM   23  C   UNL     1      27.588  43.993  53.249  1.00  0.00     0.011 A 
HETATM   24 BR   UNL     1      29.035  43.264  54.222  1.00  0.00    -0.051 Br
HETATM   25  C   UNL     1      26.460  44.450  53.919  1.00  0.00     0.021 A 
HETATM   26  C   UNL     1      25.399  44.999  53.192  1.00  0.00     0.025 A 
ENDBRANCH  18  20
ENDBRANCH  17  18
ENDBRANCH   2  17
TORSDOF 4
ENDMDL
