MODEL 1
REMARK VINA RESULT:      -9.3      0.000      0.000
REMARK  6 active torsions:
REMARK  status: ('A' for Active; 'I' for Inactive)
REMARK    1  A    between atoms: C_2  and  C_3 
REMARK    2  A    between atoms: C_3  and  C_4 
REMARK    3  A    between atoms: C_3  and  C_10 
REMARK    4  A    between atoms: C_10  and  C_11 
REMARK       I    between atoms: C_11  and  N_12 
REMARK    5  A    between atoms: N_12  and  C_13 
REMARK    6  A    between atoms: C_20  and  C_21 
REMARK       I    between atoms: C_21  and  N_22 
ROOT
HETATM    1  C   UNL     1      25.925  47.274  50.254  1.00  0.00     0.035 A 
HETATM    2  C   UNL     1      24.615  47.514  49.817  1.00  0.00     0.046 A 
HETATM    3  C   UNL     1      24.359  48.582  48.930  1.00  0.00     0.030 A 
HETATM    4  C   UNL     1      25.417  49.387  48.526  1.00  0.00     0.063 A 
HETATM    5  N   UNL     1      24.865  50.323  47.698  1.00  0.00    -0.277 N 
HETATM    6  H   UNL     1      25.343  51.080  47.224  1.00  0.00     0.189 HD
HETATM    7  N   UNL     1      23.544  50.186  47.505  1.00  0.00    -0.168 NA
HETATM    8  C   UNL     1      23.216  49.110  48.257  1.00  0.00     0.156 A 
HETATM    9  C   UNL     1      26.733  49.181  48.946  1.00  0.00     0.034 A 
HETATM   10  C   UNL     1      26.964  48.101  49.808  1.00  0.00     0.032 A 
ENDROOT
BRANCH   1  11
HETATM   11  N   UNL     1      26.280  46.208  51.109  1.00  0.00    -0.327 N 
HETATM   12  C   UNL     1      26.899  45.022  50.760  1.00  0.00     0.223 C 
HETATM   13  O   UNL     1      27.152  44.644  49.621  1.00  0.00    -0.273 OA
HETATM   14  H   UNL     1      26.081  46.346  52.093  1.00  0.00     0.169 HD
BRANCH  12  15
HETATM   15  C   UNL     1      27.271  44.161  51.954  1.00  0.00     0.116 C 
BRANCH  15  16
HETATM   16  C   UNL     1      27.195  44.891  53.308  1.00  0.00     0.049 C 
BRANCH  16  17
HETATM   17  C   UNL     1      25.882  44.672  54.033  1.00  0.00    -0.027 C 
HETATM   18  C   UNL     1      25.670  43.714  54.946  1.00  0.00     0.007 C 
ENDBRANCH  16  17
BRANCH  16  19
HETATM   19  C   UNL     1      28.419  44.631  54.180  1.00  0.00    -0.050 A 
HETATM   20  C   UNL     1      29.223  43.490  54.027  1.00  0.00     0.008 A 
HETATM   21  C   UNL     1      30.351  43.298  54.827  1.00  0.00     0.001 A 
HETATM   22  C   UNL     1      30.688  44.237  55.798  1.00  0.00     0.000 A 
HETATM   23  C   UNL     1      29.901  45.372  55.967  1.00  0.00     0.001 A 
HETATM   24  C   UNL     1      28.778  45.571  55.162  1.00  0.00     0.008 A 
ENDBRANCH  16  19
ENDBRANCH  15  16
ENDBRANCH  12  15
ENDBRANCH   1  11
BRANCH   8  25
HETATM   25  C   UNL     1      21.836  48.606  48.304  1.00  0.00     0.270 C 
HETATM   26  N   UNL     1      21.259  48.674  49.544  1.00  0.00    -0.365 N 
HETATM   27  H   UNL     1      21.794  49.066  50.308  1.00  0.00     0.159 HD
HETATM   28  H   UNL     1      20.304  48.374  49.664  1.00  0.00     0.159 HD
HETATM   29  O   UNL     1      21.217  48.167  47.342  1.00  0.00    -0.266 OA
ENDBRANCH   8  25
TORSDOF 6
ENDMDL
MODEL 2
REMARK VINA RESULT:      -9.3      5.465      7.702
REMARK  6 active torsions:
REMARK  status: ('A' for Active; 'I' for Inactive)
REMARK    1  A    between atoms: C_2  and  C_3 
REMARK    2  A    between atoms: C_3  and  C_4 
REMARK    3  A    between atoms: C_3  and  C_10 
REMARK    4  A    between atoms: C_10  and  C_11 
REMARK       I    between atoms: C_11  and  N_12 
REMARK    5  A    between atoms: N_12  and  C_13 
REMARK    6  A    between atoms: C_20  and  C_21 
REMARK       I    between atoms: C_21  and  N_22 
ROOT
HETATM    1  C   UNL     1      27.563  41.863  51.400  1.00  0.00     0.035 A 
HETATM    2  C   UNL     1      28.172  40.604  51.307  1.00  0.00     0.046 A 
HETATM    3  C   UNL     1      28.248  39.957  50.054  1.00  0.00     0.030 A 
HETATM    4  C   UNL     1      27.695  40.580  48.942  1.00  0.00     0.063 A 
HETATM    5  N   UNL     1      27.909  39.722  47.901  1.00  0.00    -0.277 N 
HETATM    6  H   UNL     1      27.630  39.847  46.936  1.00  0.00     0.189 HD
HETATM    7  N   UNL     1      28.576  38.603  48.230  1.00  0.00    -0.168 NA
HETATM    8  C   UNL     1      28.797  38.736  49.558  1.00  0.00     0.156 A 
HETATM    9  C   UNL     1      27.076  41.831  49.000  1.00  0.00     0.034 A 
HETATM   10  C   UNL     1      27.033  42.461  50.251  1.00  0.00     0.032 A 
ENDROOT
BRANCH   1  11
HETATM   11  N   UNL     1      27.475  42.600  52.602  1.00  0.00    -0.327 N 
HETATM   12  C   UNL     1      28.435  43.428  53.151  1.00  0.00     0.223 C 
HETATM   13  O   UNL     1      29.580  43.584  52.739  1.00  0.00    -0.273 OA
HETATM   14  H   UNL     1      26.595  42.530  53.099  1.00  0.00     0.169 HD
BRANCH  12  15
HETATM   15  C   UNL     1      27.952  44.184  54.376  1.00  0.00     0.116 C 
BRANCH  15  16
HETATM   16  C   UNL     1      28.839  45.378  54.772  1.00  0.00     0.049 C 
BRANCH  16  17
HETATM   17  C   UNL     1      28.069  46.677  54.905  1.00  0.00    -0.027 C 
HETATM   18  C   UNL     1      26.952  46.972  54.225  1.00  0.00     0.007 C 
ENDBRANCH  16  17
BRANCH  16  19
HETATM   19  C   UNL     1      29.723  45.073  55.977  1.00  0.00    -0.050 A 
HETATM   20  C   UNL     1      30.672  44.039  55.972  1.00  0.00     0.008 A 
HETATM   21  C   UNL     1      31.482  43.805  57.086  1.00  0.00     0.001 A 
HETATM   22  C   UNL     1      31.350  44.595  58.224  1.00  0.00     0.000 A 
HETATM   23  C   UNL     1      30.412  45.624  58.249  1.00  0.00     0.001 A 
HETATM   24  C   UNL     1      29.608  45.864  57.134  1.00  0.00     0.008 A 
ENDBRANCH  16  19
ENDBRANCH  15  16
ENDBRANCH  12  15
ENDBRANCH   1  11
BRANCH   8  25
HETATM   25  C   UNL     1      29.533  37.712  50.313  1.00  0.00     0.270 C 
HETATM   26  N   UNL     1      28.748  36.695  50.785  1.00  0.00    -0.365 N 
HETATM   27  H   UNL     1      27.757  36.709  50.577  1.00  0.00     0.159 HD
HETATM   28  H   UNL     1      29.172  35.935  51.293  1.00  0.00     0.159 HD
HETATM   29  O   UNL     1      30.742  37.723  50.514  1.00  0.00    -0.266 OA
ENDBRANCH   8  25
TORSDOF 6
ENDMDL
MODEL 3
REMARK VINA RESULT:      -8.8      2.303      3.491
REMARK  6 active torsions:
REMARK  status: ('A' for Active; 'I' for Inactive)
REMARK    1  A    between atoms: C_2  and  C_3 
REMARK    2  A    between atoms: C_3  and  C_4 
REMARK    3  A    between atoms: C_3  and  C_10 
REMARK    4  A    between atoms: C_10  and  C_11 
REMARK       I    between atoms: C_11  and  N_12 
REMARK    5  A    between atoms: N_12  and  C_13 
REMARK    6  A    between atoms: C_20  and  C_21 
REMARK       I    between atoms: C_21  and  N_22 
ROOT
HETATM    1  C   UNL     1      25.443  44.618  51.344  1.00  0.00     0.035 A 
HETATM    2  C   UNL     1      25.025  45.882  50.903  1.00  0.00     0.046 A 
HETATM    3  C   UNL     1      24.077  45.979  49.863  1.00  0.00     0.030 A 
HETATM    4  C   UNL     1      23.594  44.811  49.284  1.00  0.00     0.063 A 
HETATM    5  N   UNL     1      22.720  45.221  48.317  1.00  0.00    -0.277 N 
HETATM    6  H   UNL     1      22.184  44.636  47.687  1.00  0.00     0.189 HD
HETATM    7  N   UNL     1      22.569  46.553  48.229  1.00  0.00    -0.168 NA
HETATM    8  C   UNL     1      23.399  47.036  49.182  1.00  0.00     0.156 A 
HETATM    9  C   UNL     1      23.992  43.537  49.694  1.00  0.00     0.034 A 
HETATM   10  C   UNL     1      24.917  43.468  50.744  1.00  0.00     0.032 A 
ENDROOT
BRANCH   1  11
HETATM   11  N   UNL     1      26.358  44.424  52.403  1.00  0.00    -0.327 N 
HETATM   12  C   UNL     1      26.065  44.219  53.738  1.00  0.00     0.223 C 
HETATM   13  O   UNL     1      24.954  44.275  54.254  1.00  0.00    -0.273 OA
HETATM   14  H   UNL     1      27.337  44.408  52.143  1.00  0.00     0.169 HD
BRANCH  12  15
HETATM   15  C   UNL     1      27.287  43.895  54.581  1.00  0.00     0.116 C 
BRANCH  15  16
HETATM   16  C   UNL     1      28.243  45.083  54.790  1.00  0.00     0.049 C 
BRANCH  16  17
HETATM   17  C   UNL     1      27.527  46.368  55.156  1.00  0.00    -0.027 C 
HETATM   18  C   UNL     1      27.596  47.505  54.447  1.00  0.00     0.007 C 
ENDBRANCH  16  17
BRANCH  16  19
HETATM   19  C   UNL     1      29.396  44.745  55.729  1.00  0.00    -0.050 A 
HETATM   20  C   UNL     1      29.682  45.505  56.874  1.00  0.00     0.008 A 
HETATM   21  C   UNL     1      30.731  45.150  57.725  1.00  0.00     0.001 A 
HETATM   22  C   UNL     1      31.515  44.035  57.440  1.00  0.00     0.000 A 
HETATM   23  C   UNL     1      31.249  43.271  56.308  1.00  0.00     0.001 A 
HETATM   24  C   UNL     1      30.196  43.620  55.460  1.00  0.00     0.008 A 
ENDBRANCH  16  19
ENDBRANCH  15  16
ENDBRANCH  12  15
ENDBRANCH   1  11
BRANCH   8  25
HETATM   25  C   UNL     1      23.515  48.480  49.430  1.00  0.00     0.270 C 
HETATM   26  N   UNL     1      22.321  49.103  49.673  1.00  0.00    -0.365 N 
HETATM   27  H   UNL     1      21.476  48.546  49.682  1.00  0.00     0.159 HD
HETATM   28  H   UNL     1      22.308  50.089  49.879  1.00  0.00     0.159 HD
HETATM   29  O   UNL     1      24.569  49.107  49.440  1.00  0.00    -0.266 OA
ENDBRANCH   8  25
TORSDOF 6
ENDMDL
MODEL 4
REMARK VINA RESULT:      -8.5      4.292      5.973
REMARK  6 active torsions:
REMARK  status: ('A' for Active; 'I' for Inactive)
REMARK    1  A    between atoms: C_2  and  C_3 
REMARK    2  A    between atoms: C_3  and  C_4 
REMARK    3  A    between atoms: C_3  and  C_10 
REMARK    4  A    between atoms: C_10  and  C_11 
REMARK       I    between atoms: C_11  and  N_12 
REMARK    5  A    between atoms: N_12  and  C_13 
REMARK    6  A    between atoms: C_20  and  C_21 
REMARK       I    between atoms: C_21  and  N_22 
ROOT
HETATM    1  C   UNL     1      26.164  43.851  51.421  1.00  0.00     0.035 A 
HETATM    2  C   UNL     1      26.485  42.514  51.149  1.00  0.00     0.046 A 
HETATM    3  C   UNL     1      26.148  41.957  49.896  1.00  0.00     0.030 A 
HETATM    4  C   UNL     1      25.484  42.748  48.967  1.00  0.00     0.063 A 
HETATM    5  N   UNL     1      25.287  41.943  47.881  1.00  0.00    -0.277 N 
HETATM    6  H   UNL     1      24.824  42.186  47.013  1.00  0.00     0.189 HD
HETATM    7  N   UNL     1      25.786  40.703  48.008  1.00  0.00    -0.168 NA
HETATM    8  C   UNL     1      26.327  40.697  49.249  1.00  0.00     0.156 A 
HETATM    9  C   UNL     1      25.144  44.081  49.206  1.00  0.00     0.034 A 
HETATM   10  C   UNL     1      25.509  44.617  50.448  1.00  0.00     0.032 A 
ENDROOT
BRANCH   1  11
HETATM   11  N   UNL     1      26.495  44.503  52.630  1.00  0.00    -0.327 N 
HETATM   12  C   UNL     1      25.742  44.558  53.787  1.00  0.00     0.223 C 
HETATM   13  O   UNL     1      24.600  44.135  53.930  1.00  0.00    -0.273 OA
HETATM   14  H   UNL     1      27.400  44.957  52.653  1.00  0.00     0.169 HD
BRANCH  12  15
HETATM   15  C   UNL     1      26.467  45.216  54.948  1.00  0.00     0.116 C 
BRANCH  15  16
HETATM   16  C   UNL     1      27.831  45.825  54.577  1.00  0.00     0.049 C 
BRANCH  16  17
HETATM   17  C   UNL     1      27.895  47.324  54.793  1.00  0.00    -0.027 C 
HETATM   18  C   UNL     1      26.916  48.055  55.345  1.00  0.00     0.007 C 
ENDBRANCH  16  17
BRANCH  16  19
HETATM   19  C   UNL     1      28.997  45.073  55.211  1.00  0.00    -0.050 A 
HETATM   20  C   UNL     1      29.497  43.874  54.679  1.00  0.00     0.008 A 
HETATM   21  C   UNL     1      30.583  43.225  55.272  1.00  0.00     0.001 A 
HETATM   22  C   UNL     1      31.180  43.761  56.409  1.00  0.00     0.000 A 
HETATM   23  C   UNL     1      30.697  44.948  56.953  1.00  0.00     0.001 A 
HETATM   24  C   UNL     1      29.617  45.601  56.357  1.00  0.00     0.008 A 
ENDBRANCH  16  19
ENDBRANCH  15  16
ENDBRANCH  12  15
ENDBRANCH   1  11
BRANCH   8  25
HETATM   25  C   UNL     1      27.007  39.506  49.777  1.00  0.00     0.270 C 
HETATM   26  N   UNL     1      26.162  38.570  50.310  1.00  0.00    -0.365 N 
HETATM   27  H   UNL     1      25.166  38.748  50.289  1.00  0.00     0.159 HD
HETATM   28  H   UNL     1      26.539  37.709  50.673  1.00  0.00     0.159 HD
HETATM   29  O   UNL     1      28.218  39.323  49.752  1.00  0.00    -0.266 OA
ENDBRANCH   8  25
TORSDOF 6
ENDMDL
MODEL 5
REMARK VINA RESULT:      -8.4      2.084      2.966
REMARK  6 active torsions:
REMARK  status: ('A' for Active; 'I' for Inactive)
REMARK    1  A    between atoms: C_2  and  C_3 
REMARK    2  A    between atoms: C_3  and  C_4 
REMARK    3  A    between atoms: C_3  and  C_10 
REMARK    4  A    between atoms: C_10  and  C_11 
REMARK       I    between atoms: C_11  and  N_12 
REMARK    5  A    between atoms: N_12  and  C_13 
REMARK    6  A    between atoms: C_20  and  C_21 
REMARK       I    between atoms: C_21  and  N_22 
ROOT
HETATM    1  C   UNL     1      25.363  45.098  49.925  1.00  0.00     0.035 A 
HETATM    2  C   UNL     1      24.897  46.418  49.846  1.00  0.00     0.046 A 
HETATM    3  C   UNL     1      23.669  46.686  49.202  1.00  0.00     0.030 A 
HETATM    4  C   UNL     1      22.961  45.630  48.642  1.00  0.00     0.063 A 
HETATM    5  N   UNL     1      21.845  46.195  48.091  1.00  0.00    -0.277 N 
HETATM    6  H   UNL     1      21.103  45.722  47.589  1.00  0.00     0.189 HD
HETATM    7  N   UNL     1      21.749  47.523  48.263  1.00  0.00    -0.168 NA
HETATM    8  C   UNL     1      22.868  47.842  48.953  1.00  0.00     0.156 A 
HETATM    9  C   UNL     1      23.398  44.305  48.698  1.00  0.00     0.034 A 
HETATM   10  C   UNL     1      24.608  44.063  49.361  1.00  0.00     0.032 A 
ENDROOT
BRANCH   1  11
HETATM   11  N   UNL     1      26.559  44.731  50.582  1.00  0.00    -0.327 N 
HETATM   12  C   UNL     1      26.690  44.195  51.849  1.00  0.00     0.223 C 
HETATM   13  O   UNL     1      25.791  44.043  52.669  1.00  0.00    -0.273 OA
HETATM   14  H   UNL     1      27.411  44.852  50.048  1.00  0.00     0.169 HD
BRANCH  12  15
HETATM   15  C   UNL     1      28.112  43.777  52.183  1.00  0.00     0.116 C 
BRANCH  15  16
HETATM   16  C   UNL     1      28.252  43.032  53.524  1.00  0.00     0.049 C 
BRANCH  16  17
HETATM   17  C   UNL     1      28.714  41.597  53.365  1.00  0.00    -0.027 C 
HETATM   18  C   UNL     1      28.664  40.905  52.218  1.00  0.00     0.007 C 
ENDBRANCH  16  17
BRANCH  16  19
HETATM   19  C   UNL     1      29.065  43.820  54.545  1.00  0.00    -0.050 A 
HETATM   20  C   UNL     1      30.254  43.324  55.104  1.00  0.00     0.008 A 
HETATM   21  C   UNL     1      30.986  44.085  56.019  1.00  0.00     0.001 A 
HETATM   22  C   UNL     1      30.538  45.349  56.394  1.00  0.00     0.000 A 
HETATM   23  C   UNL     1      29.360  45.856  55.853  1.00  0.00     0.001 A 
HETATM   24  C   UNL     1      28.631  45.100  54.932  1.00  0.00     0.008 A 
ENDBRANCH  16  19
ENDBRANCH  15  16
ENDBRANCH  12  15
ENDBRANCH   1  11
BRANCH   8  25
HETATM   25  C   UNL     1      23.139  49.225  49.369  1.00  0.00     0.270 C 
HETATM   26  N   UNL     1      22.067  49.857  49.940  1.00  0.00    -0.365 N 
HETATM   27  H   UNL     1      21.202  49.343  50.048  1.00  0.00     0.159 HD
HETATM   28  H   UNL     1      22.169  50.801  50.278  1.00  0.00     0.159 HD
HETATM   29  O   UNL     1      24.216  49.796  49.245  1.00  0.00    -0.266 OA
ENDBRANCH   8  25
TORSDOF 6
ENDMDL
MODEL 6
REMARK VINA RESULT:      -8.3      4.816      6.229
REMARK  6 active torsions:
REMARK  status: ('A' for Active; 'I' for Inactive)
REMARK    1  A    between atoms: C_2  and  C_3 
REMARK    2  A    between atoms: C_3  and  C_4 
REMARK    3  A    between atoms: C_3  and  C_10 
REMARK    4  A    between atoms: C_10  and  C_11 
REMARK       I    between atoms: C_11  and  N_12 
REMARK    5  A    between atoms: N_12  and  C_13 
REMARK    6  A    between atoms: C_20  and  C_21 
REMARK       I    between atoms: C_21  and  N_22 
ROOT
HETATM    1  C   UNL     1      27.183  41.554  51.672  1.00  0.00     0.035 A 
HETATM    2  C   UNL     1      26.163  41.739  50.729  1.00  0.00     0.046 A 
HETATM    3  C   UNL     1      26.115  40.916  49.582  1.00  0.00     0.030 A 
HETATM    4  C   UNL     1      27.100  39.951  49.407  1.00  0.00     0.063 A 
HETATM    5  N   UNL     1      26.799  39.337  48.225  1.00  0.00    -0.277 N 
HETATM    6  H   UNL     1      27.310  38.586  47.777  1.00  0.00     0.189 HD
HETATM    7  N   UNL     1      25.690  39.798  47.624  1.00  0.00    -0.168 NA
HETATM    8  C   UNL     1      25.252  40.772  48.454  1.00  0.00     0.156 A 
HETATM    9  C   UNL     1      28.133  39.744  50.324  1.00  0.00     0.034 A 
HETATM   10  C   UNL     1      28.145  40.558  51.463  1.00  0.00     0.032 A 
ENDROOT
BRANCH   1  11
HETATM   11  N   UNL     1      27.288  42.303  52.865  1.00  0.00    -0.327 N 
HETATM   12  C   UNL     1      28.009  43.464  53.066  1.00  0.00     0.223 C 
HETATM   13  O   UNL     1      28.774  43.992  52.265  1.00  0.00    -0.273 OA
HETATM   14  H   UNL     1      26.750  41.958  53.652  1.00  0.00     0.169 HD
BRANCH  12  15
HETATM   15  C   UNL     1      27.779  44.090  54.431  1.00  0.00     0.116 C 
BRANCH  15  16
HETATM   16  C   UNL     1      28.706  45.278  54.746  1.00  0.00     0.049 C 
BRANCH  16  17
HETATM   17  C   UNL     1      27.960  46.583  54.938  1.00  0.00    -0.027 C 
HETATM   18  C   UNL     1      26.687  46.792  54.574  1.00  0.00     0.007 C 
ENDBRANCH  16  17
BRANCH  16  19
HETATM   19  C   UNL     1      29.686  44.969  55.873  1.00  0.00    -0.050 A 
HETATM   20  C   UNL     1      29.729  45.719  57.060  1.00  0.00     0.008 A 
HETATM   21  C   UNL     1      30.623  45.391  58.081  1.00  0.00     0.001 A 
HETATM   22  C   UNL     1      31.493  44.315  57.930  1.00  0.00     0.000 A 
HETATM   23  C   UNL     1      31.468  43.562  56.760  1.00  0.00     0.001 A 
HETATM   24  C   UNL     1      30.569  43.883  55.741  1.00  0.00     0.008 A 
ENDBRANCH  16  19
ENDBRANCH  15  16
ENDBRANCH  12  15
ENDBRANCH   1  11
BRANCH   8  25
HETATM   25  C   UNL     1      24.025  41.527  48.162  1.00  0.00     0.270 C 
HETATM   26  N   UNL     1      24.239  42.705  47.498  1.00  0.00    -0.365 N 
HETATM   27  H   UNL     1      25.187  42.958  47.250  1.00  0.00     0.159 HD
HETATM   28  H   UNL     1      23.452  43.276  47.234  1.00  0.00     0.159 HD
HETATM   29  O   UNL     1      22.893  41.164  48.457  1.00  0.00    -0.266 OA
ENDBRANCH   8  25
TORSDOF 6
ENDMDL
MODEL 7
REMARK VINA RESULT:      -8.3      2.156      2.800
REMARK  6 active torsions:
REMARK  status: ('A' for Active; 'I' for Inactive)
REMARK    1  A    between atoms: C_2  and  C_3 
REMARK    2  A    between atoms: C_3  and  C_4 
REMARK    3  A    between atoms: C_3  and  C_10 
REMARK    4  A    between atoms: C_10  and  C_11 
REMARK       I    between atoms: C_11  and  N_12 
REMARK    5  A    between atoms: N_12  and  C_13 
REMARK    6  A    between atoms: C_20  and  C_21 
REMARK       I    between atoms: C_21  and  N_22 
ROOT
HETATM    1  C   UNL     1      24.236  46.108  49.668  1.00  0.00     0.035 A 
HETATM    2  C   UNL     1      23.857  47.451  49.806  1.00  0.00     0.046 A 
HETATM    3  C   UNL     1      22.821  47.969  49.000  1.00  0.00     0.030 A 
HETATM    4  C   UNL     1      22.213  47.136  48.070  1.00  0.00     0.063 A 
HETATM    5  N   UNL     1      21.278  47.911  47.445  1.00  0.00    -0.277 N 
HETATM    6  H   UNL     1      20.649  47.633  46.701  1.00  0.00     0.189 HD
HETATM    7  N   UNL     1      21.203  49.171  47.902  1.00  0.00    -0.168 NA
HETATM    8  C   UNL     1      22.148  49.222  48.868  1.00  0.00     0.156 A 
HETATM    9  C   UNL     1      22.569  45.796  47.902  1.00  0.00     0.034 A 
HETATM   10  C   UNL     1      23.585  45.299  48.729  1.00  0.00     0.032 A 
ENDROOT
BRANCH   1  11
HETATM   11  N   UNL     1      25.234  45.493  50.457  1.00  0.00    -0.327 N 
HETATM   12  C   UNL     1      25.062  44.507  51.408  1.00  0.00     0.223 C 
HETATM   13  O   UNL     1      23.991  44.065  51.811  1.00  0.00    -0.273 OA
HETATM   14  H   UNL     1      26.185  45.796  50.280  1.00  0.00     0.169 HD
BRANCH  12  15
HETATM   15  C   UNL     1      26.370  43.965  51.960  1.00  0.00     0.116 C 
BRANCH  15  16
HETATM   16  C   UNL     1      27.135  44.955  52.858  1.00  0.00     0.049 C 
BRANCH  16  17
HETATM   17  C   UNL     1      26.243  45.669  53.854  1.00  0.00    -0.027 C 
HETATM   18  C   UNL     1      26.068  46.998  53.902  1.00  0.00     0.007 C 
ENDBRANCH  16  17
BRANCH  16  19
HETATM   19  C   UNL     1      28.372  44.330  53.493  1.00  0.00    -0.050 A 
HETATM   20  C   UNL     1      28.784  44.637  54.800  1.00  0.00     0.008 A 
HETATM   21  C   UNL     1      29.908  44.025  55.358  1.00  0.00     0.001 A 
HETATM   22  C   UNL     1      30.642  43.103  54.617  1.00  0.00     0.000 A 
HETATM   23  C   UNL     1      30.251  42.788  53.319  1.00  0.00     0.001 A 
HETATM   24  C   UNL     1      29.123  43.392  52.762  1.00  0.00     0.008 A 
ENDBRANCH  16  19
ENDBRANCH  15  16
ENDBRANCH  12  15
ENDBRANCH   1  11
BRANCH   8  25
HETATM   25  C   UNL     1      22.377  50.448  49.646  1.00  0.00     0.270 C 
HETATM   26  N   UNL     1      21.431  50.685  50.607  1.00  0.00    -0.365 N 
HETATM   27  H   UNL     1      20.679  50.018  50.722  1.00  0.00     0.159 HD
HETATM   28  H   UNL     1      21.522  51.490  51.206  1.00  0.00     0.159 HD
HETATM   29  O   UNL     1      23.324  51.211  49.489  1.00  0.00    -0.266 OA
ENDBRANCH   8  25
TORSDOF 6
ENDMDL
MODEL 8
REMARK VINA RESULT:      -8.3      5.615      7.562
REMARK  6 active torsions:
REMARK  status: ('A' for Active; 'I' for Inactive)
REMARK    1  A    between atoms: C_2  and  C_3 
REMARK    2  A    between atoms: C_3  and  C_4 
REMARK    3  A    between atoms: C_3  and  C_10 
REMARK    4  A    between atoms: C_10  and  C_11 
REMARK       I    between atoms: C_11  and  N_12 
REMARK    5  A    between atoms: N_12  and  C_13 
REMARK    6  A    between atoms: C_20  and  C_21 
REMARK       I    between atoms: C_21  and  N_22 
ROOT
HETATM    1  C   UNL     1      28.629  40.226  51.485  1.00  0.00     0.035 A 
HETATM    2  C   UNL     1      28.094  40.582  50.240  1.00  0.00     0.046 A 
HETATM    3  C   UNL     1      28.294  39.737  49.127  1.00  0.00     0.030 A 
HETATM    4  C   UNL     1      29.039  38.576  49.291  1.00  0.00     0.063 A 
HETATM    5  N   UNL     1      29.068  37.986  48.059  1.00  0.00    -0.277 N 
HETATM    6  H   UNL     1      29.531  37.123  47.803  1.00  0.00     0.189 HD
HETATM    7  N   UNL     1      28.386  38.647  47.109  1.00  0.00    -0.168 NA
HETATM    8  C   UNL     1      27.897  39.730  47.755  1.00  0.00     0.156 A 
HETATM    9  C   UNL     1      29.591  38.193  50.515  1.00  0.00     0.034 A 
HETATM   10  C   UNL     1      29.360  39.037  51.609  1.00  0.00     0.032 A 
ENDROOT
BRANCH   1  11
HETATM   11  N   UNL     1      28.449  40.989  52.660  1.00  0.00    -0.327 N 
HETATM   12  C   UNL     1      29.195  42.073  53.080  1.00  0.00     0.223 C 
HETATM   13  O   UNL     1      30.218  42.497  52.552  1.00  0.00    -0.273 OA
HETATM   14  H   UNL     1      27.664  40.722  53.243  1.00  0.00     0.169 HD
BRANCH  12  15
HETATM   15  C   UNL     1      28.632  42.753  54.316  1.00  0.00     0.116 C 
BRANCH  15  16
HETATM   16  C   UNL     1      29.102  44.206  54.508  1.00  0.00     0.049 C 
BRANCH  16  17
HETATM   17  C   UNL     1      27.981  45.218  54.387  1.00  0.00    -0.027 C 
HETATM   18  C   UNL     1      26.781  44.963  53.845  1.00  0.00     0.007 C 
ENDBRANCH  16  17
BRANCH  16  19
HETATM   19  C   UNL     1      29.945  44.384  55.766  1.00  0.00    -0.050 A 
HETATM   20  C   UNL     1      29.779  45.475  56.635  1.00  0.00     0.008 A 
HETATM   21  C   UNL     1      30.552  45.592  57.792  1.00  0.00     0.001 A 
HETATM   22  C   UNL     1      31.507  44.625  58.096  1.00  0.00     0.000 A 
HETATM   23  C   UNL     1      31.688  43.538  57.246  1.00  0.00     0.001 A 
HETATM   24  C   UNL     1      30.910  43.415  56.092  1.00  0.00     0.008 A 
ENDBRANCH  16  19
ENDBRANCH  15  16
ENDBRANCH  12  15
ENDBRANCH   1  11
BRANCH   8  25
HETATM   25  C   UNL     1      27.059  40.717  47.060  1.00  0.00     0.270 C 
HETATM   26  N   UNL     1      27.656  41.286  45.967  1.00  0.00    -0.365 N 
HETATM   27  H   UNL     1      28.589  40.988  45.714  1.00  0.00     0.159 HD
HETATM   28  H   UNL     1      27.144  41.956  45.414  1.00  0.00     0.159 HD
HETATM   29  O   UNL     1      25.919  41.024  47.389  1.00  0.00    -0.266 OA
ENDBRANCH   8  25
TORSDOF 6
ENDMDL
MODEL 9
REMARK VINA RESULT:      -8.3      3.696      8.596
REMARK  6 active torsions:
REMARK  status: ('A' for Active; 'I' for Inactive)
REMARK    1  A    between atoms: C_2  and  C_3 
REMARK    2  A    between atoms: C_3  and  C_4 
REMARK    3  A    between atoms: C_3  and  C_10 
REMARK    4  A    between atoms: C_10  and  C_11 
REMARK       I    between atoms: C_11  and  N_12 
REMARK    5  A    between atoms: N_12  and  C_13 
REMARK    6  A    between atoms: C_20  and  C_21 
REMARK       I    between atoms: C_21  and  N_22 
ROOT
HETATM    1  C   UNL     1      28.121  44.431  53.575  1.00  0.00     0.035 A 
HETATM    2  C   UNL     1      28.456  44.968  54.826  1.00  0.00     0.046 A 
HETATM    3  C   UNL     1      29.605  44.502  55.500  1.00  0.00     0.030 A 
HETATM    4  C   UNL     1      30.369  43.502  54.912  1.00  0.00     0.063 A 
HETATM    5  N   UNL     1      31.386  43.258  55.791  1.00  0.00    -0.277 N 
HETATM    6  H   UNL     1      32.133  42.581  55.693  1.00  0.00     0.189 HD
HETATM    7  N   UNL     1      31.369  44.029  56.891  1.00  0.00    -0.168 NA
HETATM    8  C   UNL     1      30.275  44.807  56.724  1.00  0.00     0.156 A 
HETATM    9  C   UNL     1      30.062  42.940  53.671  1.00  0.00     0.034 A 
HETATM   10  C   UNL     1      28.929  43.435  53.012  1.00  0.00     0.032 A 
ENDROOT
BRANCH   1  11
HETATM   11  N   UNL     1      27.013  44.861  52.812  1.00  0.00    -0.327 N 
HETATM   12  C   UNL     1      25.674  44.665  53.091  1.00  0.00     0.223 C 
HETATM   13  O   UNL     1      25.216  43.985  54.003  1.00  0.00    -0.273 OA
HETATM   14  H   UNL     1      27.232  45.398  51.980  1.00  0.00     0.169 HD
BRANCH  12  15
HETATM   15  C   UNL     1      24.745  45.393  52.135  1.00  0.00     0.116 C 
BRANCH  15  16
HETATM   16  C   UNL     1      25.142  45.271  50.652  1.00  0.00     0.049 C 
BRANCH  16  17
HETATM   17  C   UNL     1      24.145  44.477  49.831  1.00  0.00    -0.027 C 
HETATM   18  C   UNL     1      24.322  44.130  48.548  1.00  0.00     0.007 C 
ENDBRANCH  16  17
BRANCH  16  19
HETATM   19  C   UNL     1      25.501  46.617  50.032  1.00  0.00    -0.050 A 
HETATM   20  C   UNL     1      24.535  47.593  49.740  1.00  0.00     0.008 A 
HETATM   21  C   UNL     1      24.905  48.825  49.195  1.00  0.00     0.001 A 
HETATM   22  C   UNL     1      26.244  49.097  48.928  1.00  0.00     0.000 A 
HETATM   23  C   UNL     1      27.215  48.141  49.208  1.00  0.00     0.001 A 
HETATM   24  C   UNL     1      26.849  46.912  49.760  1.00  0.00     0.008 A 
ENDBRANCH  16  19
ENDBRANCH  15  16
ENDBRANCH  12  15
ENDBRANCH   1  11
BRANCH   8  25
HETATM   25  C   UNL     1      29.906  45.825  57.718  1.00  0.00     0.270 C 
HETATM   26  N   UNL     1      30.929  46.188  58.552  1.00  0.00    -0.365 N 
HETATM   27  H   UNL     1      31.837  45.761  58.421  1.00  0.00     0.159 HD
HETATM   28  H   UNL     1      30.773  46.900  59.248  1.00  0.00     0.159 HD
HETATM   29  O   UNL     1      28.797  46.338  57.817  1.00  0.00    -0.266 OA
ENDBRANCH   8  25
TORSDOF 6
ENDMDL
MODEL 10
REMARK VINA RESULT:      -8.2      4.358      5.877
REMARK  6 active torsions:
REMARK  status: ('A' for Active; 'I' for Inactive)
REMARK    1  A    between atoms: C_2  and  C_3 
REMARK    2  A    between atoms: C_3  and  C_4 
REMARK    3  A    between atoms: C_3  and  C_10 
REMARK    4  A    between atoms: C_10  and  C_11 
REMARK       I    between atoms: C_11  and  N_12 
REMARK    5  A    between atoms: N_12  and  C_13 
REMARK    6  A    between atoms: C_20  and  C_21 
REMARK       I    between atoms: C_21  and  N_22 
ROOT
HETATM    1  C   UNL     1      27.511  41.913  50.783  1.00  0.00     0.035 A 
HETATM    2  C   UNL     1      26.252  42.474  50.529  1.00  0.00     0.046 A 
HETATM    3  C   UNL     1      25.350  41.806  49.673  1.00  0.00     0.030 A 
HETATM    4  C   UNL     1      25.744  40.611  49.084  1.00  0.00     0.063 A 
HETATM    5  N   UNL     1      24.685  40.219  48.315  1.00  0.00    -0.277 N 
HETATM    6  H   UNL     1      24.622  39.392  47.734  1.00  0.00     0.189 HD
HETATM    7  N   UNL     1      23.623  41.039  48.370  1.00  0.00    -0.168 NA
HETATM    8  C   UNL     1      24.017  42.024  49.210  1.00  0.00     0.156 A 
HETATM    9  C   UNL     1      26.992  40.027  49.309  1.00  0.00     0.034 A 
HETATM   10  C   UNL     1      27.861  40.698  50.180  1.00  0.00     0.032 A 
ENDROOT
BRANCH   1  11
HETATM   11  N   UNL     1      28.462  42.490  51.653  1.00  0.00    -0.327 N 
HETATM   12  C   UNL     1      28.949  41.961  52.834  1.00  0.00     0.223 C 
HETATM   13  O   UNL     1      28.557  40.939  53.387  1.00  0.00    -0.273 OA
HETATM   14  H   UNL     1      28.847  43.380  51.360  1.00  0.00     0.169 HD
BRANCH  12  15
HETATM   15  C   UNL     1      30.076  42.778  53.442  1.00  0.00     0.116 C 
BRANCH  15  16
HETATM   16  C   UNL     1      29.776  43.313  54.855  1.00  0.00     0.049 C 
BRANCH  16  17
HETATM   17  C   UNL     1      31.026  43.588  55.667  1.00  0.00    -0.027 C 
HETATM   18  C   UNL     1      31.217  43.182  56.930  1.00  0.00     0.007 C 
ENDBRANCH  16  17
BRANCH  16  19
HETATM   19  C   UNL     1      28.796  44.481  54.840  1.00  0.00    -0.050 A 
HETATM   20  C   UNL     1      27.435  44.318  54.534  1.00  0.00     0.008 A 
HETATM   21  C   UNL     1      26.562  45.407  54.556  1.00  0.00     0.001 A 
HETATM   22  C   UNL     1      27.035  46.677  54.874  1.00  0.00     0.000 A 
HETATM   23  C   UNL     1      28.381  46.859  55.177  1.00  0.00     0.001 A 
HETATM   24  C   UNL     1      29.255  45.770  55.164  1.00  0.00     0.008 A 
ENDBRANCH  16  19
ENDBRANCH  15  16
ENDBRANCH  12  15
ENDBRANCH   1  11
BRANCH   8  25
HETATM   25  C   UNL     1      23.116  43.132  49.561  1.00  0.00     0.270 C 
HETATM   26  N   UNL     1      22.808  43.954  48.511  1.00  0.00    -0.365 N 
HETATM   27  H   UNL     1      23.192  43.741  47.599  1.00  0.00     0.159 HD
HETATM   28  H   UNL     1      22.176  44.726  48.653  1.00  0.00     0.159 HD
HETATM   29  O   UNL     1      22.651  43.330  50.677  1.00  0.00    -0.266 OA
ENDBRANCH   8  25
TORSDOF 6
ENDMDL
