MODEL 1
REMARK VINA RESULT:      -9.0      0.000      0.000
REMARK  3 active torsions:
REMARK  status: ('A' for Active; 'I' for Inactive)
REMARK    1  A    between atoms: C_2  and  O_3 
REMARK    2  A    between atoms: O_3  and  C_4 
REMARK    3  A    between atoms: C_5  and  N_6 
REMARK       I    between atoms: N_6  and  C_7 
REMARK       I    between atoms: C_7  and  N_8 
ROOT
HETATM    1  N   UNL     1      24.287  46.856  49.699  1.00  0.00    -0.306 N 
HETATM    2  C   UNL     1      24.742  46.893  51.008  1.00  0.00     0.323 C 
HETATM    3  N   UNL     1      25.131  45.656  51.506  1.00  0.00    -0.328 N 
HETATM    4  C   UNL     1      25.345  45.544  52.954  1.00  0.00     0.185 C 
HETATM    5  C   UNL     1      26.647  44.868  53.189  1.00  0.00     0.035 A 
HETATM    6  C   UNL     1      27.417  44.201  52.258  1.00  0.00    -0.020 A 
HETATM    7  C   UNL     1      27.002  44.127  50.828  1.00  0.00     0.061 C 
HETATM    8  C   UNL     1      25.501  44.478  50.690  1.00  0.00     0.132 C 
HETATM    9  N   UNL     1      27.289  44.817  54.393  1.00  0.00    -0.357 N 
HETATM   10  H   UNL     1      26.966  45.241  55.252  1.00  0.00     0.166 HD
HETATM   11  C   UNL     1      28.471  44.119  54.262  1.00  0.00     0.043 A 
HETATM   12  C   UNL     1      28.576  43.719  52.926  1.00  0.00    -0.001 A 
HETATM   13  C   UNL     1      29.450  43.825  55.218  1.00  0.00     0.030 A 
HETATM   14  C   UNL     1      30.570  43.102  54.798  1.00  0.00     0.002 A 
HETATM   15  C   UNL     1      30.702  42.692  53.474  1.00  0.00     0.001 A 
HETATM   16  C   UNL     1      29.714  42.993  52.528  1.00  0.00     0.014 A 
HETATM   17  O   UNL     1      24.703  47.896  51.715  1.00  0.00    -0.247 OA
HETATM   18  H   UNL     1      23.677  46.064  49.562  1.00  0.00     0.171 HD
ENDROOT
BRANCH   1  19
HETATM   19  C   UNL     1      23.869  48.053  49.062  1.00  0.00     0.069 C 
HETATM   20  C   UNL     1      22.529  48.282  48.698  1.00  0.00     0.096 C 
HETATM   21  C   UNL     1      22.215  49.398  47.922  1.00  0.00     0.039 C 
HETATM   22  C   UNL     1      23.198  50.337  47.604  1.00  0.00     0.003 C 
HETATM   23  C   UNL     1      24.504  50.161  48.055  1.00  0.00     0.002 C 
HETATM   24  C   UNL     1      24.840  49.022  48.788  1.00  0.00     0.032 C 
BRANCH  20  25
HETATM   25  O   UNL     1      21.586  47.378  49.093  1.00  0.00    -0.339 OA
BRANCH  25  26
HETATM   26  C   UNL     1      21.045  46.423  48.157  1.00  0.00     0.057 C 
HETATM   27  C   UNL     1      21.223  45.016  48.739  1.00  0.00     0.045 C 
HETATM   28  C   UNL     1      21.573  46.491  46.712  1.00  0.00     0.045 C 
HETATM   29  C   UNL     1      19.538  46.738  48.108  1.00  0.00     0.045 C 
ENDBRANCH  25  26
ENDBRANCH  20  25
ENDBRANCH   1  19
TORSDOF 3
ENDMDL
MODEL 2
REMARK VINA RESULT:      -8.9      4.540      5.819
REMARK  3 active torsions:
REMARK  status: ('A' for Active; 'I' for Inactive)
REMARK    1  A    between atoms: C_2  and  O_3 
REMARK    2  A    between atoms: O_3  and  C_4 
REMARK    3  A    between atoms: C_5  and  N_6 
REMARK       I    between atoms: N_6  and  C_7 
REMARK       I    between atoms: C_7  and  N_8 
ROOT
HETATM    1  N   UNL     1      27.074  40.969  49.365  1.00  0.00    -0.306 N 
HETATM    2  C   UNL     1      26.966  42.214  49.963  1.00  0.00     0.323 C 
HETATM    3  N   UNL     1      27.019  42.181  51.352  1.00  0.00    -0.328 N 
HETATM    4  C   UNL     1      26.624  43.394  52.076  1.00  0.00     0.185 C 
HETATM    5  C   UNL     1      27.662  43.696  53.095  1.00  0.00     0.035 A 
HETATM    6  C   UNL     1      28.683  42.867  53.512  1.00  0.00    -0.020 A 
HETATM    7  C   UNL     1      28.872  41.517  52.909  1.00  0.00     0.061 C 
HETATM    8  C   UNL     1      27.587  41.082  52.164  1.00  0.00     0.132 C 
HETATM    9  N   UNL     1      27.759  44.875  53.778  1.00  0.00    -0.357 N 
HETATM   10  H   UNL     1      27.155  45.676  53.661  1.00  0.00     0.166 HD
HETATM   11  C   UNL     1      28.833  44.825  54.643  1.00  0.00     0.043 A 
HETATM   12  C   UNL     1      29.432  43.570  54.495  1.00  0.00    -0.001 A 
HETATM   13  C   UNL     1      29.318  45.796  55.527  1.00  0.00     0.030 A 
HETATM   14  C   UNL     1      30.448  45.476  56.284  1.00  0.00     0.002 A 
HETATM   15  C   UNL     1      31.067  44.234  56.157  1.00  0.00     0.001 A 
HETATM   16  C   UNL     1      30.571  43.273  55.268  1.00  0.00     0.014 A 
HETATM   17  O   UNL     1      26.729  43.249  49.346  1.00  0.00    -0.247 OA
HETATM   18  H   UNL     1      26.507  40.294  49.856  1.00  0.00     0.171 HD
ENDROOT
BRANCH   1  19
HETATM   19  C   UNL     1      27.046  40.860  47.951  1.00  0.00     0.069 C 
HETATM   20  C   UNL     1      25.879  40.514  47.246  1.00  0.00     0.096 C 
HETATM   21  C   UNL     1      25.960  40.254  45.878  1.00  0.00     0.039 C 
HETATM   22  C   UNL     1      27.162  40.443  45.193  1.00  0.00     0.003 C 
HETATM   23  C   UNL     1      28.292  40.888  45.875  1.00  0.00     0.002 C 
HETATM   24  C   UNL     1      28.235  41.101  47.253  1.00  0.00     0.032 C 
BRANCH  20  25
HETATM   25  O   UNL     1      24.708  40.412  47.940  1.00  0.00    -0.339 OA
BRANCH  25  26
HETATM   26  C   UNL     1      23.630  41.342  47.705  1.00  0.00     0.057 C 
HETATM   27  C   UNL     1      22.399  40.553  47.243  1.00  0.00     0.045 C 
HETATM   28  C   UNL     1      23.921  42.515  46.751  1.00  0.00     0.045 C 
HETATM   29  C   UNL     1      23.327  41.943  49.090  1.00  0.00     0.045 C 
ENDBRANCH  25  26
ENDBRANCH  20  25
ENDBRANCH   1  19
TORSDOF 3
ENDMDL
MODEL 3
REMARK VINA RESULT:      -8.7      4.228      7.195
REMARK  3 active torsions:
REMARK  status: ('A' for Active; 'I' for Inactive)
REMARK    1  A    between atoms: C_2  and  O_3 
REMARK    2  A    between atoms: O_3  and  C_4 
REMARK    3  A    between atoms: C_5  and  N_6 
REMARK       I    between atoms: N_6  and  C_7 
REMARK       I    between atoms: C_7  and  N_8 
ROOT
HETATM    1  N   UNL     1      18.829  50.694  48.307  1.00  0.00    -0.306 N 
HETATM    2  C   UNL     1      19.563  49.816  49.089  1.00  0.00     0.323 C 
HETATM    3  N   UNL     1      20.659  49.262  48.439  1.00  0.00    -0.328 N 
HETATM    4  C   UNL     1      21.316  48.115  49.074  1.00  0.00     0.185 C 
HETATM    5  C   UNL     1      22.782  48.359  49.091  1.00  0.00     0.035 A 
HETATM    6  C   UNL     1      23.470  49.337  48.401  1.00  0.00    -0.020 A 
HETATM    7  C   UNL     1      22.751  50.327  47.549  1.00  0.00     0.061 C 
HETATM    8  C   UNL     1      21.320  49.823  47.240  1.00  0.00     0.132 C 
HETATM    9  N   UNL     1      23.682  47.635  49.820  1.00  0.00    -0.357 N 
HETATM   10  H   UNL     1      23.458  46.867  50.438  1.00  0.00     0.166 HD
HETATM   11  C   UNL     1      24.954  48.125  49.611  1.00  0.00     0.043 A 
HETATM   12  C   UNL     1      24.848  49.198  48.721  1.00  0.00    -0.001 A 
HETATM   13  C   UNL     1      26.176  47.707  50.150  1.00  0.00     0.030 A 
HETATM   14  C   UNL     1      27.325  48.405  49.769  1.00  0.00     0.002 A 
HETATM   15  C   UNL     1      27.251  49.479  48.885  1.00  0.00     0.001 A 
HETATM   16  C   UNL     1      26.021  49.886  48.353  1.00  0.00     0.014 A 
HETATM   17  O   UNL     1      19.225  49.459  50.214  1.00  0.00    -0.247 OA
HETATM   18  H   UNL     1      18.703  50.318  47.380  1.00  0.00     0.171 HD
ENDROOT
BRANCH   1  19
HETATM   19  C   UNL     1      17.689  51.340  48.852  1.00  0.00     0.069 C 
HETATM   20  C   UNL     1      16.385  50.840  48.676  1.00  0.00     0.096 C 
HETATM   21  C   UNL     1      15.298  51.612  49.085  1.00  0.00     0.039 C 
HETATM   22  C   UNL     1      15.501  52.816  49.762  1.00  0.00     0.003 C 
HETATM   23  C   UNL     1      16.794  53.258  50.028  1.00  0.00     0.002 C 
HETATM   24  C   UNL     1      17.889  52.520  49.577  1.00  0.00     0.032 C 
BRANCH  20  25
HETATM   25  O   UNL     1      16.233  49.623  48.077  1.00  0.00    -0.339 OA
BRANCH  25  26
HETATM   26  C   UNL     1      15.978  49.528  46.660  1.00  0.00     0.057 C 
HETATM   27  C   UNL     1      17.023  48.594  46.039  1.00  0.00     0.045 C 
HETATM   28  C   UNL     1      15.890  50.852  45.879  1.00  0.00     0.045 C 
HETATM   29  C   UNL     1      14.600  48.846  46.559  1.00  0.00     0.045 C 
ENDBRANCH  25  26
ENDBRANCH  20  25
ENDBRANCH   1  19
TORSDOF 3
ENDMDL
MODEL 4
REMARK VINA RESULT:      -8.3      5.216      8.434
REMARK  3 active torsions:
REMARK  status: ('A' for Active; 'I' for Inactive)
REMARK    1  A    between atoms: C_2  and  O_3 
REMARK    2  A    between atoms: O_3  and  C_4 
REMARK    3  A    between atoms: C_5  and  N_6 
REMARK       I    between atoms: N_6  and  C_7 
REMARK       I    between atoms: C_7  and  N_8 
ROOT
HETATM    1  N   UNL     1      28.414  42.668  51.743  1.00  0.00    -0.306 N 
HETATM    2  C   UNL     1      27.699  41.481  51.728  1.00  0.00     0.323 C 
HETATM    3  N   UNL     1      27.256  41.105  50.466  1.00  0.00    -0.328 N 
HETATM    4  C   UNL     1      26.254  40.036  50.390  1.00  0.00     0.185 C 
HETATM    5  C   UNL     1      26.695  39.045  49.373  1.00  0.00     0.035 A 
HETATM    6  C   UNL     1      27.708  39.198  48.449  1.00  0.00    -0.020 A 
HETATM    7  C   UNL     1      28.531  40.441  48.409  1.00  0.00     0.061 C 
HETATM    8  C   UNL     1      27.819  41.576  49.182  1.00  0.00     0.132 C 
HETATM    9  N   UNL     1      26.150  37.803  49.212  1.00  0.00    -0.357 N 
HETATM   10  H   UNL     1      25.403  37.410  49.767  1.00  0.00     0.166 HD
HETATM   11  C   UNL     1      26.793  37.142  48.187  1.00  0.00     0.043 A 
HETATM   12  C   UNL     1      27.780  37.999  47.689  1.00  0.00    -0.001 A 
HETATM   13  C   UNL     1      26.582  35.855  47.677  1.00  0.00     0.030 A 
HETATM   14  C   UNL     1      27.402  35.431  46.629  1.00  0.00     0.002 A 
HETATM   15  C   UNL     1      28.393  36.262  46.113  1.00  0.00     0.001 A 
HETATM   16  C   UNL     1      28.593  37.547  46.632  1.00  0.00     0.014 A 
HETATM   17  O   UNL     1      27.376  40.867  52.741  1.00  0.00    -0.247 OA
HETATM   18  H   UNL     1      27.963  43.358  51.162  1.00  0.00     0.171 HD
ENDROOT
BRANCH   1  19
HETATM   19  C   UNL     1      28.935  43.163  52.967  1.00  0.00     0.069 C 
HETATM   20  C   UNL     1      28.427  44.319  53.588  1.00  0.00     0.096 C 
HETATM   21  C   UNL     1      29.093  44.850  54.692  1.00  0.00     0.039 C 
HETATM   22  C   UNL     1      30.188  44.181  55.244  1.00  0.00     0.003 C 
HETATM   23  C   UNL     1      30.625  42.981  54.691  1.00  0.00     0.002 C 
HETATM   24  C   UNL     1      29.998  42.468  53.555  1.00  0.00     0.032 C 
BRANCH  20  25
HETATM   25  O   UNL     1      27.309  44.900  53.061  1.00  0.00    -0.339 OA
BRANCH  25  26
HETATM   26  C   UNL     1      26.053  44.854  53.768  1.00  0.00     0.057 C 
HETATM   27  C   UNL     1      25.780  46.238  54.367  1.00  0.00     0.045 C 
HETATM   28  C   UNL     1      25.896  43.753  54.834  1.00  0.00     0.045 C 
HETATM   29  C   UNL     1      25.002  44.585  52.675  1.00  0.00     0.045 C 
ENDBRANCH  25  26
ENDBRANCH  20  25
ENDBRANCH   1  19
TORSDOF 3
ENDMDL
MODEL 5
REMARK VINA RESULT:      -8.3      3.622      9.889
REMARK  3 active torsions:
REMARK  status: ('A' for Active; 'I' for Inactive)
REMARK    1  A    between atoms: C_2  and  O_3 
REMARK    2  A    between atoms: O_3  and  C_4 
REMARK    3  A    between atoms: C_5  and  N_6 
REMARK       I    between atoms: N_6  and  C_7 
REMARK       I    between atoms: C_7  and  N_8 
ROOT
HETATM    1  N   UNL     1      22.968  49.008  49.458  1.00  0.00    -0.306 N 
HETATM    2  C   UNL     1      22.080  48.565  48.491  1.00  0.00     0.323 C 
HETATM    3  N   UNL     1      20.743  48.712  48.841  1.00  0.00    -0.328 N 
HETATM    4  C   UNL     1      19.746  48.013  48.023  1.00  0.00     0.185 C 
HETATM    5  C   UNL     1      18.667  48.972  47.670  1.00  0.00     0.035 A 
HETATM    6  C   UNL     1      18.454  50.221  48.216  1.00  0.00    -0.020 A 
HETATM    7  C   UNL     1      19.372  50.773  49.253  1.00  0.00     0.061 C 
HETATM    8  C   UNL     1      20.222  49.637  49.871  1.00  0.00     0.132 C 
HETATM    9  N   UNL     1      17.710  48.749  46.721  1.00  0.00    -0.357 N 
HETATM   10  H   UNL     1      17.634  47.924  46.143  1.00  0.00     0.166 HD
HETATM   11  C   UNL     1      16.869  49.839  46.642  1.00  0.00     0.043 A 
HETATM   12  C   UNL     1      17.315  50.781  47.575  1.00  0.00    -0.001 A 
HETATM   13  C   UNL     1      15.762  50.060  45.814  1.00  0.00     0.030 A 
HETATM   14  C   UNL     1      15.092  51.280  45.941  1.00  0.00     0.002 A 
HETATM   15  C   UNL     1      15.514  52.237  46.860  1.00  0.00     0.001 A 
HETATM   16  C   UNL     1      16.622  52.002  47.682  1.00  0.00     0.014 A 
HETATM   17  O   UNL     1      22.423  47.986  47.463  1.00  0.00    -0.247 OA
HETATM   18  H   UNL     1      22.670  48.705  50.373  1.00  0.00     0.171 HD
ENDROOT
BRANCH   1  19
HETATM   19  C   UNL     1      24.365  48.926  49.224  1.00  0.00     0.069 C 
HETATM   20  C   UNL     1      25.180  47.976  49.866  1.00  0.00     0.096 C 
HETATM   21  C   UNL     1      26.566  48.061  49.727  1.00  0.00     0.039 C 
HETATM   22  C   UNL     1      27.133  49.008  48.872  1.00  0.00     0.003 C 
HETATM   23  C   UNL     1      26.318  49.881  48.157  1.00  0.00     0.002 C 
HETATM   24  C   UNL     1      24.933  49.839  48.328  1.00  0.00     0.032 C 
BRANCH  20  25
HETATM   25  O   UNL     1      24.581  47.019  50.633  1.00  0.00    -0.339 OA
BRANCH  25  26
HETATM   26  C   UNL     1      24.727  45.620  50.311  1.00  0.00     0.057 C 
HETATM   27  C   UNL     1      24.601  44.807  51.605  1.00  0.00     0.045 C 
HETATM   28  C   UNL     1      25.991  45.216  49.529  1.00  0.00     0.045 C 
HETATM   29  C   UNL     1      23.515  45.298  49.418  1.00  0.00     0.045 C 
ENDBRANCH  25  26
ENDBRANCH  20  25
ENDBRANCH   1  19
TORSDOF 3
ENDMDL
MODEL 6
REMARK VINA RESULT:      -8.2      5.498      7.369
REMARK  3 active torsions:
REMARK  status: ('A' for Active; 'I' for Inactive)
REMARK    1  A    between atoms: C_2  and  O_3 
REMARK    2  A    between atoms: O_3  and  C_4 
REMARK    3  A    between atoms: C_5  and  N_6 
REMARK       I    between atoms: N_6  and  C_7 
REMARK       I    between atoms: C_7  and  N_8 
ROOT
HETATM    1  N   UNL     1      27.567  40.413  49.036  1.00  0.00    -0.306 N 
HETATM    2  C   UNL     1      27.260  41.637  49.610  1.00  0.00     0.323 C 
HETATM    3  N   UNL     1      27.274  41.629  51.000  1.00  0.00    -0.328 N 
HETATM    4  C   UNL     1      26.683  42.780  51.691  1.00  0.00     0.185 C 
HETATM    5  C   UNL     1      27.633  43.243  52.736  1.00  0.00     0.035 A 
HETATM    6  C   UNL     1      28.751  42.578  53.196  1.00  0.00    -0.020 A 
HETATM    7  C   UNL     1      29.154  41.262  52.622  1.00  0.00     0.061 C 
HETATM    8  C   UNL     1      27.970  40.635  51.847  1.00  0.00     0.132 C 
HETATM    9  N   UNL     1      27.536  44.432  53.401  1.00  0.00    -0.357 N 
HETATM   10  H   UNL     1      26.826  45.135  53.252  1.00  0.00     0.166 HD
HETATM   11  C   UNL     1      28.578  44.551  54.297  1.00  0.00     0.043 A 
HETATM   12  C   UNL     1      29.358  43.395  54.188  1.00  0.00    -0.001 A 
HETATM   13  C   UNL     1      28.888  45.592  55.180  1.00  0.00     0.030 A 
HETATM   14  C   UNL     1      30.028  45.450  55.974  1.00  0.00     0.002 A 
HETATM   15  C   UNL     1      30.825  44.311  55.887  1.00  0.00     0.001 A 
HETATM   16  C   UNL     1      30.502  43.277  55.000  1.00  0.00     0.014 A 
HETATM   17  O   UNL     1      26.895  42.618  48.969  1.00  0.00    -0.247 OA
HETATM   18  H   UNL     1      27.090  39.669  49.521  1.00  0.00     0.171 HD
ENDROOT
BRANCH   1  19
HETATM   19  C   UNL     1      27.600  40.284  47.623  1.00  0.00     0.069 C 
HETATM   20  C   UNL     1      26.914  39.260  46.946  1.00  0.00     0.096 C 
HETATM   21  C   UNL     1      27.128  39.085  45.578  1.00  0.00     0.039 C 
HETATM   22  C   UNL     1      27.927  39.982  44.868  1.00  0.00     0.003 C 
HETATM   23  C   UNL     1      28.522  41.058  45.522  1.00  0.00     0.002 C 
HETATM   24  C   UNL     1      28.357  41.213  46.899  1.00  0.00     0.032 C 
BRANCH  20  25
HETATM   25  O   UNL     1      26.083  38.450  47.664  1.00  0.00    -0.339 OA
BRANCH  25  26
HETATM   26  C   UNL     1      26.479  37.105  48.002  1.00  0.00     0.057 C 
HETATM   27  C   UNL     1      26.697  37.028  49.518  1.00  0.00     0.045 C 
HETATM   28  C   UNL     1      27.687  36.524  47.243  1.00  0.00     0.045 C 
HETATM   29  C   UNL     1      25.257  36.238  47.646  1.00  0.00     0.045 C 
ENDBRANCH  25  26
ENDBRANCH  20  25
ENDBRANCH   1  19
TORSDOF 3
ENDMDL
MODEL 7
REMARK VINA RESULT:      -8.1      1.958      3.816
REMARK  3 active torsions:
REMARK  status: ('A' for Active; 'I' for Inactive)
REMARK    1  A    between atoms: C_2  and  O_3 
REMARK    2  A    between atoms: O_3  and  C_4 
REMARK    3  A    between atoms: C_5  and  N_6 
REMARK       I    between atoms: N_6  and  C_7 
REMARK       I    between atoms: C_7  and  N_8 
ROOT
HETATM    1  N   UNL     1      22.413  47.189  48.873  1.00  0.00    -0.306 N 
HETATM    2  C   UNL     1      23.096  45.996  49.050  1.00  0.00     0.323 C 
HETATM    3  N   UNL     1      24.409  46.154  49.476  1.00  0.00    -0.328 N 
HETATM    4  C   UNL     1      25.290  44.983  49.408  1.00  0.00     0.185 C 
HETATM    5  C   UNL     1      25.997  44.846  50.708  1.00  0.00     0.035 A 
HETATM    6  C   UNL     1      26.059  45.780  51.722  1.00  0.00    -0.020 A 
HETATM    7  C   UNL     1      25.342  47.083  51.612  1.00  0.00     0.061 C 
HETATM    8  C   UNL     1      24.959  47.357  50.138  1.00  0.00     0.132 C 
HETATM    9  N   UNL     1      26.699  43.742  51.098  1.00  0.00    -0.357 N 
HETATM   10  H   UNL     1      26.806  42.891  50.562  1.00  0.00     0.166 HD
HETATM   11  C   UNL     1      27.225  43.944  52.357  1.00  0.00     0.043 A 
HETATM   12  C   UNL     1      26.836  45.221  52.773  1.00  0.00    -0.001 A 
HETATM   13  C   UNL     1      27.999  43.092  53.153  1.00  0.00     0.030 A 
HETATM   14  C   UNL     1      28.388  43.557  54.412  1.00  0.00     0.002 A 
HETATM   15  C   UNL     1      28.015  44.825  54.854  1.00  0.00     0.001 A 
HETATM   16  C   UNL     1      27.241  45.666  54.046  1.00  0.00     0.014 A 
HETATM   17  O   UNL     1      22.636  44.897  48.752  1.00  0.00    -0.247 OA
HETATM   18  H   UNL     1      22.999  47.861  48.401  1.00  0.00     0.171 HD
ENDROOT
BRANCH   1  19
HETATM   19  C   UNL     1      21.059  47.172  48.451  1.00  0.00     0.069 C 
HETATM   20  C   UNL     1      20.103  48.073  48.955  1.00  0.00     0.096 C 
HETATM   21  C   UNL     1      18.758  47.891  48.633  1.00  0.00     0.039 C 
HETATM   22  C   UNL     1      18.376  46.896  47.731  1.00  0.00     0.003 C 
HETATM   23  C   UNL     1      19.337  46.072  47.152  1.00  0.00     0.002 C 
HETATM   24  C   UNL     1      20.680  46.211  47.508  1.00  0.00     0.032 C 
BRANCH  20  25
HETATM   25  O   UNL     1      20.527  49.078  49.775  1.00  0.00    -0.339 OA
BRANCH  25  26
HETATM   26  C   UNL     1      20.767  50.401  49.252  1.00  0.00     0.057 C 
HETATM   27  C   UNL     1      19.715  51.353  49.834  1.00  0.00     0.045 C 
HETATM   28  C   UNL     1      20.845  50.540  47.720  1.00  0.00     0.045 C 
HETATM   29  C   UNL     1      22.143  50.799  49.817  1.00  0.00     0.045 C 
ENDBRANCH  25  26
ENDBRANCH  20  25
ENDBRANCH   1  19
TORSDOF 3
ENDMDL
MODEL 8
REMARK VINA RESULT:      -8.1      9.781     12.268
REMARK  3 active torsions:
REMARK  status: ('A' for Active; 'I' for Inactive)
REMARK    1  A    between atoms: C_2  and  O_3 
REMARK    2  A    between atoms: O_3  and  C_4 
REMARK    3  A    between atoms: C_5  and  N_6 
REMARK       I    between atoms: N_6  and  C_7 
REMARK       I    between atoms: C_7  and  N_8 
ROOT
HETATM    1  N   UNL     1      28.934  50.318  39.557  1.00  0.00    -0.306 N 
HETATM    2  C   UNL     1      28.155  49.707  40.527  1.00  0.00     0.323 C 
HETATM    3  N   UNL     1      27.490  48.570  40.084  1.00  0.00    -0.328 N 
HETATM    4  C   UNL     1      26.427  48.029  40.938  1.00  0.00     0.185 C 
HETATM    5  C   UNL     1      26.635  46.565  41.085  1.00  0.00     0.035 A 
HETATM    6  C   UNL     1      27.491  45.770  40.350  1.00  0.00    -0.020 A 
HETATM    7  C   UNL     1      28.370  46.355  39.297  1.00  0.00     0.061 C 
HETATM    8  C   UNL     1      27.862  47.763  38.901  1.00  0.00     0.132 C 
HETATM    9  N   UNL     1      25.998  45.778  42.000  1.00  0.00    -0.357 N 
HETATM   10  H   UNL     1      25.329  46.096  42.688  1.00  0.00     0.166 HD
HETATM   11  C   UNL     1      26.424  44.473  41.870  1.00  0.00     0.043 A 
HETATM   12  C   UNL     1      27.365  44.441  40.836  1.00  0.00    -0.001 A 
HETATM   13  C   UNL     1      26.055  43.332  42.593  1.00  0.00     0.030 A 
HETATM   14  C   UNL     1      26.666  42.123  42.251  1.00  0.00     0.002 A 
HETATM   15  C   UNL     1      27.608  42.060  41.226  1.00  0.00     0.001 A 
HETATM   16  C   UNL     1      27.966  43.209  40.512  1.00  0.00     0.014 A 
HETATM   17  O   UNL     1      27.966  50.176  41.646  1.00  0.00    -0.247 OA
HETATM   18  H   UNL     1      28.435  50.359  38.681  1.00  0.00     0.171 HD
ENDROOT
BRANCH   1  19
HETATM   19  C   UNL     1      29.676  51.484  39.879  1.00  0.00     0.069 C 
HETATM   20  C   UNL     1      31.044  51.438  40.204  1.00  0.00     0.096 C 
HETATM   21  C   UNL     1      31.672  52.589  40.680  1.00  0.00     0.039 C 
HETATM   22  C   UNL     1      30.981  53.801  40.727  1.00  0.00     0.003 C 
HETATM   23  C   UNL     1      29.655  53.867  40.306  1.00  0.00     0.002 C 
HETATM   24  C   UNL     1      29.003  52.710  39.878  1.00  0.00     0.032 C 
BRANCH  20  25
HETATM   25  O   UNL     1      31.703  50.249  40.072  1.00  0.00    -0.339 OA
BRANCH  25  26
HETATM   26  C   UNL     1      31.943  49.410  41.221  1.00  0.00     0.057 C 
HETATM   27  C   UNL     1      31.499  47.982  40.882  1.00  0.00     0.045 C 
HETATM   28  C   UNL     1      31.335  49.871  42.558  1.00  0.00     0.045 C 
HETATM   29  C   UNL     1      33.474  49.412  41.390  1.00  0.00     0.045 C 
ENDBRANCH  25  26
ENDBRANCH  20  25
ENDBRANCH   1  19
TORSDOF 3
ENDMDL
MODEL 9
REMARK VINA RESULT:      -8.0      2.921      8.888
REMARK  3 active torsions:
REMARK  status: ('A' for Active; 'I' for Inactive)
REMARK    1  A    between atoms: C_2  and  O_3 
REMARK    2  A    between atoms: O_3  and  C_4 
REMARK    3  A    between atoms: C_5  and  N_6 
REMARK       I    between atoms: N_6  and  C_7 
REMARK       I    between atoms: C_7  and  N_8 
ROOT
HETATM    1  N   UNL     1      23.935  46.361  49.940  1.00  0.00    -0.306 N 
HETATM    2  C   UNL     1      23.827  47.705  49.622  1.00  0.00     0.323 C 
HETATM    3  N   UNL     1      22.731  48.011  48.824  1.00  0.00    -0.328 N 
HETATM    4  C   UNL     1      22.695  49.338  48.199  1.00  0.00     0.185 C 
HETATM    5  C   UNL     1      21.356  49.937  48.438  1.00  0.00     0.035 A 
HETATM    6  C   UNL     1      20.230  49.294  48.910  1.00  0.00    -0.020 A 
HETATM    7  C   UNL     1      20.268  47.851  49.285  1.00  0.00     0.061 C 
HETATM    8  C   UNL     1      21.519  47.176  48.672  1.00  0.00     0.132 C 
HETATM    9  N   UNL     1      21.043  51.249  48.224  1.00  0.00    -0.357 N 
HETATM   10  H   UNL     1      21.681  51.962  47.899  1.00  0.00     0.166 HD
HETATM   11  C   UNL     1      19.721  51.472  48.548  1.00  0.00     0.043 A 
HETATM   12  C   UNL     1      19.186  50.256  48.983  1.00  0.00    -0.001 A 
HETATM   13  C   UNL     1      18.973  52.654  48.498  1.00  0.00     0.030 A 
HETATM   14  C   UNL     1      17.637  52.592  48.905  1.00  0.00     0.002 A 
HETATM   15  C   UNL     1      17.076  51.395  49.344  1.00  0.00     0.001 A 
HETATM   16  C   UNL     1      17.837  50.221  49.388  1.00  0.00     0.014 A 
HETATM   17  O   UNL     1      24.674  48.545  49.912  1.00  0.00    -0.247 OA
HETATM   18  H   UNL     1      23.754  45.792  49.127  1.00  0.00     0.171 HD
ENDROOT
BRANCH   1  19
HETATM   19  C   UNL     1      25.003  45.913  50.760  1.00  0.00     0.069 C 
HETATM   20  C   UNL     1      25.794  44.800  50.421  1.00  0.00     0.096 C 
HETATM   21  C   UNL     1      26.711  44.307  51.350  1.00  0.00     0.039 C 
HETATM   22  C   UNL     1      26.923  44.976  52.557  1.00  0.00     0.003 C 
HETATM   23  C   UNL     1      26.212  46.139  52.845  1.00  0.00     0.002 C 
HETATM   24  C   UNL     1      25.255  46.611  51.946  1.00  0.00     0.032 C 
BRANCH  20  25
HETATM   25  O   UNL     1      25.609  44.219  49.200  1.00  0.00    -0.339 OA
BRANCH  25  26
HETATM   26  C   UNL     1      24.740  43.078  49.052  1.00  0.00     0.057 C 
HETATM   27  C   UNL     1      23.777  43.346  47.890  1.00  0.00     0.045 C 
HETATM   28  C   UNL     1      23.974  42.621  50.307  1.00  0.00     0.045 C 
HETATM   29  C   UNL     1      25.678  41.925  48.645  1.00  0.00     0.045 C 
ENDBRANCH  25  26
ENDBRANCH  20  25
ENDBRANCH   1  19
TORSDOF 3
ENDMDL
MODEL 10
REMARK VINA RESULT:      -7.9     18.403     20.118
REMARK  3 active torsions:
REMARK  status: ('A' for Active; 'I' for Inactive)
REMARK    1  A    between atoms: C_2  and  O_3 
REMARK    2  A    between atoms: O_3  and  C_4 
REMARK    3  A    between atoms: C_5  and  N_6 
REMARK       I    between atoms: N_6  and  C_7 
REMARK       I    between atoms: C_7  and  N_8 
ROOT
HETATM    1  N   UNL     1      37.534  47.090  65.150  1.00  0.00    -0.306 N 
HETATM    2  C   UNL     1      37.967  45.955  65.818  1.00  0.00     0.323 C 
HETATM    3  N   UNL     1      37.451  44.770  65.309  1.00  0.00    -0.328 N 
HETATM    4  C   UNL     1      37.612  43.556  66.118  1.00  0.00     0.185 C 
HETATM    5  C   UNL     1      38.133  42.472  65.246  1.00  0.00     0.035 A 
HETATM    6  C   UNL     1      38.204  42.475  63.868  1.00  0.00    -0.020 A 
HETATM    7  C   UNL     1      37.769  43.663  63.079  1.00  0.00     0.061 C 
HETATM    8  C   UNL     1      36.889  44.589  63.952  1.00  0.00     0.132 C 
HETATM    9  N   UNL     1      38.639  41.287  65.699  1.00  0.00    -0.357 N 
HETATM   10  H   UNL     1      38.732  41.017  66.669  1.00  0.00     0.166 HD
HETATM   11  C   UNL     1      39.037  40.511  64.630  1.00  0.00     0.043 A 
HETATM   12  C   UNL     1      38.773  41.237  63.464  1.00  0.00    -0.001 A 
HETATM   13  C   UNL     1      39.615  39.236  64.614  1.00  0.00     0.030 A 
HETATM   14  C   UNL     1      39.934  38.686  63.369  1.00  0.00     0.002 A 
HETATM   15  C   UNL     1      39.685  39.386  62.191  1.00  0.00     0.001 A 
HETATM   16  C   UNL     1      39.105  40.660  62.223  1.00  0.00     0.014 A 
HETATM   17  O   UNL     1      38.650  45.982  66.838  1.00  0.00    -0.247 OA
HETATM   18  H   UNL     1      36.544  47.033  64.965  1.00  0.00     0.171 HD
ENDROOT
BRANCH   1  19
HETATM   19  C   UNL     1      37.994  48.369  65.560  1.00  0.00     0.069 C 
HETATM   20  C   UNL     1      37.278  49.169  66.469  1.00  0.00     0.096 C 
HETATM   21  C   UNL     1      37.693  50.482  66.695  1.00  0.00     0.039 C 
HETATM   22  C   UNL     1      38.869  50.961  66.114  1.00  0.00     0.003 C 
HETATM   23  C   UNL     1      39.632  50.132  65.297  1.00  0.00     0.002 C 
HETATM   24  C   UNL     1      39.199  48.834  65.022  1.00  0.00     0.032 C 
BRANCH  20  25
HETATM   25  O   UNL     1      36.176  48.637  67.074  1.00  0.00    -0.339 OA
BRANCH  25  26
HETATM   26  C   UNL     1      36.193  48.317  68.481  1.00  0.00     0.057 C 
HETATM   27  C   UNL     1      35.282  49.306  69.217  1.00  0.00     0.045 C 
HETATM   28  C   UNL     1      37.573  48.232  69.158  1.00  0.00     0.045 C 
HETATM   29  C   UNL     1      35.555  46.917  68.568  1.00  0.00     0.045 C 
ENDBRANCH  25  26
ENDBRANCH  20  25
ENDBRANCH   1  19
TORSDOF 3
ENDMDL
