MODEL 1
REMARK VINA RESULT:      -8.7      0.000      0.000
REMARK  6 active torsions:
REMARK  status: ('A' for Active; 'I' for Inactive)
REMARK    1  A    between atoms: O_2  and  C_3 
REMARK    2  A    between atoms: C_4  and  N_5 
REMARK       I    between atoms: N_5  and  C_6 
REMARK       I    between atoms: C_6  and  N_7 
REMARK    3  A    between atoms: N_7  and  C_8 
REMARK    4  A    between atoms: C_8  and  C_9 
REMARK    5  A    between atoms: C_9  and  C_10 
REMARK    6  A    between atoms: C_10  and  N_11 
ROOT
HETATM    1  N   UNL     1      24.234  46.943  50.181  1.00  0.00    -0.306 N 
HETATM    2  C   UNL     1      24.786  46.697  51.414  1.00  0.00     0.320 C 
HETATM    3  N   UNL     1      24.693  45.352  51.719  1.00  0.00    -0.343 N 
HETATM    4  O   UNL     1      25.244  47.525  52.186  1.00  0.00    -0.247 OA
HETATM    5  H   UNL     1      23.639  46.216  49.804  1.00  0.00     0.171 HD
HETATM    6  H   UNL     1      24.834  44.739  50.927  1.00  0.00     0.164 HD
ENDROOT
BRANCH   3   7
HETATM    7  C   UNL     1      25.125  44.850  53.009  1.00  0.00     0.126 C 
BRANCH   7   8
HETATM    8  C   UNL     1      26.234  43.804  52.901  1.00  0.00     0.040 C 
BRANCH   8   9
HETATM    9  C   UNL     1      27.558  44.421  52.458  1.00  0.00     0.131 C 
BRANCH   9  10
HETATM   10  N   UNL     1      28.691  43.861  53.172  1.00  0.00    -0.341 N 
HETATM   11  C   UNL     1      29.191  44.345  54.354  1.00  0.00     0.139 A 
HETATM   12  C   UNL     1      30.285  43.555  54.702  1.00  0.00     0.011 A 
HETATM   13  N   UNL     1      28.697  45.396  55.041  1.00  0.00    -0.242 NA
HETATM   14  C   UNL     1      30.959  43.869  55.892  1.00  0.00     0.017 A 
HETATM   15  C   UNL     1      30.430  42.573  53.686  1.00  0.00     0.032 A 
HETATM   16  C   UNL     1      30.487  44.948  56.638  1.00  0.00     0.020 A 
HETATM   17  C   UNL     1      29.383  45.654  56.177  1.00  0.00     0.119 A 
HETATM   18  C   UNL     1      29.434  42.785  52.754  1.00  0.00     0.093 A 
ENDBRANCH   9  10
ENDBRANCH   8   9
ENDBRANCH   7   8
ENDBRANCH   3   7
BRANCH   1  19
HETATM   19  C   UNL     1      24.151  48.179  49.508  1.00  0.00     0.071 A 
HETATM   20  C   UNL     1      25.338  48.679  48.946  1.00  0.00     0.095 A 
HETATM   21  C   UNL     1      25.367  49.917  48.304  1.00  0.00     0.041 A 
HETATM   22  C   UNL     1      24.188  50.652  48.187  1.00  0.00     0.026 A 
HETATM   23  C   UNL     1      23.002  50.149  48.723  1.00  0.00     0.036 A 
HETATM   24  C   UNL     1      22.976  48.919  49.384  1.00  0.00     0.056 A 
HETATM   25 CL   UNL     1      21.554  51.071  48.577  1.00  0.00    -0.084 Cl
BRANCH  20  26
HETATM   26  O   UNL     1      26.491  47.939  49.068  1.00  0.00    -0.354 OA
HETATM   27  C   UNL     1      27.630  48.803  49.082  1.00  0.00     0.210 C 
ENDBRANCH  20  26
ENDBRANCH   1  19
TORSDOF 6
ENDMDL
MODEL 2
REMARK VINA RESULT:      -8.4      1.787      2.515
REMARK  6 active torsions:
REMARK  status: ('A' for Active; 'I' for Inactive)
REMARK    1  A    between atoms: O_2  and  C_3 
REMARK    2  A    between atoms: C_4  and  N_5 
REMARK       I    between atoms: N_5  and  C_6 
REMARK       I    between atoms: C_6  and  N_7 
REMARK    3  A    between atoms: N_7  and  C_8 
REMARK    4  A    between atoms: C_8  and  C_9 
REMARK    5  A    between atoms: C_9  and  C_10 
REMARK    6  A    between atoms: C_10  and  N_11 
ROOT
HETATM    1  N   UNL     1      23.880  47.152  50.195  1.00  0.00    -0.306 N 
HETATM    2  C   UNL     1      23.839  45.830  49.823  1.00  0.00     0.320 C 
HETATM    3  N   UNL     1      24.062  45.019  50.919  1.00  0.00    -0.343 N 
HETATM    4  O   UNL     1      23.691  45.396  48.691  1.00  0.00    -0.247 OA
HETATM    5  H   UNL     1      24.301  47.351  51.093  1.00  0.00     0.171 HD
HETATM    6  H   UNL     1      23.643  45.358  51.775  1.00  0.00     0.164 HD
ENDROOT
BRANCH   3   7
HETATM    7  C   UNL     1      24.157  43.579  50.772  1.00  0.00     0.126 C 
BRANCH   7   8
HETATM    8  C   UNL     1      25.438  43.002  51.373  1.00  0.00     0.040 C 
BRANCH   8   9
HETATM    9  C   UNL     1      26.631  43.933  51.171  1.00  0.00     0.131 C 
BRANCH   9  10
HETATM   10  N   UNL     1      27.223  44.345  52.431  1.00  0.00    -0.341 N 
HETATM   11  C   UNL     1      26.881  45.477  53.125  1.00  0.00     0.139 A 
HETATM   12  C   UNL     1      27.685  45.531  54.263  1.00  0.00     0.011 A 
HETATM   13  N   UNL     1      25.932  46.364  52.759  1.00  0.00    -0.242 NA
HETATM   14  C   UNL     1      27.504  46.617  55.133  1.00  0.00     0.017 A 
HETATM   15  C   UNL     1      28.529  44.390  54.231  1.00  0.00     0.032 A 
HETATM   16  C   UNL     1      26.535  47.562  54.798  1.00  0.00     0.020 A 
HETATM   17  C   UNL     1      25.800  47.387  53.633  1.00  0.00     0.119 A 
HETATM   18  C   UNL     1      28.225  43.675  53.090  1.00  0.00     0.093 A 
ENDBRANCH   9  10
ENDBRANCH   8   9
ENDBRANCH   7   8
ENDBRANCH   3   7
BRANCH   1  19
HETATM   19  C   UNL     1      23.682  48.281  49.375  1.00  0.00     0.071 A 
HETATM   20  C   UNL     1      24.829  48.981  48.965  1.00  0.00     0.095 A 
HETATM   21  C   UNL     1      24.732  50.139  48.193  1.00  0.00     0.041 A 
HETATM   22  C   UNL     1      23.474  50.588  47.793  1.00  0.00     0.026 A 
HETATM   23  C   UNL     1      22.332  49.884  48.178  1.00  0.00     0.036 A 
HETATM   24  C   UNL     1      22.427  48.735  48.967  1.00  0.00     0.056 A 
HETATM   25 CL   UNL     1      20.784  50.453  47.682  1.00  0.00    -0.084 Cl
BRANCH  20  26
HETATM   26  O   UNL     1      26.063  48.523  49.366  1.00  0.00    -0.354 OA
HETATM   27  C   UNL     1      27.096  49.338  48.808  1.00  0.00     0.210 C 
ENDBRANCH  20  26
ENDBRANCH   1  19
TORSDOF 6
ENDMDL
MODEL 3
REMARK VINA RESULT:      -8.3      4.281      7.910
REMARK  6 active torsions:
REMARK  status: ('A' for Active; 'I' for Inactive)
REMARK    1  A    between atoms: O_2  and  C_3 
REMARK    2  A    between atoms: C_4  and  N_5 
REMARK       I    between atoms: N_5  and  C_6 
REMARK       I    between atoms: C_6  and  N_7 
REMARK    3  A    between atoms: N_7  and  C_8 
REMARK    4  A    between atoms: C_8  and  C_9 
REMARK    5  A    between atoms: C_9  and  C_10 
REMARK    6  A    between atoms: C_10  and  N_11 
ROOT
HETATM    1  N   UNL     1      29.370  42.787  52.638  1.00  0.00    -0.306 N 
HETATM    2  C   UNL     1      28.774  41.563  52.455  1.00  0.00     0.320 C 
HETATM    3  N   UNL     1      28.787  41.221  51.115  1.00  0.00    -0.343 N 
HETATM    4  O   UNL     1      28.243  40.875  53.313  1.00  0.00    -0.247 OA
HETATM    5  H   UNL     1      29.490  43.354  51.810  1.00  0.00     0.171 HD
HETATM    6  H   UNL     1      29.631  41.495  50.629  1.00  0.00     0.164 HD
ENDROOT
BRANCH   3   7
HETATM    7  C   UNL     1      28.136  40.012  50.649  1.00  0.00     0.126 C 
BRANCH   7   8
HETATM    8  C   UNL     1      26.881  40.292  49.823  1.00  0.00     0.040 C 
BRANCH   8   9
HETATM    9  C   UNL     1      26.925  41.671  49.171  1.00  0.00     0.131 C 
BRANCH   9  10
HETATM   10  N   UNL     1      25.887  42.551  49.678  1.00  0.00    -0.341 N 
HETATM   11  C   UNL     1      26.019  43.905  49.845  1.00  0.00     0.139 A 
HETATM   12  C   UNL     1      24.819  44.382  50.370  1.00  0.00     0.011 A 
HETATM   13  N   UNL     1      27.119  44.628  49.547  1.00  0.00    -0.242 NA
HETATM   14  C   UNL     1      24.724  45.759  50.623  1.00  0.00     0.017 A 
HETATM   15  C   UNL     1      23.954  43.265  50.516  1.00  0.00     0.032 A 
HETATM   16  C   UNL     1      25.835  46.550  50.331  1.00  0.00     0.020 A 
HETATM   17  C   UNL     1      26.971  45.946  49.809  1.00  0.00     0.119 A 
HETATM   18  C   UNL     1      24.638  42.147  50.082  1.00  0.00     0.093 A 
ENDBRANCH   9  10
ENDBRANCH   8   9
ENDBRANCH   7   8
ENDBRANCH   3   7
BRANCH   1  19
HETATM   19  C   UNL     1      29.570  43.470  53.855  1.00  0.00     0.071 A 
HETATM   20  C   UNL     1      28.684  44.520  54.150  1.00  0.00     0.095 A 
HETATM   21  C   UNL     1      28.831  45.287  55.305  1.00  0.00     0.041 A 
HETATM   22  C   UNL     1      29.855  44.981  56.200  1.00  0.00     0.026 A 
HETATM   23  C   UNL     1      30.725  43.925  55.924  1.00  0.00     0.036 A 
HETATM   24  C   UNL     1      30.590  43.169  54.757  1.00  0.00     0.056 A 
HETATM   25 CL   UNL     1      31.991  43.563  57.035  1.00  0.00    -0.084 Cl
BRANCH  20  26
HETATM   26  O   UNL     1      27.677  44.806  53.257  1.00  0.00    -0.354 OA
HETATM   27  C   UNL     1      26.807  45.802  53.800  1.00  0.00     0.210 C 
ENDBRANCH  20  26
ENDBRANCH   1  19
TORSDOF 6
ENDMDL
MODEL 4
REMARK VINA RESULT:      -8.2      2.068      3.049
REMARK  6 active torsions:
REMARK  status: ('A' for Active; 'I' for Inactive)
REMARK    1  A    between atoms: O_2  and  C_3 
REMARK    2  A    between atoms: C_4  and  N_5 
REMARK       I    between atoms: N_5  and  C_6 
REMARK       I    between atoms: C_6  and  N_7 
REMARK    3  A    between atoms: N_7  and  C_8 
REMARK    4  A    between atoms: C_8  and  C_9 
REMARK    5  A    between atoms: C_9  and  C_10 
REMARK    6  A    between atoms: C_10  and  N_11 
ROOT
HETATM    1  N   UNL     1      25.005  45.675  50.549  1.00  0.00    -0.306 N 
HETATM    2  C   UNL     1      26.071  44.881  50.203  1.00  0.00     0.320 C 
HETATM    3  N   UNL     1      26.382  44.020  51.238  1.00  0.00    -0.343 N 
HETATM    4  O   UNL     1      26.716  44.939  49.167  1.00  0.00    -0.247 OA
HETATM    5  H   UNL     1      24.777  45.711  51.534  1.00  0.00     0.171 HD
HETATM    6  H   UNL     1      25.576  43.664  51.734  1.00  0.00     0.164 HD
ENDROOT
BRANCH   3   7
HETATM    7  C   UNL     1      27.530  43.138  51.153  1.00  0.00     0.126 C 
BRANCH   7   8
HETATM    8  C   UNL     1      28.609  43.462  52.186  1.00  0.00     0.040 C 
BRANCH   8   9
HETATM    9  C   UNL     1      28.085  43.338  53.614  1.00  0.00     0.131 C 
BRANCH   9  10
HETATM   10  N   UNL     1      28.309  44.546  54.388  1.00  0.00    -0.341 N 
HETATM   11  C   UNL     1      27.503  45.655  54.361  1.00  0.00     0.139 A 
HETATM   12  C   UNL     1      28.064  46.601  55.217  1.00  0.00     0.011 A 
HETATM   13  N   UNL     1      26.375  45.786  53.633  1.00  0.00    -0.242 NA
HETATM   14  C   UNL     1      27.398  47.830  55.350  1.00  0.00     0.017 A 
HETATM   15  C   UNL     1      29.240  46.024  55.764  1.00  0.00     0.032 A 
HETATM   16  C   UNL     1      26.226  48.014  54.617  1.00  0.00     0.020 A 
HETATM   17  C   UNL     1      25.776  46.987  53.799  1.00  0.00     0.119 A 
HETATM   18  C   UNL     1      29.369  44.756  55.235  1.00  0.00     0.093 A 
ENDBRANCH   9  10
ENDBRANCH   8   9
ENDBRANCH   7   8
ENDBRANCH   3   7
BRANCH   1  19
HETATM   19  C   UNL     1      24.378  46.662  49.762  1.00  0.00     0.071 A 
HETATM   20  C   UNL     1      24.989  47.927  49.719  1.00  0.00     0.095 A 
HETATM   21  C   UNL     1      24.417  48.982  49.007  1.00  0.00     0.041 A 
HETATM   22  C   UNL     1      23.236  48.764  48.298  1.00  0.00     0.026 A 
HETATM   23  C   UNL     1      22.636  47.504  48.320  1.00  0.00     0.036 A 
HETATM   24  C   UNL     1      23.198  46.452  49.048  1.00  0.00     0.056 A 
HETATM   25 CL   UNL     1      21.174  47.251  47.445  1.00  0.00    -0.084 Cl
BRANCH  20  26
HETATM   26  O   UNL     1      26.155  48.123  50.421  1.00  0.00    -0.354 OA
HETATM   27  C   UNL     1      27.201  48.526  49.535  1.00  0.00     0.210 C 
ENDBRANCH  20  26
ENDBRANCH   1  19
TORSDOF 6
ENDMDL
MODEL 5
REMARK VINA RESULT:      -8.1      3.614      9.334
REMARK  6 active torsions:
REMARK  status: ('A' for Active; 'I' for Inactive)
REMARK    1  A    between atoms: O_2  and  C_3 
REMARK    2  A    between atoms: C_4  and  N_5 
REMARK       I    between atoms: N_5  and  C_6 
REMARK       I    between atoms: C_6  and  N_7 
REMARK    3  A    between atoms: N_7  and  C_8 
REMARK    4  A    between atoms: C_8  and  C_9 
REMARK    5  A    between atoms: C_9  and  C_10 
REMARK    6  A    between atoms: C_10  and  N_11 
ROOT
HETATM    1  N   UNL     1      25.657  45.219  52.772  1.00  0.00    -0.306 N 
HETATM    2  C   UNL     1      25.591  45.576  51.447  1.00  0.00     0.320 C 
HETATM    3  N   UNL     1      24.279  45.559  51.013  1.00  0.00    -0.343 N 
HETATM    4  O   UNL     1      26.534  45.819  50.710  1.00  0.00    -0.247 OA
HETATM    5  H   UNL     1      24.837  44.767  53.154  1.00  0.00     0.171 HD
HETATM    6  H   UNL     1      23.613  45.888  51.700  1.00  0.00     0.164 HD
ENDROOT
BRANCH   3   7
HETATM    7  C   UNL     1      23.952  45.813  49.623  1.00  0.00     0.126 C 
BRANCH   7   8
HETATM    8  C   UNL     1      23.717  47.293  49.326  1.00  0.00     0.040 C 
BRANCH   8   9
HETATM    9  C   UNL     1      22.312  47.549  48.786  1.00  0.00     0.131 C 
BRANCH   9  10
HETATM   10  N   UNL     1      21.975  48.961  48.780  1.00  0.00    -0.341 N 
HETATM   11  C   UNL     1      20.798  49.489  49.244  1.00  0.00     0.139 A 
HETATM   12  C   UNL     1      20.848  50.867  49.045  1.00  0.00     0.011 A 
HETATM   13  N   UNL     1      19.786  48.784  49.793  1.00  0.00    -0.242 NA
HETATM   14  C   UNL     1      19.737  51.622  49.452  1.00  0.00     0.017 A 
HETATM   15  C   UNL     1      22.101  51.156  48.441  1.00  0.00     0.032 A 
HETATM   16  C   UNL     1      18.665  50.940  50.025  1.00  0.00     0.020 A 
HETATM   17  C   UNL     1      18.744  49.561  50.167  1.00  0.00     0.119 A 
HETATM   18  C   UNL     1      22.776  49.962  48.288  1.00  0.00     0.093 A 
ENDBRANCH   9  10
ENDBRANCH   8   9
ENDBRANCH   7   8
ENDBRANCH   3   7
BRANCH   1  19
HETATM   19  C   UNL     1      26.807  45.137  53.582  1.00  0.00     0.071 A 
HETATM   20  C   UNL     1      26.925  46.077  54.620  1.00  0.00     0.095 A 
HETATM   21  C   UNL     1      28.050  46.106  55.444  1.00  0.00     0.041 A 
HETATM   22  C   UNL     1      29.058  45.162  55.255  1.00  0.00     0.026 A 
HETATM   23  C   UNL     1      28.936  44.211  54.241  1.00  0.00     0.036 A 
HETATM   24  C   UNL     1      27.818  44.193  53.402  1.00  0.00     0.056 A 
HETATM   25 CL   UNL     1      30.192  43.054  54.014  1.00  0.00    -0.084 Cl
BRANCH  20  26
HETATM   26  O   UNL     1      25.919  46.999  54.794  1.00  0.00    -0.354 OA
HETATM   27  C   UNL     1      26.453  48.213  55.328  1.00  0.00     0.210 C 
ENDBRANCH  20  26
ENDBRANCH   1  19
TORSDOF 6
ENDMDL
MODEL 6
REMARK VINA RESULT:      -8.1      3.873      8.343
REMARK  6 active torsions:
REMARK  status: ('A' for Active; 'I' for Inactive)
REMARK    1  A    between atoms: O_2  and  C_3 
REMARK    2  A    between atoms: C_4  and  N_5 
REMARK       I    between atoms: N_5  and  C_6 
REMARK       I    between atoms: C_6  and  N_7 
REMARK    3  A    between atoms: N_7  and  C_8 
REMARK    4  A    between atoms: C_8  and  C_9 
REMARK    5  A    between atoms: C_9  and  C_10 
REMARK    6  A    between atoms: C_10  and  N_11 
ROOT
HETATM    1  N   UNL     1      29.022  43.767  53.359  1.00  0.00    -0.306 N 
HETATM    2  C   UNL     1      28.001  42.878  53.125  1.00  0.00     0.320 C 
HETATM    3  N   UNL     1      27.800  42.729  51.766  1.00  0.00    -0.343 N 
HETATM    4  O   UNL     1      27.308  42.327  53.967  1.00  0.00    -0.247 OA
HETATM    5  H   UNL     1      29.292  44.353  52.579  1.00  0.00     0.171 HD
HETATM    6  H   UNL     1      28.651  42.737  51.220  1.00  0.00     0.164 HD
ENDROOT
BRANCH   3   7
HETATM    7  C   UNL     1      26.715  41.910  51.260  1.00  0.00     0.126 C 
BRANCH   7   8
HETATM    8  C   UNL     1      25.777  42.673  50.327  1.00  0.00     0.040 C 
BRANCH   8   9
HETATM    9  C   UNL     1      24.652  43.365  51.092  1.00  0.00     0.131 C 
BRANCH   9  10
HETATM   10  N   UNL     1      24.792  44.810  51.086  1.00  0.00    -0.341 N 
HETATM   11  C   UNL     1      24.144  45.658  50.225  1.00  0.00     0.139 A 
HETATM   12  C   UNL     1      24.558  46.955  50.522  1.00  0.00     0.011 A 
HETATM   13  N   UNL     1      23.266  45.284  49.271  1.00  0.00    -0.242 NA
HETATM   14  C   UNL     1      24.015  48.000  49.758  1.00  0.00     0.017 A 
HETATM   15  C   UNL     1      25.483  46.861  51.596  1.00  0.00     0.032 A 
HETATM   16  C   UNL     1      23.103  47.665  48.759  1.00  0.00     0.020 A 
HETATM   17  C   UNL     1      22.775  46.329  48.567  1.00  0.00     0.119 A 
HETATM   18  C   UNL     1      25.610  45.527  51.924  1.00  0.00     0.093 A 
ENDBRANCH   9  10
ENDBRANCH   8   9
ENDBRANCH   7   8
ENDBRANCH   3   7
BRANCH   1  19
HETATM   19  C   UNL     1      29.541  44.170  54.606  1.00  0.00     0.071 A 
HETATM   20  C   UNL     1      29.014  45.346  55.167  1.00  0.00     0.095 A 
HETATM   21  C   UNL     1      29.498  45.851  56.373  1.00  0.00     0.041 A 
HETATM   22  C   UNL     1      30.499  45.156  57.051  1.00  0.00     0.026 A 
HETATM   23  C   UNL     1      31.011  43.975  56.510  1.00  0.00     0.036 A 
HETATM   24  C   UNL     1      30.540  43.479  55.292  1.00  0.00     0.056 A 
HETATM   25 CL   UNL     1      32.251  43.130  57.354  1.00  0.00    -0.084 Cl
BRANCH  20  26
HETATM   26  O   UNL     1      28.025  46.017  54.486  1.00  0.00    -0.354 OA
HETATM   27  C   UNL     1      27.666  47.209  55.190  1.00  0.00     0.210 C 
ENDBRANCH  20  26
ENDBRANCH   1  19
TORSDOF 6
ENDMDL
MODEL 7
REMARK VINA RESULT:      -8.1      5.113      6.807
REMARK  6 active torsions:
REMARK  status: ('A' for Active; 'I' for Inactive)
REMARK    1  A    between atoms: O_2  and  C_3 
REMARK    2  A    between atoms: C_4  and  N_5 
REMARK       I    between atoms: N_5  and  C_6 
REMARK       I    between atoms: C_6  and  N_7 
REMARK    3  A    between atoms: N_7  and  C_8 
REMARK    4  A    between atoms: C_8  and  C_9 
REMARK    5  A    between atoms: C_9  and  C_10 
REMARK    6  A    between atoms: C_10  and  N_11 
ROOT
HETATM    1  N   UNL     1      26.653  41.555  51.392  1.00  0.00    -0.306 N 
HETATM    2  C   UNL     1      26.952  42.869  51.661  1.00  0.00     0.320 C 
HETATM    3  N   UNL     1      26.076  43.375  52.602  1.00  0.00    -0.343 N 
HETATM    4  O   UNL     1      27.817  43.544  51.123  1.00  0.00    -0.247 OA
HETATM    5  H   UNL     1      25.741  41.234  51.691  1.00  0.00     0.171 HD
HETATM    6  H   UNL     1      25.821  42.715  53.325  1.00  0.00     0.164 HD
ENDROOT
BRANCH   3   7
HETATM    7  C   UNL     1      26.126  44.772  52.989  1.00  0.00     0.126 C 
BRANCH   7   8
HETATM    8  C   UNL     1      26.528  44.971  54.450  1.00  0.00     0.040 C 
BRANCH   8   9
HETATM    9  C   UNL     1      27.856  45.712  54.578  1.00  0.00     0.131 C 
BRANCH   9  10
HETATM   10  N   UNL     1      28.942  44.831  54.970  1.00  0.00    -0.341 N 
HETATM   11  C   UNL     1      29.690  44.968  56.111  1.00  0.00     0.139 A 
HETATM   12  C   UNL     1      30.639  43.947  56.114  1.00  0.00     0.011 A 
HETATM   13  N   UNL     1      29.520  45.922  57.049  1.00  0.00    -0.242 NA
HETATM   14  C   UNL     1      31.524  43.889  57.202  1.00  0.00     0.017 A 
HETATM   15  C   UNL     1      30.439  43.187  54.932  1.00  0.00     0.032 A 
HETATM   16  C   UNL     1      31.389  44.855  58.199  1.00  0.00     0.020 A 
HETATM   17  C   UNL     1      30.397  45.818  58.073  1.00  0.00     0.119 A 
HETATM   18  C   UNL     1      29.386  43.754  54.243  1.00  0.00     0.093 A 
ENDBRANCH   9  10
ENDBRANCH   8   9
ENDBRANCH   7   8
ENDBRANCH   3   7
BRANCH   1  19
HETATM   19  C   UNL     1      27.323  40.685  50.508  1.00  0.00     0.071 A 
HETATM   20  C   UNL     1      26.872  40.656  49.178  1.00  0.00     0.095 A 
HETATM   21  C   UNL     1      27.439  39.792  48.241  1.00  0.00     0.041 A 
HETATM   22  C   UNL     1      28.497  38.969  48.626  1.00  0.00     0.026 A 
HETATM   23  C   UNL     1      28.964  39.010  49.940  1.00  0.00     0.036 A 
HETATM   24  C   UNL     1      28.384  39.861  50.884  1.00  0.00     0.056 A 
HETATM   25 CL   UNL     1      30.267  37.983  50.404  1.00  0.00    -0.084 Cl
BRANCH  20  26
HETATM   26  O   UNL     1      25.829  41.477  48.815  1.00  0.00    -0.354 OA
HETATM   27  C   UNL     1      25.311  41.080  47.543  1.00  0.00     0.210 C 
ENDBRANCH  20  26
ENDBRANCH   1  19
TORSDOF 6
ENDMDL
MODEL 8
REMARK VINA RESULT:      -8.0      3.168      7.730
REMARK  6 active torsions:
REMARK  status: ('A' for Active; 'I' for Inactive)
REMARK    1  A    between atoms: O_2  and  C_3 
REMARK    2  A    between atoms: C_4  and  N_5 
REMARK       I    between atoms: N_5  and  C_6 
REMARK       I    between atoms: C_6  and  N_7 
REMARK    3  A    between atoms: N_7  and  C_8 
REMARK    4  A    between atoms: C_8  and  C_9 
REMARK    5  A    between atoms: C_9  and  C_10 
REMARK    6  A    between atoms: C_10  and  N_11 
ROOT
HETATM    1  N   UNL     1      26.145  44.793  51.000  1.00  0.00    -0.306 N 
HETATM    2  C   UNL     1      24.824  44.566  50.698  1.00  0.00     0.320 C 
HETATM    3  N   UNL     1      24.573  44.897  49.380  1.00  0.00    -0.343 N 
HETATM    4  O   UNL     1      23.955  44.188  51.468  1.00  0.00    -0.247 OA
HETATM    5  H   UNL     1      26.658  45.377  50.353  1.00  0.00     0.171 HD
HETATM    6  H   UNL     1      25.326  44.663  48.746  1.00  0.00     0.164 HD
ENDROOT
BRANCH   3   7
HETATM    7  C   UNL     1      23.229  44.832  48.840  1.00  0.00     0.126 C 
BRANCH   7   8
HETATM    8  C   UNL     1      22.711  46.188  48.364  1.00  0.00     0.040 C 
BRANCH   8   9
HETATM    9  C   UNL     1      22.941  47.282  49.404  1.00  0.00     0.131 C 
BRANCH   9  10
HETATM   10  N   UNL     1      23.668  48.414  48.858  1.00  0.00    -0.341 N 
HETATM   11  C   UNL     1      25.019  48.614  48.984  1.00  0.00     0.139 A 
HETATM   12  C   UNL     1      25.327  49.815  48.348  1.00  0.00     0.011 A 
HETATM   13  N   UNL     1      25.878  47.783  49.611  1.00  0.00    -0.242 NA
HETATM   14  C   UNL     1      26.669  50.224  48.350  1.00  0.00     0.017 A 
HETATM   15  C   UNL     1      24.110  50.337  47.833  1.00  0.00     0.032 A 
HETATM   16  C   UNL     1      27.597  49.399  48.986  1.00  0.00     0.020 A 
HETATM   17  C   UNL     1      27.156  48.225  49.581  1.00  0.00     0.119 A 
HETATM   18  C   UNL     1      23.103  49.454  48.162  1.00  0.00     0.093 A 
ENDBRANCH   9  10
ENDBRANCH   8   9
ENDBRANCH   7   8
ENDBRANCH   3   7
BRANCH   1  19
HETATM   19  C   UNL     1      26.796  44.563  52.229  1.00  0.00     0.071 A 
HETATM   20  C   UNL     1      27.286  43.266  52.459  1.00  0.00     0.095 A 
HETATM   21  C   UNL     1      27.901  42.929  53.665  1.00  0.00     0.041 A 
HETATM   22  C   UNL     1      28.063  43.908  54.644  1.00  0.00     0.026 A 
HETATM   23  C   UNL     1      27.599  45.204  54.413  1.00  0.00     0.036 A 
HETATM   24  C   UNL     1      26.965  45.538  53.213  1.00  0.00     0.056 A 
HETATM   25 CL   UNL     1      27.799  46.402  55.634  1.00  0.00    -0.084 Cl
BRANCH  20  26
HETATM   26  O   UNL     1      27.121  42.314  51.480  1.00  0.00    -0.354 OA
HETATM   27  C   UNL     1      28.224  41.404  51.488  1.00  0.00     0.210 C 
ENDBRANCH  20  26
ENDBRANCH   1  19
TORSDOF 6
ENDMDL
MODEL 9
REMARK VINA RESULT:      -7.9      1.667      2.318
REMARK  6 active torsions:
REMARK  status: ('A' for Active; 'I' for Inactive)
REMARK    1  A    between atoms: O_2  and  C_3 
REMARK    2  A    between atoms: C_4  and  N_5 
REMARK       I    between atoms: N_5  and  C_6 
REMARK       I    between atoms: C_6  and  N_7 
REMARK    3  A    between atoms: N_7  and  C_8 
REMARK    4  A    between atoms: C_8  and  C_9 
REMARK    5  A    between atoms: C_9  and  C_10 
REMARK    6  A    between atoms: C_10  and  N_11 
ROOT
HETATM    1  N   UNL     1      23.035  47.586  48.906  1.00  0.00    -0.306 N 
HETATM    2  C   UNL     1      24.071  47.310  49.765  1.00  0.00     0.320 C 
HETATM    3  N   UNL     1      24.572  46.046  49.518  1.00  0.00    -0.343 N 
HETATM    4  O   UNL     1      24.478  48.024  50.669  1.00  0.00    -0.247 OA
HETATM    5  H   UNL     1      22.630  46.794  48.424  1.00  0.00     0.171 HD
HETATM    6  H   UNL     1      24.595  45.796  48.538  1.00  0.00     0.164 HD
ENDROOT
BRANCH   3   7
HETATM    7  C   UNL     1      25.615  45.482  50.354  1.00  0.00     0.126 C 
BRANCH   7   8
HETATM    8  C   UNL     1      25.069  44.785  51.599  1.00  0.00     0.040 C 
BRANCH   8   9
HETATM    9  C   UNL     1      25.723  45.306  52.876  1.00  0.00     0.131 C 
BRANCH   9  10
HETATM   10  N   UNL     1      26.836  44.476  53.301  1.00  0.00    -0.341 N 
HETATM   11  C   UNL     1      27.820  44.870  54.171  1.00  0.00     0.139 A 
HETATM   12  C   UNL     1      28.711  43.806  54.305  1.00  0.00     0.011 A 
HETATM   13  N   UNL     1      27.893  46.072  54.779  1.00  0.00    -0.242 NA
HETATM   14  C   UNL     1      29.809  43.985  55.160  1.00  0.00     0.017 A 
HETATM   15  C   UNL     1      28.230  42.753  53.482  1.00  0.00     0.032 A 
HETATM   16  C   UNL     1      29.930  45.212  55.812  1.00  0.00     0.020 A 
HETATM   17  C   UNL     1      28.969  46.189  55.589  1.00  0.00     0.119 A 
HETATM   18  C   UNL     1      27.073  43.193  52.873  1.00  0.00     0.093 A 
ENDBRANCH   9  10
ENDBRANCH   8   9
ENDBRANCH   7   8
ENDBRANCH   3   7
BRANCH   1  19
HETATM   19  C   UNL     1      22.279  48.773  48.826  1.00  0.00     0.071 A 
HETATM   20  C   UNL     1      22.803  49.811  48.037  1.00  0.00     0.095 A 
HETATM   21  C   UNL     1      22.152  51.041  47.936  1.00  0.00     0.041 A 
HETATM   22  C   UNL     1      20.942  51.228  48.602  1.00  0.00     0.026 A 
HETATM   23  C   UNL     1      20.405  50.193  49.368  1.00  0.00     0.036 A 
HETATM   24  C   UNL     1      21.066  48.967  49.486  1.00  0.00     0.056 A 
HETATM   25 CL   UNL     1      18.912  50.440  50.192  1.00  0.00    -0.084 Cl
BRANCH  20  26
HETATM   26  O   UNL     1      23.997  49.608  47.384  1.00  0.00    -0.354 OA
HETATM   27  C   UNL     1      25.042  50.337  48.033  1.00  0.00     0.210 C 
ENDBRANCH  20  26
ENDBRANCH   1  19
TORSDOF 6
ENDMDL
MODEL 10
REMARK VINA RESULT:      -7.9      2.374      3.678
REMARK  6 active torsions:
REMARK  status: ('A' for Active; 'I' for Inactive)
REMARK    1  A    between atoms: O_2  and  C_3 
REMARK    2  A    between atoms: C_4  and  N_5 
REMARK       I    between atoms: N_5  and  C_6 
REMARK       I    between atoms: C_6  and  N_7 
REMARK    3  A    between atoms: N_7  and  C_8 
REMARK    4  A    between atoms: C_8  and  C_9 
REMARK    5  A    between atoms: C_9  and  C_10 
REMARK    6  A    between atoms: C_10  and  N_11 
ROOT
HETATM    1  N   UNL     1      22.540  47.753  49.451  1.00  0.00    -0.306 N 
HETATM    2  C   UNL     1      23.849  48.109  49.665  1.00  0.00     0.320 C 
HETATM    3  N   UNL     1      24.507  47.112  50.361  1.00  0.00    -0.343 N 
HETATM    4  O   UNL     1      24.376  49.167  49.357  1.00  0.00    -0.247 OA
HETATM    5  H   UNL     1      22.185  46.993  50.017  1.00  0.00     0.171 HD
HETATM    6  H   UNL     1      24.233  46.176  50.096  1.00  0.00     0.164 HD
ENDROOT
BRANCH   3   7
HETATM    7  C   UNL     1      25.882  47.287  50.790  1.00  0.00     0.126 C 
BRANCH   7   8
HETATM    8  C   UNL     1      26.060  47.129  52.299  1.00  0.00     0.040 C 
BRANCH   8   9
HETATM    9  C   UNL     1      26.104  45.662  52.716  1.00  0.00     0.131 C 
BRANCH   9  10
HETATM   10  N   UNL     1      27.157  45.397  53.681  1.00  0.00    -0.341 N 
HETATM   11  C   UNL     1      28.157  44.473  53.517  1.00  0.00     0.139 A 
HETATM   12  C   UNL     1      28.948  44.503  54.664  1.00  0.00     0.011 A 
HETATM   13  N   UNL     1      28.329  43.690  52.432  1.00  0.00    -0.242 NA
HETATM   14  C   UNL     1      30.046  43.632  54.717  1.00  0.00     0.017 A 
HETATM   15  C   UNL     1      28.388  45.479  55.531  1.00  0.00     0.032 A 
HETATM   16  C   UNL     1      30.267  42.800  53.619  1.00  0.00     0.020 A 
HETATM   17  C   UNL     1      29.401  42.872  52.536  1.00  0.00     0.119 A 
HETATM   18  C   UNL     1      27.283  46.014  54.901  1.00  0.00     0.093 A 
ENDBRANCH   9  10
ENDBRANCH   8   9
ENDBRANCH   7   8
ENDBRANCH   3   7
BRANCH   1  19
HETATM   19  C   UNL     1      21.551  48.487  48.765  1.00  0.00     0.071 A 
HETATM   20  C   UNL     1      20.848  47.816  47.751  1.00  0.00     0.095 A 
HETATM   21  C   UNL     1      19.885  48.473  46.983  1.00  0.00     0.041 A 
HETATM   22  C   UNL     1      19.594  49.809  47.253  1.00  0.00     0.026 A 
HETATM   23  C   UNL     1      20.274  50.475  48.274  1.00  0.00     0.036 A 
HETATM   24  C   UNL     1      21.252  49.824  49.031  1.00  0.00     0.056 A 
HETATM   25 CL   UNL     1      19.909  52.128  48.592  1.00  0.00    -0.084 Cl
BRANCH  20  26
HETATM   26  O   UNL     1      21.146  46.497  47.500  1.00  0.00    -0.354 OA
HETATM   27  C   UNL     1      21.094  46.240  46.095  1.00  0.00     0.210 C 
ENDBRANCH  20  26
ENDBRANCH   1  19
TORSDOF 6
ENDMDL
