MODEL 1
REMARK VINA RESULT:      -8.9      0.000      0.000
REMARK  7 active torsions:
REMARK  status: ('A' for Active; 'I' for Inactive)
REMARK    1  A    between atoms: C_4  and  O_5 
REMARK    2  A    between atoms: O_5  and  C_6 
REMARK    3  A    between atoms: C_9  and  N_10 
REMARK       I    between atoms: N_10  and  C_11 
REMARK    4  A    between atoms: C_11  and  C_12 
REMARK    5  A    between atoms: C_12  and  C_13 
REMARK    6  A    between atoms: C_13  and  N_14 
REMARK       I    between atoms: N_14  and  C_15 
REMARK    7  A    between atoms: C_15  and  C_16 
ROOT
HETATM    1  N   UNL     1      24.645  45.704  50.312  1.00  0.00    -0.327 N 
HETATM    2  C   UNL     1      24.421  47.066  50.245  1.00  0.00     0.223 C 
HETATM    3  O   UNL     1      25.005  47.942  50.875  1.00  0.00    -0.273 OA
HETATM    4  H   UNL     1      24.140  45.137  49.630  1.00  0.00     0.169 HD
ENDROOT
BRANCH   1   5
HETATM    5  C   UNL     1      25.539  45.019  51.157  1.00  0.00     0.034 A 
HETATM    6  C   UNL     1      26.846  44.688  50.802  1.00  0.00     0.032 A 
HETATM    7  C   UNL     1      27.676  44.013  51.704  1.00  0.00     0.039 A 
HETATM    8  C   UNL     1      27.209  43.664  52.973  1.00  0.00     0.076 A 
HETATM    9  C   UNL     1      25.898  43.978  53.329  1.00  0.00     0.039 A 
HETATM   10  C   UNL     1      25.073  44.664  52.429  1.00  0.00     0.032 A 
BRANCH   8  11
HETATM   11  O   UNL     1      28.097  42.962  53.758  1.00  0.00    -0.311 OA
BRANCH  11  12
HETATM   12  C   UNL     1      28.910  43.665  54.611  1.00  0.00     0.076 A 
HETATM   13  C   UNL     1      30.116  43.074  54.990  1.00  0.00     0.037 A 
HETATM   14  C   UNL     1      30.997  43.769  55.819  1.00  0.00     0.003 A 
HETATM   15  C   UNL     1      30.677  45.057  56.252  1.00  0.00     0.000 A 
HETATM   16  C   UNL     1      29.481  45.655  55.850  1.00  0.00     0.003 A 
HETATM   17  C   UNL     1      28.598  44.963  55.019  1.00  0.00     0.037 A 
ENDBRANCH  11  12
ENDBRANCH   8  11
ENDBRANCH   1   5
BRANCH   2  18
HETATM   18  C   UNL     1      23.343  47.431  49.249  1.00  0.00     0.123 C 
BRANCH  18  19
HETATM   19  C   UNL     1      23.146  48.937  49.140  1.00  0.00     0.132 C 
BRANCH  19  20
HETATM   20  N   UNL     1      21.808  49.479  49.310  1.00  0.00    -0.355 N 
HETATM   21  C   UNL     1      21.488  50.660  49.946  1.00  0.00     0.275 C 
HETATM   22  O   UNL     1      22.261  51.231  50.711  1.00  0.00    -0.265 OA
HETATM   23  H   UNL     1      21.092  49.136  48.676  1.00  0.00     0.162 HD
BRANCH  21  24
HETATM   24  C   UNL     1      20.157  51.148  49.649  1.00  0.00     0.142 A 
HETATM   25  O   UNL     1      19.086  50.654  50.350  1.00  0.00    -0.317 OA
HETATM   26  C   UNL     1      17.973  51.265  49.864  1.00  0.00     0.143 A 
HETATM   27  C   UNL     1      18.305  52.142  48.860  1.00  0.00     0.027 A 
HETATM   28  C   UNL     1      19.712  52.068  48.719  1.00  0.00     0.045 A 
ENDBRANCH  21  24
ENDBRANCH  19  20
ENDBRANCH  18  19
ENDBRANCH   2  18
TORSDOF 7
ENDMDL
MODEL 2
REMARK VINA RESULT:      -8.8      1.404      1.943
REMARK  7 active torsions:
REMARK  status: ('A' for Active; 'I' for Inactive)
REMARK    1  A    between atoms: C_4  and  O_5 
REMARK    2  A    between atoms: O_5  and  C_6 
REMARK    3  A    between atoms: C_9  and  N_10 
REMARK       I    between atoms: N_10  and  C_11 
REMARK    4  A    between atoms: C_11  and  C_12 
REMARK    5  A    between atoms: C_12  and  C_13 
REMARK    6  A    between atoms: C_13  and  N_14 
REMARK       I    between atoms: N_14  and  C_15 
REMARK    7  A    between atoms: C_15  and  C_16 
ROOT
HETATM    1  N   UNL     1      25.678  48.103  49.527  1.00  0.00    -0.327 N 
HETATM    2  C   UNL     1      24.425  48.533  49.136  1.00  0.00     0.223 C 
HETATM    3  O   UNL     1      23.344  48.056  49.468  1.00  0.00    -0.273 OA
HETATM    4  H   UNL     1      26.460  48.693  49.239  1.00  0.00     0.169 HD
ENDROOT
BRANCH   1   5
HETATM    5  C   UNL     1      25.996  46.994  50.334  1.00  0.00     0.034 A 
HETATM    6  C   UNL     1      26.563  45.816  49.848  1.00  0.00     0.032 A 
HETATM    7  C   UNL     1      26.857  44.760  50.719  1.00  0.00     0.039 A 
HETATM    8  C   UNL     1      26.591  44.872  52.085  1.00  0.00     0.076 A 
HETATM    9  C   UNL     1      26.009  46.042  52.575  1.00  0.00     0.039 A 
HETATM   10  C   UNL     1      25.727  47.101  51.704  1.00  0.00     0.032 A 
BRANCH   8  11
HETATM   11  O   UNL     1      26.878  43.755  52.838  1.00  0.00    -0.311 OA
BRANCH  11  12
HETATM   12  C   UNL     1      28.143  43.624  53.354  1.00  0.00     0.076 A 
HETATM   13  C   UNL     1      28.420  44.270  54.559  1.00  0.00     0.037 A 
HETATM   14  C   UNL     1      29.677  44.128  55.147  1.00  0.00     0.003 A 
HETATM   15  C   UNL     1      30.645  43.329  54.537  1.00  0.00     0.000 A 
HETATM   16  C   UNL     1      30.356  42.662  53.345  1.00  0.00     0.003 A 
HETATM   17  C   UNL     1      29.098  42.800  52.756  1.00  0.00     0.037 A 
ENDBRANCH  11  12
ENDBRANCH   8  11
ENDBRANCH   1   5
BRANCH   2  18
HETATM   18  C   UNL     1      24.480  49.735  48.220  1.00  0.00     0.123 C 
BRANCH  18  19
HETATM   19  C   UNL     1      23.692  50.916  48.772  1.00  0.00     0.132 C 
BRANCH  19  20
HETATM   20  N   UNL     1      22.242  50.822  48.823  1.00  0.00    -0.355 N 
HETATM   21  C   UNL     1      21.456  51.051  49.932  1.00  0.00     0.275 C 
HETATM   22  O   UNL     1      21.906  51.054  51.075  1.00  0.00    -0.265 OA
HETATM   23  H   UNL     1      21.749  50.886  47.938  1.00  0.00     0.162 HD
BRANCH  21  24
HETATM   24  C   UNL     1      20.055  51.262  49.628  1.00  0.00     0.142 A 
HETATM   25  O   UNL     1      19.105  50.500  50.261  1.00  0.00    -0.317 OA
HETATM   26  C   UNL     1      17.895  50.892  49.784  1.00  0.00     0.143 A 
HETATM   27  C   UNL     1      18.044  51.891  48.851  1.00  0.00     0.027 A 
HETATM   28  C   UNL     1      19.436  52.130  48.749  1.00  0.00     0.045 A 
ENDBRANCH  21  24
ENDBRANCH  19  20
ENDBRANCH  18  19
ENDBRANCH   2  18
TORSDOF 7
ENDMDL
MODEL 3
REMARK VINA RESULT:      -8.5      1.838      2.820
REMARK  7 active torsions:
REMARK  status: ('A' for Active; 'I' for Inactive)
REMARK    1  A    between atoms: C_4  and  O_5 
REMARK    2  A    between atoms: O_5  and  C_6 
REMARK    3  A    between atoms: C_9  and  N_10 
REMARK       I    between atoms: N_10  and  C_11 
REMARK    4  A    between atoms: C_11  and  C_12 
REMARK    5  A    between atoms: C_12  and  C_13 
REMARK    6  A    between atoms: C_13  and  N_14 
REMARK       I    between atoms: N_14  and  C_15 
REMARK    7  A    between atoms: C_15  and  C_16 
ROOT
HETATM    1  N   UNL     1      25.819  43.680  51.412  1.00  0.00    -0.327 N 
HETATM    2  C   UNL     1      24.910  44.720  51.430  1.00  0.00     0.223 C 
HETATM    3  O   UNL     1      24.974  45.745  52.102  1.00  0.00    -0.273 OA
HETATM    4  H   UNL     1      25.658  42.961  50.705  1.00  0.00     0.169 HD
ENDROOT
BRANCH   1   5
HETATM    5  C   UNL     1      26.976  43.534  52.201  1.00  0.00     0.034 A 
HETATM    6  C   UNL     1      28.275  43.620  51.699  1.00  0.00     0.032 A 
HETATM    7  C   UNL     1      29.374  43.471  52.552  1.00  0.00     0.039 A 
HETATM    8  C   UNL     1      29.188  43.239  53.916  1.00  0.00     0.076 A 
HETATM    9  C   UNL     1      27.892  43.136  54.421  1.00  0.00     0.039 A 
HETATM   10  C   UNL     1      26.793  43.296  53.568  1.00  0.00     0.032 A 
BRANCH   8  11
HETATM   11  O   UNL     1      30.341  43.063  54.649  1.00  0.00    -0.311 OA
BRANCH  11  12
HETATM   12  C   UNL     1      30.510  43.810  55.788  1.00  0.00     0.076 A 
HETATM   13  C   UNL     1      31.364  43.309  56.771  1.00  0.00     0.037 A 
HETATM   14  C   UNL     1      31.604  44.054  57.925  1.00  0.00     0.003 A 
HETATM   15  C   UNL     1      31.003  45.303  58.085  1.00  0.00     0.000 A 
HETATM   16  C   UNL     1      30.169  45.814  57.088  1.00  0.00     0.003 A 
HETATM   17  C   UNL     1      29.929  45.071  55.931  1.00  0.00     0.037 A 
ENDBRANCH  11  12
ENDBRANCH   8  11
ENDBRANCH   1   5
BRANCH   2  18
HETATM   18  C   UNL     1      23.757  44.504  50.475  1.00  0.00     0.123 C 
BRANCH  18  19
HETATM   19  C   UNL     1      23.817  45.443  49.278  1.00  0.00     0.132 C 
BRANCH  19  20
HETATM   20  N   UNL     1      23.111  46.712  49.352  1.00  0.00    -0.355 N 
HETATM   21  C   UNL     1      23.692  47.952  49.505  1.00  0.00     0.275 C 
HETATM   22  O   UNL     1      24.843  48.101  49.908  1.00  0.00    -0.265 OA
HETATM   23  H   UNL     1      22.169  46.733  48.974  1.00  0.00     0.162 HD
BRANCH  21  24
HETATM   24  C   UNL     1      22.818  49.058  49.171  1.00  0.00     0.142 A 
HETATM   25  O   UNL     1      22.813  50.177  49.965  1.00  0.00    -0.317 OA
HETATM   26  C   UNL     1      21.902  51.038  49.438  1.00  0.00     0.143 A 
HETATM   27  C   UNL     1      21.317  50.494  48.320  1.00  0.00     0.027 A 
HETATM   28  C   UNL     1      21.904  49.218  48.147  1.00  0.00     0.045 A 
ENDBRANCH  21  24
ENDBRANCH  19  20
ENDBRANCH  18  19
ENDBRANCH   2  18
TORSDOF 7
ENDMDL
MODEL 4
REMARK VINA RESULT:      -8.4      2.324     10.678
REMARK  7 active torsions:
REMARK  status: ('A' for Active; 'I' for Inactive)
REMARK    1  A    between atoms: C_4  and  O_5 
REMARK    2  A    between atoms: O_5  and  C_6 
REMARK    3  A    between atoms: C_9  and  N_10 
REMARK       I    between atoms: N_10  and  C_11 
REMARK    4  A    between atoms: C_11  and  C_12 
REMARK    5  A    between atoms: C_12  and  C_13 
REMARK    6  A    between atoms: C_13  and  N_14 
REMARK       I    between atoms: N_14  and  C_15 
REMARK    7  A    between atoms: C_15  and  C_16 
ROOT
HETATM    1  N   UNL     1      25.652  45.539  50.846  1.00  0.00    -0.327 N 
HETATM    2  C   UNL     1      25.517  44.690  51.927  1.00  0.00     0.223 C 
HETATM    3  O   UNL     1      24.469  44.296  52.430  1.00  0.00    -0.273 OA
HETATM    4  H   UNL     1      26.602  45.667  50.497  1.00  0.00     0.169 HD
ENDROOT
BRANCH   1   5
HETATM    5  C   UNL     1      24.629  46.186  50.126  1.00  0.00     0.034 A 
HETATM    6  C   UNL     1      23.703  45.521  49.323  1.00  0.00     0.032 A 
HETATM    7  C   UNL     1      22.710  46.237  48.645  1.00  0.00     0.039 A 
HETATM    8  C   UNL     1      22.629  47.625  48.766  1.00  0.00     0.076 A 
HETATM    9  C   UNL     1      23.561  48.299  49.555  1.00  0.00     0.039 A 
HETATM   10  C   UNL     1      24.548  47.579  50.241  1.00  0.00     0.032 A 
BRANCH   8  11
HETATM   11  O   UNL     1      21.641  48.228  48.018  1.00  0.00    -0.311 OA
BRANCH  11  12
HETATM   12  C   UNL     1      20.942  49.268  48.578  1.00  0.00     0.076 A 
HETATM   13  C   UNL     1      21.120  50.538  48.028  1.00  0.00     0.037 A 
HETATM   14  C   UNL     1      20.396  51.619  48.533  1.00  0.00     0.003 A 
HETATM   15  C   UNL     1      19.486  51.422  49.573  1.00  0.00     0.000 A 
HETATM   16  C   UNL     1      19.291  50.145  50.103  1.00  0.00     0.003 A 
HETATM   17  C   UNL     1      20.013  49.062  49.599  1.00  0.00     0.037 A 
ENDBRANCH  11  12
ENDBRANCH   8  11
ENDBRANCH   1   5
BRANCH   2  18
HETATM   18  C   UNL     1      26.848  44.228  52.475  1.00  0.00     0.123 C 
BRANCH  18  19
HETATM   19  C   UNL     1      27.175  44.874  53.815  1.00  0.00     0.132 C 
BRANCH  19  20
HETATM   20  N   UNL     1      28.423  44.521  54.473  1.00  0.00    -0.355 N 
HETATM   21  C   UNL     1      29.181  45.352  55.269  1.00  0.00     0.275 C 
HETATM   22  O   UNL     1      29.055  46.574  55.260  1.00  0.00    -0.265 OA
HETATM   23  H   UNL     1      28.603  43.531  54.608  1.00  0.00     0.162 HD
BRANCH  21  24
HETATM   24  C   UNL     1      30.150  44.658  56.092  1.00  0.00     0.142 A 
HETATM   25  O   UNL     1      30.426  45.129  57.351  1.00  0.00    -0.317 OA
HETATM   26  C   UNL     1      31.367  44.309  57.888  1.00  0.00     0.143 A 
HETATM   27  C   UNL     1      31.707  43.318  56.998  1.00  0.00     0.027 A 
HETATM   28  C   UNL     1      30.924  43.542  55.840  1.00  0.00     0.045 A 
ENDBRANCH  21  24
ENDBRANCH  19  20
ENDBRANCH  18  19
ENDBRANCH   2  18
TORSDOF 7
ENDMDL
MODEL 5
REMARK VINA RESULT:      -8.4      2.274      2.551
REMARK  7 active torsions:
REMARK  status: ('A' for Active; 'I' for Inactive)
REMARK    1  A    between atoms: C_4  and  O_5 
REMARK    2  A    between atoms: O_5  and  C_6 
REMARK    3  A    between atoms: C_9  and  N_10 
REMARK       I    between atoms: N_10  and  C_11 
REMARK    4  A    between atoms: C_11  and  C_12 
REMARK    5  A    between atoms: C_12  and  C_13 
REMARK    6  A    between atoms: C_13  and  N_14 
REMARK       I    between atoms: N_14  and  C_15 
REMARK    7  A    between atoms: C_15  and  C_16 
ROOT
HETATM    1  N   UNL     1      25.877  47.837  49.544  1.00  0.00    -0.327 N 
HETATM    2  C   UNL     1      26.735  48.782  49.015  1.00  0.00     0.223 C 
HETATM    3  O   UNL     1      27.940  48.885  49.225  1.00  0.00    -0.273 OA
HETATM    4  H   UNL     1      24.929  47.837  49.168  1.00  0.00     0.169 HD
ENDROOT
BRANCH   1   5
HETATM    5  C   UNL     1      26.177  46.830  50.483  1.00  0.00     0.034 A 
HETATM    6  C   UNL     1      26.817  45.633  50.161  1.00  0.00     0.032 A 
HETATM    7  C   UNL     1      27.087  44.686  51.155  1.00  0.00     0.039 A 
HETATM    8  C   UNL     1      26.726  44.927  52.482  1.00  0.00     0.076 A 
HETATM    9  C   UNL     1      26.073  46.115  52.808  1.00  0.00     0.039 A 
HETATM   10  C   UNL     1      25.813  47.067  51.814  1.00  0.00     0.032 A 
BRANCH   8  11
HETATM   11  O   UNL     1      27.001  43.905  53.365  1.00  0.00    -0.311 OA
BRANCH  11  12
HETATM   12  C   UNL     1      28.149  43.980  54.112  1.00  0.00     0.076 A 
HETATM   13  C   UNL     1      29.138  43.024  53.878  1.00  0.00     0.037 A 
HETATM   14  C   UNL     1      30.342  43.086  54.580  1.00  0.00     0.003 A 
HETATM   15  C   UNL     1      30.559  44.113  55.500  1.00  0.00     0.000 A 
HETATM   16  C   UNL     1      29.578  45.085  55.713  1.00  0.00     0.003 A 
HETATM   17  C   UNL     1      28.373  45.025  55.010  1.00  0.00     0.037 A 
ENDBRANCH  11  12
ENDBRANCH   8  11
ENDBRANCH   1   5
BRANCH   2  18
HETATM   18  C   UNL     1      26.039  49.737  48.072  1.00  0.00     0.123 C 
BRANCH  18  19
HETATM   19  C   UNL     1      24.713  50.235  48.631  1.00  0.00     0.132 C 
BRANCH  19  20
HETATM   20  N   UNL     1      23.484  49.849  47.958  1.00  0.00    -0.355 N 
HETATM   21  C   UNL     1      22.570  48.922  48.411  1.00  0.00     0.275 C 
HETATM   22  O   UNL     1      22.840  48.092  49.275  1.00  0.00    -0.265 OA
HETATM   23  H   UNL     1      23.116  50.500  47.270  1.00  0.00     0.162 HD
BRANCH  21  24
HETATM   24  C   UNL     1      21.278  49.002  47.761  1.00  0.00     0.142 A 
HETATM   25  O   UNL     1      20.698  47.858  47.271  1.00  0.00    -0.317 OA
HETATM   26  C   UNL     1      19.515  48.220  46.708  1.00  0.00     0.143 A 
HETATM   27  C   UNL     1      19.321  49.576  46.822  1.00  0.00     0.027 A 
HETATM   28  C   UNL     1      20.456  50.081  47.500  1.00  0.00     0.045 A 
ENDBRANCH  21  24
ENDBRANCH  19  20
ENDBRANCH  18  19
ENDBRANCH   2  18
TORSDOF 7
ENDMDL
MODEL 6
REMARK VINA RESULT:      -8.3      1.259      1.753
REMARK  7 active torsions:
REMARK  status: ('A' for Active; 'I' for Inactive)
REMARK    1  A    between atoms: C_4  and  O_5 
REMARK    2  A    between atoms: O_5  and  C_6 
REMARK    3  A    between atoms: C_9  and  N_10 
REMARK       I    between atoms: N_10  and  C_11 
REMARK    4  A    between atoms: C_11  and  C_12 
REMARK    5  A    between atoms: C_12  and  C_13 
REMARK    6  A    between atoms: C_13  and  N_14 
REMARK       I    between atoms: N_14  and  C_15 
REMARK    7  A    between atoms: C_15  and  C_16 
ROOT
HETATM    1  N   UNL     1      24.503  47.317  50.526  1.00  0.00    -0.327 N 
HETATM    2  C   UNL     1      25.215  48.110  49.648  1.00  0.00     0.223 C 
HETATM    3  O   UNL     1      26.433  48.137  49.499  1.00  0.00    -0.273 OA
HETATM    4  H   UNL     1      23.487  47.349  50.430  1.00  0.00     0.169 HD
ENDROOT
BRANCH   1   5
HETATM    5  C   UNL     1      25.013  46.418  51.483  1.00  0.00     0.034 A 
HETATM    6  C   UNL     1      25.833  46.797  52.546  1.00  0.00     0.032 A 
HETATM    7  C   UNL     1      26.292  45.842  53.460  1.00  0.00     0.039 A 
HETATM    8  C   UNL     1      25.933  44.500  53.326  1.00  0.00     0.076 A 
HETATM    9  C   UNL     1      25.125  44.112  52.257  1.00  0.00     0.039 A 
HETATM   10  C   UNL     1      24.658  45.071  51.349  1.00  0.00     0.032 A 
BRANCH   8  11
HETATM   11  O   UNL     1      26.480  43.644  54.257  1.00  0.00    -0.311 OA
BRANCH  11  12
HETATM   12  C   UNL     1      27.825  43.381  54.190  1.00  0.00     0.076 A 
HETATM   13  C   UNL     1      28.263  42.491  53.209  1.00  0.00     0.037 A 
HETATM   14  C   UNL     1      29.626  42.227  53.072  1.00  0.00     0.003 A 
HETATM   15  C   UNL     1      30.546  42.868  53.903  1.00  0.00     0.000 A 
HETATM   16  C   UNL     1      30.107  43.779  54.866  1.00  0.00     0.003 A 
HETATM   17  C   UNL     1      28.744  44.046  55.005  1.00  0.00     0.037 A 
ENDBRANCH  11  12
ENDBRANCH   8  11
ENDBRANCH   1   5
BRANCH   2  18
HETATM   18  C   UNL     1      24.323  48.991  48.803  1.00  0.00     0.123 C 
BRANCH  18  19
HETATM   19  C   UNL     1      22.957  48.364  48.560  1.00  0.00     0.132 C 
BRANCH  19  20
HETATM   20  N   UNL     1      21.769  49.123  48.913  1.00  0.00    -0.355 N 
HETATM   21  C   UNL     1      21.751  50.373  49.495  1.00  0.00     0.275 C 
HETATM   22  O   UNL     1      22.727  50.852  50.066  1.00  0.00    -0.265 OA
HETATM   23  H   UNL     1      20.907  48.867  48.442  1.00  0.00     0.162 HD
BRANCH  21  24
HETATM   24  C   UNL     1      20.476  51.052  49.392  1.00  0.00     0.142 A 
HETATM   25  O   UNL     1      19.485  50.767  50.298  1.00  0.00    -0.317 OA
HETATM   26  C   UNL     1      18.407  51.525  49.964  1.00  0.00     0.143 A 
HETATM   27  C   UNL     1      18.682  52.293  48.857  1.00  0.00     0.027 A 
HETATM   28  C   UNL     1      20.014  51.989  48.487  1.00  0.00     0.045 A 
ENDBRANCH  21  24
ENDBRANCH  19  20
ENDBRANCH  18  19
ENDBRANCH   2  18
TORSDOF 7
ENDMDL
MODEL 7
REMARK VINA RESULT:      -8.3      1.797      2.433
REMARK  7 active torsions:
REMARK  status: ('A' for Active; 'I' for Inactive)
REMARK    1  A    between atoms: C_4  and  O_5 
REMARK    2  A    between atoms: O_5  and  C_6 
REMARK    3  A    between atoms: C_9  and  N_10 
REMARK       I    between atoms: N_10  and  C_11 
REMARK    4  A    between atoms: C_11  and  C_12 
REMARK    5  A    between atoms: C_12  and  C_13 
REMARK    6  A    between atoms: C_13  and  N_14 
REMARK       I    between atoms: N_14  and  C_15 
REMARK    7  A    between atoms: C_15  and  C_16 
ROOT
HETATM    1  N   UNL     1      24.049  45.047  51.251  1.00  0.00    -0.327 N 
HETATM    2  C   UNL     1      24.226  44.938  49.885  1.00  0.00     0.223 C 
HETATM    3  O   UNL     1      25.284  45.029  49.269  1.00  0.00    -0.273 OA
HETATM    4  H   UNL     1      23.114  44.830  51.596  1.00  0.00     0.169 HD
ENDROOT
BRANCH   1   5
HETATM    5  C   UNL     1      25.021  45.348  52.225  1.00  0.00     0.034 A 
HETATM    6  C   UNL     1      25.725  46.552  52.274  1.00  0.00     0.032 A 
HETATM    7  C   UNL     1      26.670  46.777  53.281  1.00  0.00     0.039 A 
HETATM    8  C   UNL     1      26.920  45.806  54.251  1.00  0.00     0.076 A 
HETATM    9  C   UNL     1      26.230  44.594  54.199  1.00  0.00     0.039 A 
HETATM   10  C   UNL     1      25.276  44.374  53.197  1.00  0.00     0.032 A 
BRANCH   8  11
HETATM   11  O   UNL     1      27.903  46.119  55.164  1.00  0.00    -0.311 OA
BRANCH  11  12
HETATM   12  C   UNL     1      28.951  45.247  55.320  1.00  0.00     0.076 A 
HETATM   13  C   UNL     1      29.768  45.410  56.439  1.00  0.00     0.037 A 
HETATM   14  C   UNL     1      30.818  44.520  56.665  1.00  0.00     0.003 A 
HETATM   15  C   UNL     1      31.036  43.462  55.781  1.00  0.00     0.000 A 
HETATM   16  C   UNL     1      30.201  43.287  54.676  1.00  0.00     0.003 A 
HETATM   17  C   UNL     1      29.148  44.175  54.448  1.00  0.00     0.037 A 
ENDBRANCH  11  12
ENDBRANCH   8  11
ENDBRANCH   1   5
BRANCH   2  18
HETATM   18  C   UNL     1      22.936  44.654  49.151  1.00  0.00     0.123 C 
BRANCH  18  19
HETATM   19  C   UNL     1      22.505  45.820  48.271  1.00  0.00     0.132 C 
BRANCH  19  20
HETATM   20  N   UNL     1      21.926  46.994  48.903  1.00  0.00    -0.355 N 
HETATM   21  C   UNL     1      22.465  48.262  48.901  1.00  0.00     0.275 C 
HETATM   22  O   UNL     1      23.644  48.481  48.636  1.00  0.00    -0.265 OA
HETATM   23  H   UNL     1      20.931  46.960  49.103  1.00  0.00     0.162 HD
BRANCH  21  24
HETATM   24  C   UNL     1      21.524  49.303  49.264  1.00  0.00     0.142 A 
HETATM   25  O   UNL     1      20.242  48.961  49.613  1.00  0.00    -0.317 OA
HETATM   26  C   UNL     1      19.580  50.116  49.886  1.00  0.00     0.143 A 
HETATM   27  C   UNL     1      20.410  51.199  49.718  1.00  0.00     0.027 A 
HETATM   28  C   UNL     1      21.663  50.677  49.315  1.00  0.00     0.045 A 
ENDBRANCH  21  24
ENDBRANCH  19  20
ENDBRANCH  18  19
ENDBRANCH   2  18
TORSDOF 7
ENDMDL
MODEL 8
REMARK VINA RESULT:      -8.2      2.236      3.293
REMARK  7 active torsions:
REMARK  status: ('A' for Active; 'I' for Inactive)
REMARK    1  A    between atoms: C_4  and  O_5 
REMARK    2  A    between atoms: O_5  and  C_6 
REMARK    3  A    between atoms: C_9  and  N_10 
REMARK       I    between atoms: N_10  and  C_11 
REMARK    4  A    between atoms: C_11  and  C_12 
REMARK    5  A    between atoms: C_12  and  C_13 
REMARK    6  A    between atoms: C_13  and  N_14 
REMARK       I    between atoms: N_14  and  C_15 
REMARK    7  A    between atoms: C_15  and  C_16 
ROOT
HETATM    1  N   UNL     1      24.795  45.002  52.265  1.00  0.00    -0.327 N 
HETATM    2  C   UNL     1      24.814  45.136  50.890  1.00  0.00     0.223 C 
HETATM    3  O   UNL     1      25.720  45.601  50.206  1.00  0.00    -0.273 OA
HETATM    4  H   UNL     1      24.002  44.488  52.650  1.00  0.00     0.169 HD
ENDROOT
BRANCH   1   5
HETATM    5  C   UNL     1      25.774  45.424  53.185  1.00  0.00     0.034 A 
HETATM    6  C   UNL     1      26.190  46.748  53.325  1.00  0.00     0.032 A 
HETATM    7  C   UNL     1      27.164  47.087  54.270  1.00  0.00     0.039 A 
HETATM    8  C   UNL     1      27.730  46.109  55.089  1.00  0.00     0.076 A 
HETATM    9  C   UNL     1      27.329  44.781  54.944  1.00  0.00     0.039 A 
HETATM   10  C   UNL     1      26.346  44.444  54.005  1.00  0.00     0.032 A 
BRANCH   8  11
HETATM   11  O   UNL     1      28.710  46.551  55.950  1.00  0.00    -0.311 OA
BRANCH  11  12
HETATM   12  C   UNL     1      29.650  45.651  56.387  1.00  0.00     0.076 A 
HETATM   13  C   UNL     1      30.045  45.725  57.723  1.00  0.00     0.037 A 
HETATM   14  C   UNL     1      30.962  44.802  58.225  1.00  0.00     0.003 A 
HETATM   15  C   UNL     1      31.468  43.801  57.395  1.00  0.00     0.000 A 
HETATM   16  C   UNL     1      31.050  43.713  56.066  1.00  0.00     0.003 A 
HETATM   17  C   UNL     1      30.131  44.634  55.561  1.00  0.00     0.037 A 
ENDBRANCH  11  12
ENDBRANCH   8  11
ENDBRANCH   1   5
BRANCH   2  18
HETATM   18  C   UNL     1      23.557  44.609  50.235  1.00  0.00     0.123 C 
BRANCH  18  19
HETATM   19  C   UNL     1      23.381  45.136  48.817  1.00  0.00     0.132 C 
BRANCH  19  20
HETATM   20  N   UNL     1      23.327  46.574  48.610  1.00  0.00    -0.355 N 
HETATM   21  C   UNL     1      22.183  47.339  48.540  1.00  0.00     0.275 C 
HETATM   22  O   UNL     1      21.074  46.854  48.331  1.00  0.00    -0.265 OA
HETATM   23  H   UNL     1      24.170  47.098  48.826  1.00  0.00     0.162 HD
BRANCH  21  24
HETATM   24  C   UNL     1      22.412  48.759  48.709  1.00  0.00     0.142 A 
HETATM   25  O   UNL     1      21.562  49.489  49.501  1.00  0.00    -0.317 OA
HETATM   26  C   UNL     1      21.995  50.777  49.471  1.00  0.00     0.143 A 
HETATM   27  C   UNL     1      23.107  50.894  48.671  1.00  0.00     0.027 A 
HETATM   28  C   UNL     1      23.376  49.594  48.179  1.00  0.00     0.045 A 
ENDBRANCH  21  24
ENDBRANCH  19  20
ENDBRANCH  18  19
ENDBRANCH   2  18
TORSDOF 7
ENDMDL
MODEL 9
REMARK VINA RESULT:      -8.1      2.033     10.251
REMARK  7 active torsions:
REMARK  status: ('A' for Active; 'I' for Inactive)
REMARK    1  A    between atoms: C_4  and  O_5 
REMARK    2  A    between atoms: O_5  and  C_6 
REMARK    3  A    between atoms: C_9  and  N_10 
REMARK       I    between atoms: N_10  and  C_11 
REMARK    4  A    between atoms: C_11  and  C_12 
REMARK    5  A    between atoms: C_12  and  C_13 
REMARK    6  A    between atoms: C_13  and  N_14 
REMARK       I    between atoms: N_14  and  C_15 
REMARK    7  A    between atoms: C_15  and  C_16 
ROOT
HETATM    1  N   UNL     1      25.700  45.249  50.231  1.00  0.00    -0.327 N 
HETATM    2  C   UNL     1      25.239  44.514  51.305  1.00  0.00     0.223 C 
HETATM    3  O   UNL     1      24.298  44.793  52.042  1.00  0.00    -0.273 OA
HETATM    4  H   UNL     1      26.422  44.803  49.664  1.00  0.00     0.169 HD
ENDROOT
BRANCH   1   5
HETATM    5  C   UNL     1      25.239  46.503  49.784  1.00  0.00     0.034 A 
HETATM    6  C   UNL     1      26.049  47.633  49.672  1.00  0.00     0.032 A 
HETATM    7  C   UNL     1      25.516  48.843  49.211  1.00  0.00     0.039 A 
HETATM    8  C   UNL     1      24.170  48.934  48.854  1.00  0.00     0.076 A 
HETATM    9  C   UNL     1      23.351  47.812  48.978  1.00  0.00     0.039 A 
HETATM   10  C   UNL     1      23.889  46.600  49.429  1.00  0.00     0.032 A 
BRANCH   8  11
HETATM   11  O   UNL     1      23.746  50.184  48.458  1.00  0.00    -0.311 OA
BRANCH  11  12
HETATM   12  C   UNL     1      22.450  50.549  48.726  1.00  0.00     0.076 A 
HETATM   13  C   UNL     1      21.550  50.571  47.660  1.00  0.00     0.037 A 
HETATM   14  C   UNL     1      20.212  50.891  47.891  1.00  0.00     0.003 A 
HETATM   15  C   UNL     1      19.777  51.170  49.188  1.00  0.00     0.000 A 
HETATM   16  C   UNL     1      20.674  51.121  50.256  1.00  0.00     0.003 A 
HETATM   17  C   UNL     1      22.014  50.800  50.028  1.00  0.00     0.037 A 
ENDBRANCH  11  12
ENDBRANCH   8  11
ENDBRANCH   1   5
BRANCH   2  18
HETATM   18  C   UNL     1      26.016  43.233  51.512  1.00  0.00     0.123 C 
BRANCH  18  19
HETATM   19  C   UNL     1      27.521  43.466  51.506  1.00  0.00     0.132 C 
BRANCH  19  20
HETATM   20  N   UNL     1      28.158  43.935  52.726  1.00  0.00    -0.355 N 
HETATM   21  C   UNL     1      28.363  43.192  53.869  1.00  0.00     0.275 C 
HETATM   22  O   UNL     1      27.755  42.150  54.100  1.00  0.00    -0.265 OA
HETATM   23  H   UNL     1      28.755  44.752  52.644  1.00  0.00     0.162 HD
BRANCH  21  24
HETATM   24  C   UNL     1      29.338  43.762  54.776  1.00  0.00     0.142 A 
HETATM   25  O   UNL     1      29.113  45.005  55.312  1.00  0.00    -0.317 OA
HETATM   26  C   UNL     1      30.178  45.298  56.104  1.00  0.00     0.143 A 
HETATM   27  C   UNL     1      31.088  44.268  56.089  1.00  0.00     0.027 A 
HETATM   28  C   UNL     1      30.549  43.278  55.232  1.00  0.00     0.045 A 
ENDBRANCH  21  24
ENDBRANCH  19  20
ENDBRANCH  18  19
ENDBRANCH   2  18
TORSDOF 7
ENDMDL
MODEL 10
REMARK VINA RESULT:      -8.0      2.286      2.866
REMARK  7 active torsions:
REMARK  status: ('A' for Active; 'I' for Inactive)
REMARK    1  A    between atoms: C_4  and  O_5 
REMARK    2  A    between atoms: O_5  and  C_6 
REMARK    3  A    between atoms: C_9  and  N_10 
REMARK       I    between atoms: N_10  and  C_11 
REMARK    4  A    between atoms: C_11  and  C_12 
REMARK    5  A    between atoms: C_12  and  C_13 
REMARK    6  A    between atoms: C_13  and  N_14 
REMARK       I    between atoms: N_14  and  C_15 
REMARK    7  A    between atoms: C_15  and  C_16 
ROOT
HETATM    1  N   UNL     1      24.219  46.444  49.359  1.00  0.00    -0.327 N 
HETATM    2  C   UNL     1      24.370  47.807  49.527  1.00  0.00     0.223 C 
HETATM    3  O   UNL     1      25.156  48.375  50.279  1.00  0.00    -0.273 OA
HETATM    4  H   UNL     1      23.594  46.156  48.605  1.00  0.00     0.169 HD
ENDROOT
BRANCH   1   5
HETATM    5  C   UNL     1      24.879  45.412  50.053  1.00  0.00     0.034 A 
HETATM    6  C   UNL     1      24.270  44.608  51.016  1.00  0.00     0.032 A 
HETATM    7  C   UNL     1      24.995  43.596  51.655  1.00  0.00     0.039 A 
HETATM    8  C   UNL     1      26.335  43.373  51.336  1.00  0.00     0.076 A 
HETATM    9  C   UNL     1      26.955  44.183  50.384  1.00  0.00     0.039 A 
HETATM   10  C   UNL     1      26.225  45.188  49.738  1.00  0.00     0.032 A 
BRANCH   8  11
HETATM   11  O   UNL     1      26.959  42.382  52.061  1.00  0.00    -0.311 OA
BRANCH  11  12
HETATM   12  C   UNL     1      27.990  42.734  52.895  1.00  0.00     0.076 A 
HETATM   13  C   UNL     1      29.268  42.272  52.577  1.00  0.00     0.037 A 
HETATM   14  C   UNL     1      30.355  42.643  53.369  1.00  0.00     0.003 A 
HETATM   15  C   UNL     1      30.163  43.485  54.464  1.00  0.00     0.000 A 
HETATM   16  C   UNL     1      28.887  43.967  54.765  1.00  0.00     0.003 A 
HETATM   17  C   UNL     1      27.798  43.600  53.973  1.00  0.00     0.037 A 
ENDBRANCH  11  12
ENDBRANCH   8  11
ENDBRANCH   1   5
BRANCH   2  18
HETATM   18  C   UNL     1      23.449  48.610  48.637  1.00  0.00     0.123 C 
BRANCH  18  19
HETATM   19  C   UNL     1      22.199  49.075  49.371  1.00  0.00     0.132 C 
BRANCH  19  20
HETATM   20  N   UNL     1      21.001  48.255  49.297  1.00  0.00    -0.355 N 
HETATM   21  C   UNL     1      19.727  48.651  49.643  1.00  0.00     0.275 C 
HETATM   22  O   UNL     1      19.506  49.633  50.346  1.00  0.00    -0.265 OA
HETATM   23  H   UNL     1      21.037  47.449  48.680  1.00  0.00     0.162 HD
BRANCH  21  24
HETATM   24  C   UNL     1      18.682  47.792  49.125  1.00  0.00     0.142 A 
HETATM   25  O   UNL     1      17.369  48.169  49.263  1.00  0.00    -0.317 OA
HETATM   26  C   UNL     1      16.611  47.187  48.710  1.00  0.00     0.143 A 
HETATM   27  C   UNL     1      17.408  46.180  48.219  1.00  0.00     0.027 A 
HETATM   28  C   UNL     1      18.743  46.569  48.486  1.00  0.00     0.045 A 
ENDBRANCH  21  24
ENDBRANCH  19  20
ENDBRANCH  18  19
ENDBRANCH   2  18
TORSDOF 7
ENDMDL
