MODEL 1
REMARK VINA RESULT:      -9.3      0.000      0.000
REMARK  5 active torsions:
REMARK  status: ('A' for Active; 'I' for Inactive)
REMARK    1  A    between atoms: C_2  and  C_3 
REMARK    2  A    between atoms: C_7  and  C_8 
REMARK       I    between atoms: C_8  and  N_9 
REMARK    3  A    between atoms: N_9  and  C_10 
REMARK    4  A    between atoms: C_12  and  N_13 
REMARK       I    between atoms: N_13  and  C_14 
REMARK    5  A    between atoms: C_14  and  C_15 
ROOT
HETATM    1  C   UNL     1      24.785  45.677  50.046  1.00  0.00     0.037 A 
HETATM    2  C   UNL     1      25.695  45.673  51.110  1.00  0.00     0.059 A 
HETATM    3  C   UNL     1      26.619  44.631  51.264  1.00  0.00     0.037 A 
HETATM    4  C   UNL     1      26.624  43.585  50.334  1.00  0.00     0.029 A 
HETATM    5  C   UNL     1      25.706  43.565  49.285  1.00  0.00     0.004 A 
HETATM    6  C   UNL     1      24.787  44.606  49.146  1.00  0.00     0.029 A 
ENDROOT
BRANCH   1   7
HETATM    7  N   UNL     1      23.842  46.704  49.812  1.00  0.00    -0.322 N 
HETATM    8  C   UNL     1      24.089  48.047  49.605  1.00  0.00     0.274 C 
HETATM    9  O   UNL     1      25.196  48.565  49.528  1.00  0.00    -0.266 OA
HETATM   10  H   UNL     1      22.880  46.408  49.734  1.00  0.00     0.169 HD
BRANCH   8  11
HETATM   11  C   UNL     1      22.904  48.856  49.440  1.00  0.00     0.120 A 
HETATM   12  N   UNL     1      21.660  48.281  49.446  1.00  0.00    -0.273 N 
HETATM   13  N   UNL     1      20.651  49.152  49.283  1.00  0.00    -0.179 NA
HETATM   14  H   UNL     1      21.451  47.293  49.559  1.00  0.00     0.189 HD
HETATM   15  C   UNL     1      21.263  50.333  49.152  1.00  0.00     0.056 A 
HETATM   16  C   UNL     1      22.671  50.204  49.247  1.00  0.00     0.065 A 
BRANCH  15  17
HETATM   17  C   UNL     1      20.468  51.574  48.930  1.00  0.00     0.056 C 
HETATM   18  C   UNL     1      19.203  51.606  49.774  1.00  0.00     0.011 C 
ENDBRANCH  15  17
ENDBRANCH   8  11
ENDBRANCH   1   7
BRANCH   3  19
HETATM   19  N   UNL     1      27.583  44.574  52.297  1.00  0.00    -0.323 N 
HETATM   20  C   UNL     1      27.391  44.149  53.600  1.00  0.00     0.256 C 
HETATM   21  O   UNL     1      26.365  43.674  54.073  1.00  0.00    -0.267 OA
HETATM   22  H   UNL     1      28.498  44.924  52.054  1.00  0.00     0.169 HD
BRANCH  20  23
HETATM   23  C   UNL     1      28.562  44.315  54.508  1.00  0.00     0.032 A 
HETATM   24  C   UNL     1      29.521  43.294  54.530  1.00  0.00     0.017 A 
HETATM   25  C   UNL     1      30.632  43.389  55.368  1.00  0.00     0.001 A 
HETATM   26  C   UNL     1      30.795  44.508  56.183  1.00  0.00     0.000 A 
HETATM   27  C   UNL     1      29.853  45.538  56.152  1.00  0.00     0.001 A 
HETATM   28  C   UNL     1      28.740  45.448  55.312  1.00  0.00     0.017 A 
ENDBRANCH  20  23
ENDBRANCH   3  19
TORSDOF 5
ENDMDL
MODEL 2
REMARK VINA RESULT:      -9.2      2.456      9.741
REMARK  5 active torsions:
REMARK  status: ('A' for Active; 'I' for Inactive)
REMARK    1  A    between atoms: C_2  and  C_3 
REMARK    2  A    between atoms: C_7  and  C_8 
REMARK       I    between atoms: C_8  and  N_9 
REMARK    3  A    between atoms: N_9  and  C_10 
REMARK    4  A    between atoms: C_12  and  N_13 
REMARK       I    between atoms: N_13  and  C_14 
REMARK    5  A    between atoms: C_14  and  C_15 
ROOT
HETATM    1  C   UNL     1      25.907  47.853  50.004  1.00  0.00     0.037 A 
HETATM    2  C   UNL     1      24.624  48.280  49.639  1.00  0.00     0.059 A 
HETATM    3  C   UNL     1      24.445  49.325  48.722  1.00  0.00     0.037 A 
HETATM    4  C   UNL     1      25.573  49.943  48.169  1.00  0.00     0.029 A 
HETATM    5  C   UNL     1      26.855  49.544  48.544  1.00  0.00     0.004 A 
HETATM    6  C   UNL     1      27.020  48.506  49.461  1.00  0.00     0.029 A 
ENDROOT
BRANCH   1   7
HETATM    7  N   UNL     1      26.164  46.792  50.901  1.00  0.00    -0.322 N 
HETATM    8  C   UNL     1      25.912  46.753  52.258  1.00  0.00     0.274 C 
HETATM    9  O   UNL     1      25.356  47.631  52.906  1.00  0.00    -0.266 OA
HETATM   10  H   UNL     1      26.524  45.944  50.487  1.00  0.00     0.169 HD
BRANCH   8  11
HETATM   11  C   UNL     1      26.334  45.536  52.911  1.00  0.00     0.120 A 
HETATM   12  N   UNL     1      25.776  45.154  54.103  1.00  0.00    -0.273 N 
HETATM   13  N   UNL     1      26.264  44.003  54.595  1.00  0.00    -0.179 NA
HETATM   14  H   UNL     1      25.055  45.650  54.620  1.00  0.00     0.189 HD
HETATM   15  C   UNL     1      27.182  43.632  53.697  1.00  0.00     0.056 A 
HETATM   16  C   UNL     1      27.262  44.554  52.624  1.00  0.00     0.065 A 
BRANCH  15  17
HETATM   17  C   UNL     1      27.974  42.387  53.899  1.00  0.00     0.056 C 
HETATM   18  C   UNL     1      29.472  42.636  53.810  1.00  0.00     0.011 C 
ENDBRANCH  15  17
ENDBRANCH   8  11
ENDBRANCH   1   7
BRANCH   3  19
HETATM   19  N   UNL     1      23.183  49.791  48.288  1.00  0.00    -0.323 N 
HETATM   20  C   UNL     1      22.260  50.517  49.021  1.00  0.00     0.256 C 
HETATM   21  O   UNL     1      22.404  50.952  50.157  1.00  0.00    -0.267 OA
HETATM   22  H   UNL     1      22.922  49.521  47.351  1.00  0.00     0.169 HD
BRANCH  20  23
HETATM   23  C   UNL     1      20.955  50.765  48.344  1.00  0.00     0.032 A 
HETATM   24  C   UNL     1      20.180  51.841  48.796  1.00  0.00     0.017 A 
HETATM   25  C   UNL     1      18.944  52.115  48.208  1.00  0.00     0.001 A 
HETATM   26  C   UNL     1      18.481  51.321  47.160  1.00  0.00     0.000 A 
HETATM   27  C   UNL     1      19.258  50.260  46.691  1.00  0.00     0.001 A 
HETATM   28  C   UNL     1      20.497  49.983  47.275  1.00  0.00     0.017 A 
ENDBRANCH  20  23
ENDBRANCH   3  19
TORSDOF 5
ENDMDL
MODEL 3
REMARK VINA RESULT:      -9.0      1.409      1.816
REMARK  5 active torsions:
REMARK  status: ('A' for Active; 'I' for Inactive)
REMARK    1  A    between atoms: C_2  and  C_3 
REMARK    2  A    between atoms: C_7  and  C_8 
REMARK       I    between atoms: C_8  and  N_9 
REMARK    3  A    between atoms: N_9  and  C_10 
REMARK    4  A    between atoms: C_12  and  N_13 
REMARK       I    between atoms: N_13  and  C_14 
REMARK    5  A    between atoms: C_14  and  C_15 
ROOT
HETATM    1  C   UNL     1      25.431  45.159  51.301  1.00  0.00     0.037 A 
HETATM    2  C   UNL     1      26.297  45.365  52.383  1.00  0.00     0.059 A 
HETATM    3  C   UNL     1      27.031  44.304  52.930  1.00  0.00     0.037 A 
HETATM    4  C   UNL     1      26.889  43.025  52.380  1.00  0.00     0.029 A 
HETATM    5  C   UNL     1      26.011  42.803  51.320  1.00  0.00     0.004 A 
HETATM    6  C   UNL     1      25.282  43.866  50.787  1.00  0.00     0.029 A 
ENDROOT
BRANCH   1   7
HETATM    7  N   UNL     1      24.679  46.183  50.682  1.00  0.00    -0.322 N 
HETATM    8  C   UNL     1      25.147  47.217  49.895  1.00  0.00     0.274 C 
HETATM    9  O   UNL     1      26.310  47.381  49.550  1.00  0.00    -0.266 OA
HETATM   10  H   UNL     1      23.677  46.115  50.784  1.00  0.00     0.169 HD
BRANCH   8  11
HETATM   11  C   UNL     1      24.127  48.135  49.444  1.00  0.00     0.120 A 
HETATM   12  N   UNL     1      22.799  47.835  49.598  1.00  0.00    -0.273 N 
HETATM   13  N   UNL     1      21.964  48.777  49.133  1.00  0.00    -0.179 NA
HETATM   14  H   UNL     1      22.415  46.992  50.018  1.00  0.00     0.189 HD
HETATM   15  C   UNL     1      22.779  49.718  48.647  1.00  0.00     0.056 A 
HETATM   16  C   UNL     1      24.141  49.367  48.819  1.00  0.00     0.065 A 
BRANCH  15  17
HETATM   17  C   UNL     1      22.221  50.946  48.013  1.00  0.00     0.056 C 
HETATM   18  C   UNL     1      20.842  51.296  48.551  1.00  0.00     0.011 C 
ENDBRANCH  15  17
ENDBRANCH   8  11
ENDBRANCH   1   7
BRANCH   3  19
HETATM   19  N   UNL     1      27.942  44.441  54.003  1.00  0.00    -0.323 N 
HETATM   20  C   UNL     1      29.255  44.007  54.048  1.00  0.00     0.256 C 
HETATM   21  O   UNL     1      29.889  43.491  53.135  1.00  0.00    -0.267 OA
HETATM   22  H   UNL     1      27.566  44.868  54.837  1.00  0.00     0.169 HD
BRANCH  20  23
HETATM   23  C   UNL     1      29.943  44.178  55.360  1.00  0.00     0.032 A 
HETATM   24  C   UNL     1      30.818  43.165  55.774  1.00  0.00     0.017 A 
HETATM   25  C   UNL     1      31.481  43.264  56.998  1.00  0.00     0.001 A 
HETATM   26  C   UNL     1      31.280  44.380  57.810  1.00  0.00     0.000 A 
HETATM   27  C   UNL     1      30.425  45.402  57.394  1.00  0.00     0.001 A 
HETATM   28  C   UNL     1      29.761  45.308  56.167  1.00  0.00     0.017 A 
ENDBRANCH  20  23
ENDBRANCH   3  19
TORSDOF 5
ENDMDL
MODEL 4
REMARK VINA RESULT:      -8.7      1.231      1.896
REMARK  5 active torsions:
REMARK  status: ('A' for Active; 'I' for Inactive)
REMARK    1  A    between atoms: C_2  and  C_3 
REMARK    2  A    between atoms: C_7  and  C_8 
REMARK       I    between atoms: C_8  and  N_9 
REMARK    3  A    between atoms: N_9  and  C_10 
REMARK    4  A    between atoms: C_12  and  N_13 
REMARK       I    between atoms: N_13  and  C_14 
REMARK    5  A    between atoms: C_14  and  C_15 
ROOT
HETATM    1  C   UNL     1      23.522  46.306  49.403  1.00  0.00     0.037 A 
HETATM    2  C   UNL     1      24.481  46.060  50.393  1.00  0.00     0.059 A 
HETATM    3  C   UNL     1      25.233  44.878  50.391  1.00  0.00     0.037 A 
HETATM    4  C   UNL     1      25.014  43.936  49.379  1.00  0.00     0.029 A 
HETATM    5  C   UNL     1      24.044  44.158  48.403  1.00  0.00     0.004 A 
HETATM    6  C   UNL     1      23.298  45.337  48.418  1.00  0.00     0.029 A 
ENDROOT
BRANCH   1   7
HETATM    7  N   UNL     1      22.745  47.484  49.326  1.00  0.00    -0.322 N 
HETATM    8  C   UNL     1      23.193  48.790  49.271  1.00  0.00     0.274 C 
HETATM    9  O   UNL     1      24.365  49.141  49.217  1.00  0.00    -0.266 OA
HETATM   10  H   UNL     1      21.747  47.348  49.247  1.00  0.00     0.169 HD
BRANCH   8  11
HETATM   11  C   UNL     1      22.144  49.782  49.245  1.00  0.00     0.120 A 
HETATM   12  N   UNL     1      21.609  50.263  50.412  1.00  0.00    -0.273 N 
HETATM   13  N   UNL     1      20.643  51.180  50.238  1.00  0.00    -0.179 NA
HETATM   14  H   UNL     1      21.874  49.993  51.356  1.00  0.00     0.189 HD
HETATM   15  C   UNL     1      20.537  51.288  48.910  1.00  0.00     0.056 A 
HETATM   16  C   UNL     1      21.455  50.439  48.244  1.00  0.00     0.065 A 
BRANCH  15  17
HETATM   17  C   UNL     1      19.538  52.213  48.306  1.00  0.00     0.056 C 
HETATM   18  C   UNL     1      18.325  52.415  49.200  1.00  0.00     0.011 C 
ENDBRANCH  15  17
ENDBRANCH   8  11
ENDBRANCH   1   7
BRANCH   3  19
HETATM   19  N   UNL     1      26.234  44.574  51.341  1.00  0.00    -0.323 N 
HETATM   20  C   UNL     1      26.058  44.299  52.686  1.00  0.00     0.256 C 
HETATM   21  O   UNL     1      24.991  44.194  53.280  1.00  0.00    -0.267 OA
HETATM   22  H   UNL     1      27.183  44.607  50.995  1.00  0.00     0.169 HD
BRANCH  20  23
HETATM   23  C   UNL     1      27.311  44.136  53.478  1.00  0.00     0.032 A 
HETATM   24  C   UNL     1      27.658  45.162  54.368  1.00  0.00     0.017 A 
HETATM   25  C   UNL     1      28.825  45.070  55.127  1.00  0.00     0.001 A 
HETATM   26  C   UNL     1      29.647  43.951  55.006  1.00  0.00     0.000 A 
HETATM   27  C   UNL     1      29.297  42.917  54.137  1.00  0.00     0.001 A 
HETATM   28  C   UNL     1      28.128  43.003  53.377  1.00  0.00     0.017 A 
ENDBRANCH  20  23
ENDBRANCH   3  19
TORSDOF 5
ENDMDL
MODEL 5
REMARK VINA RESULT:      -8.7      2.562      3.733
REMARK  5 active torsions:
REMARK  status: ('A' for Active; 'I' for Inactive)
REMARK    1  A    between atoms: C_2  and  C_3 
REMARK    2  A    between atoms: C_7  and  C_8 
REMARK       I    between atoms: C_8  and  N_9 
REMARK    3  A    between atoms: N_9  and  C_10 
REMARK    4  A    between atoms: C_12  and  N_13 
REMARK       I    between atoms: N_13  and  C_14 
REMARK    5  A    between atoms: C_14  and  C_15 
ROOT
HETATM    1  C   UNL     1      24.238  49.220  48.898  1.00  0.00     0.037 A 
HETATM    2  C   UNL     1      24.445  48.122  49.742  1.00  0.00     0.059 A 
HETATM    3  C   UNL     1      25.740  47.681  50.046  1.00  0.00     0.037 A 
HETATM    4  C   UNL     1      26.835  48.355  49.491  1.00  0.00     0.029 A 
HETATM    5  C   UNL     1      26.640  49.433  48.629  1.00  0.00     0.004 A 
HETATM    6  C   UNL     1      25.346  49.860  48.330  1.00  0.00     0.029 A 
ENDROOT
BRANCH   1   7
HETATM    7  N   UNL     1      22.964  49.737  48.567  1.00  0.00    -0.322 N 
HETATM    8  C   UNL     1      22.171  50.577  49.323  1.00  0.00     0.274 C 
HETATM    9  O   UNL     1      22.478  51.070  50.402  1.00  0.00    -0.266 OA
HETATM   10  H   UNL     1      22.623  49.507  47.645  1.00  0.00     0.169 HD
BRANCH   8  11
HETATM   11  C   UNL     1      20.894  50.893  48.727  1.00  0.00     0.120 A 
HETATM   12  N   UNL     1      20.567  50.417  47.484  1.00  0.00    -0.273 N 
HETATM   13  N   UNL     1      19.350  50.790  47.055  1.00  0.00    -0.179 NA
HETATM   14  H   UNL     1      21.146  49.830  46.890  1.00  0.00     0.189 HD
HETATM   15  C   UNL     1      18.876  51.547  48.049  1.00  0.00     0.056 A 
HETATM   16  C   UNL     1      19.800  51.640  49.119  1.00  0.00     0.065 A 
BRANCH  15  17
HETATM   17  C   UNL     1      17.529  52.175  47.942  1.00  0.00     0.056 C 
HETATM   18  C   UNL     1      16.881  52.385  49.301  1.00  0.00     0.011 C 
ENDBRANCH  15  17
ENDBRANCH   8  11
ENDBRANCH   1   7
BRANCH   3  19
HETATM   19  N   UNL     1      26.025  46.599  50.909  1.00  0.00    -0.323 N 
HETATM   20  C   UNL     1      25.920  46.577  52.289  1.00  0.00     0.256 C 
HETATM   21  O   UNL     1      25.487  47.471  53.006  1.00  0.00    -0.267 OA
HETATM   22  H   UNL     1      26.385  45.770  50.459  1.00  0.00     0.169 HD
BRANCH  20  23
HETATM   23  C   UNL     1      26.409  45.334  52.951  1.00  0.00     0.032 A 
HETATM   24  C   UNL     1      25.805  44.956  54.158  1.00  0.00     0.017 A 
HETATM   25  C   UNL     1      26.229  43.808  54.828  1.00  0.00     0.001 A 
HETATM   26  C   UNL     1      27.252  43.028  54.292  1.00  0.00     0.000 A 
HETATM   27  C   UNL     1      27.844  43.386  53.081  1.00  0.00     0.001 A 
HETATM   28  C   UNL     1      27.421  44.534  52.404  1.00  0.00     0.017 A 
ENDBRANCH  20  23
ENDBRANCH   3  19
TORSDOF 5
ENDMDL
MODEL 6
REMARK VINA RESULT:      -8.6      1.637      9.333
REMARK  5 active torsions:
REMARK  status: ('A' for Active; 'I' for Inactive)
REMARK    1  A    between atoms: C_2  and  C_3 
REMARK    2  A    between atoms: C_7  and  C_8 
REMARK       I    between atoms: C_8  and  N_9 
REMARK    3  A    between atoms: N_9  and  C_10 
REMARK    4  A    between atoms: C_12  and  N_13 
REMARK       I    between atoms: N_13  and  C_14 
REMARK    5  A    between atoms: C_14  and  C_15 
ROOT
HETATM    1  C   UNL     1      25.937  44.450  51.997  1.00  0.00     0.037 A 
HETATM    2  C   UNL     1      25.357  45.604  51.454  1.00  0.00     0.059 A 
HETATM    3  C   UNL     1      24.315  45.516  50.520  1.00  0.00     0.037 A 
HETATM    4  C   UNL     1      23.856  44.252  50.133  1.00  0.00     0.029 A 
HETATM    5  C   UNL     1      24.443  43.096  50.647  1.00  0.00     0.004 A 
HETATM    6  C   UNL     1      25.482  43.196  51.571  1.00  0.00     0.029 A 
ENDROOT
BRANCH   1   7
HETATM    7  N   UNL     1      26.972  44.460  52.959  1.00  0.00    -0.322 N 
HETATM    8  C   UNL     1      28.227  43.893  52.857  1.00  0.00     0.274 C 
HETATM    9  O   UNL     1      28.676  43.328  51.868  1.00  0.00    -0.266 OA
HETATM   10  H   UNL     1      26.787  44.994  53.797  1.00  0.00     0.169 HD
BRANCH   8  11
HETATM   11  C   UNL     1      29.047  44.035  54.037  1.00  0.00     0.120 A 
HETATM   12  N   UNL     1      28.900  45.120  54.863  1.00  0.00    -0.273 N 
HETATM   13  N   UNL     1      29.728  45.122  55.920  1.00  0.00    -0.179 NA
HETATM   14  H   UNL     1      28.245  45.887  54.742  1.00  0.00     0.189 HD
HETATM   15  C   UNL     1      30.447  44.006  55.769  1.00  0.00     0.056 A 
HETATM   16  C   UNL     1      30.058  43.289  54.610  1.00  0.00     0.065 A 
BRANCH  15  17
HETATM   17  C   UNL     1      31.510  43.654  56.752  1.00  0.00     0.056 C 
HETATM   18  C   UNL     1      31.346  44.399  58.068  1.00  0.00     0.011 C 
ENDBRANCH  15  17
ENDBRANCH   8  11
ENDBRANCH   1   7
BRANCH   3  19
HETATM   19  N   UNL     1      23.666  46.635  49.951  1.00  0.00    -0.323 N 
HETATM   20  C   UNL     1      24.204  47.889  49.722  1.00  0.00     0.256 C 
HETATM   21  O   UNL     1      25.365  48.234  49.904  1.00  0.00    -0.267 OA
HETATM   22  H   UNL     1      22.689  46.502  49.731  1.00  0.00     0.169 HD
BRANCH  20  23
HETATM   23  C   UNL     1      23.246  48.917  49.222  1.00  0.00     0.032 A 
HETATM   24  C   UNL     1      23.760  50.173  48.872  1.00  0.00     0.017 A 
HETATM   25  C   UNL     1      22.910  51.177  48.409  1.00  0.00     0.001 A 
HETATM   26  C   UNL     1      21.543  50.930  48.286  1.00  0.00     0.000 A 
HETATM   27  C   UNL     1      21.028  49.676  48.613  1.00  0.00     0.001 A 
HETATM   28  C   UNL     1      21.876  48.665  49.075  1.00  0.00     0.017 A 
ENDBRANCH  20  23
ENDBRANCH   3  19
TORSDOF 5
ENDMDL
MODEL 7
REMARK VINA RESULT:      -8.1      2.034      9.437
REMARK  5 active torsions:
REMARK  status: ('A' for Active; 'I' for Inactive)
REMARK    1  A    between atoms: C_2  and  C_3 
REMARK    2  A    between atoms: C_7  and  C_8 
REMARK       I    between atoms: C_8  and  N_9 
REMARK    3  A    between atoms: N_9  and  C_10 
REMARK    4  A    between atoms: C_12  and  N_13 
REMARK       I    between atoms: N_13  and  C_14 
REMARK    5  A    between atoms: C_14  and  C_15 
ROOT
HETATM    1  C   UNL     1      24.167  44.700  48.964  1.00  0.00     0.037 A 
HETATM    2  C   UNL     1      23.451  45.870  49.244  1.00  0.00     0.059 A 
HETATM    3  C   UNL     1      22.390  46.280  48.425  1.00  0.00     0.037 A 
HETATM    4  C   UNL     1      22.050  45.500  47.313  1.00  0.00     0.029 A 
HETATM    5  C   UNL     1      22.773  44.347  47.010  1.00  0.00     0.004 A 
HETATM    6  C   UNL     1      23.830  43.952  47.829  1.00  0.00     0.029 A 
ENDROOT
BRANCH   1   7
HETATM    7  N   UNL     1      25.230  44.211  49.757  1.00  0.00    -0.322 N 
HETATM    8  C   UNL     1      25.146  43.453  50.909  1.00  0.00     0.274 C 
HETATM    9  O   UNL     1      24.114  43.022  51.405  1.00  0.00    -0.266 OA
HETATM   10  H   UNL     1      26.159  44.393  49.406  1.00  0.00     0.169 HD
BRANCH   8  11
HETATM   11  C   UNL     1      26.419  43.148  51.519  1.00  0.00     0.120 A 
HETATM   12  N   UNL     1      26.608  41.965  52.186  1.00  0.00    -0.273 N 
HETATM   13  N   UNL     1      27.838  41.816  52.703  1.00  0.00    -0.179 NA
HETATM   14  H   UNL     1      25.921  41.227  52.314  1.00  0.00     0.189 HD
HETATM   15  C   UNL     1      28.467  42.947  52.372  1.00  0.00     0.056 A 
HETATM   16  C   UNL     1      27.625  43.812  51.628  1.00  0.00     0.065 A 
BRANCH  15  17
HETATM   17  C   UNL     1      29.879  43.176  52.789  1.00  0.00     0.056 C 
HETATM   18  C   UNL     1      30.028  43.249  54.300  1.00  0.00     0.011 C 
ENDBRANCH  15  17
ENDBRANCH   8  11
ENDBRANCH   1   7
BRANCH   3  19
HETATM   19  N   UNL     1      21.607  47.433  48.661  1.00  0.00    -0.323 N 
HETATM   20  C   UNL     1      21.891  48.732  48.278  1.00  0.00     0.256 C 
HETATM   21  O   UNL     1      22.839  49.105  47.597  1.00  0.00    -0.267 OA
HETATM   22  H   UNL     1      20.771  47.283  49.208  1.00  0.00     0.169 HD
BRANCH  20  23
HETATM   23  C   UNL     1      20.942  49.769  48.774  1.00  0.00     0.032 A 
HETATM   24  C   UNL     1      20.134  49.443  49.871  1.00  0.00     0.017 A 
HETATM   25  C   UNL     1      19.219  50.369  50.372  1.00  0.00     0.001 A 
HETATM   26  C   UNL     1      19.112  51.629  49.785  1.00  0.00     0.000 A 
HETATM   27  C   UNL     1      19.928  51.968  48.705  1.00  0.00     0.001 A 
HETATM   28  C   UNL     1      20.848  51.044  48.201  1.00  0.00     0.017 A 
ENDBRANCH  20  23
ENDBRANCH   3  19
TORSDOF 5
ENDMDL
MODEL 8
REMARK VINA RESULT:      -8.1      2.361      3.542
REMARK  5 active torsions:
REMARK  status: ('A' for Active; 'I' for Inactive)
REMARK    1  A    between atoms: C_2  and  C_3 
REMARK    2  A    between atoms: C_7  and  C_8 
REMARK       I    between atoms: C_8  and  N_9 
REMARK    3  A    between atoms: N_9  and  C_10 
REMARK    4  A    between atoms: C_12  and  N_13 
REMARK       I    between atoms: N_13  and  C_14 
REMARK    5  A    between atoms: C_14  and  C_15 
ROOT
HETATM    1  C   UNL     1      24.115  48.517  49.681  1.00  0.00     0.037 A 
HETATM    2  C   UNL     1      24.583  47.420  50.416  1.00  0.00     0.059 A 
HETATM    3  C   UNL     1      25.940  47.071  50.402  1.00  0.00     0.037 A 
HETATM    4  C   UNL     1      26.831  47.835  49.640  1.00  0.00     0.029 A 
HETATM    5  C   UNL     1      26.372  48.913  48.885  1.00  0.00     0.004 A 
HETATM    6  C   UNL     1      25.018  49.249  48.902  1.00  0.00     0.029 A 
ENDROOT
BRANCH   1   7
HETATM    7  N   UNL     1      22.768  48.944  49.666  1.00  0.00    -0.322 N 
HETATM    8  C   UNL     1      21.718  48.406  48.947  1.00  0.00     0.274 C 
HETATM    9  O   UNL     1      21.777  47.410  48.237  1.00  0.00    -0.266 OA
HETATM   10  H   UNL     1      22.538  49.697  50.299  1.00  0.00     0.169 HD
BRANCH   8  11
HETATM   11  C   UNL     1      20.462  49.100  49.110  1.00  0.00     0.120 A 
HETATM   12  N   UNL     1      20.073  49.560  50.341  1.00  0.00    -0.273 N 
HETATM   13  N   UNL     1      18.884  50.184  50.344  1.00  0.00    -0.179 NA
HETATM   14  H   UNL     1      20.590  49.469  51.211  1.00  0.00     0.189 HD
HETATM   15  C   UNL     1      18.480  50.115  49.072  1.00  0.00     0.056 A 
HETATM   16  C   UNL     1      19.432  49.451  48.259  1.00  0.00     0.065 A 
BRANCH  15  17
HETATM   17  C   UNL     1      17.169  50.692  48.664  1.00  0.00     0.056 C 
HETATM   18  C   UNL     1      16.705  51.791  49.607  1.00  0.00     0.011 C 
ENDBRANCH  15  17
ENDBRANCH   8  11
ENDBRANCH   1   7
BRANCH   3  19
HETATM   19  N   UNL     1      26.488  45.995  51.138  1.00  0.00    -0.323 N 
HETATM   20  C   UNL     1      26.937  44.783  50.643  1.00  0.00     0.256 C 
HETATM   21  O   UNL     1      27.010  44.454  49.466  1.00  0.00    -0.267 OA
HETATM   22  H   UNL     1      26.509  46.123  52.140  1.00  0.00     0.169 HD
BRANCH  20  23
HETATM   23  C   UNL     1      27.351  43.784  51.670  1.00  0.00     0.032 A 
HETATM   24  C   UNL     1      27.412  44.208  53.005  1.00  0.00     0.017 A 
HETATM   25  C   UNL     1      27.803  43.320  54.008  1.00  0.00     0.001 A 
HETATM   26  C   UNL     1      28.127  42.004  53.684  1.00  0.00     0.000 A 
HETATM   27  C   UNL     1      28.049  41.570  52.360  1.00  0.00     0.001 A 
HETATM   28  C   UNL     1      27.655  42.455  51.352  1.00  0.00     0.017 A 
ENDBRANCH  20  23
ENDBRANCH   3  19
TORSDOF 5
ENDMDL
MODEL 9
REMARK VINA RESULT:      -7.9      1.923      9.826
REMARK  5 active torsions:
REMARK  status: ('A' for Active; 'I' for Inactive)
REMARK    1  A    between atoms: C_2  and  C_3 
REMARK    2  A    between atoms: C_7  and  C_8 
REMARK       I    between atoms: C_8  and  N_9 
REMARK    3  A    between atoms: N_9  and  C_10 
REMARK    4  A    between atoms: C_12  and  N_13 
REMARK       I    between atoms: N_13  and  C_14 
REMARK    5  A    between atoms: C_14  and  C_15 
ROOT
HETATM    1  C   UNL     1      24.935  48.203  49.608  1.00  0.00     0.037 A 
HETATM    2  C   UNL     1      23.570  48.519  49.615  1.00  0.00     0.059 A 
HETATM    3  C   UNL     1      23.069  49.567  48.832  1.00  0.00     0.037 A 
HETATM    4  C   UNL     1      23.954  50.303  48.035  1.00  0.00     0.029 A 
HETATM    5  C   UNL     1      25.318  50.015  48.040  1.00  0.00     0.004 A 
HETATM    6  C   UNL     1      25.806  48.972  48.828  1.00  0.00     0.029 A 
ENDROOT
BRANCH   1   7
HETATM    7  N   UNL     1      25.508  47.146  50.351  1.00  0.00    -0.322 N 
HETATM    8  C   UNL     1      25.445  45.793  50.082  1.00  0.00     0.274 C 
HETATM    9  O   UNL     1      24.920  45.284  49.099  1.00  0.00    -0.266 OA
HETATM   10  H   UNL     1      26.077  47.421  51.139  1.00  0.00     0.169 HD
BRANCH   8  11
HETATM   11  C   UNL     1      26.098  44.956  51.061  1.00  0.00     0.120 A 
HETATM   12  N   UNL     1      26.477  43.677  50.746  1.00  0.00    -0.273 N 
HETATM   13  N   UNL     1      27.071  43.016  51.751  1.00  0.00    -0.179 NA
HETATM   14  H   UNL     1      26.349  43.212  49.851  1.00  0.00     0.189 HD
HETATM   15  C   UNL     1      27.066  43.891  52.761  1.00  0.00     0.056 A 
HETATM   16  C   UNL     1      26.472  45.120  52.381  1.00  0.00     0.065 A 
BRANCH  15  17
HETATM   17  C   UNL     1      27.634  43.518  54.087  1.00  0.00     0.056 C 
HETATM   18  C   UNL     1      29.112  43.856  54.196  1.00  0.00     0.011 C 
ENDBRANCH  15  17
ENDBRANCH   8  11
ENDBRANCH   1   7
BRANCH   3  19
HETATM   19  N   UNL     1      21.703  49.924  48.768  1.00  0.00    -0.323 N 
HETATM   20  C   UNL     1      20.975  50.626  49.713  1.00  0.00     0.256 C 
HETATM   21  O   UNL     1      21.405  51.131  50.744  1.00  0.00    -0.267 OA
HETATM   22  H   UNL     1      21.205  49.587  47.957  1.00  0.00     0.169 HD
BRANCH  20  23
HETATM   23  C   UNL     1      19.515  50.751  49.437  1.00  0.00     0.032 A 
HETATM   24  C   UNL     1      18.865  51.912  49.876  1.00  0.00     0.017 A 
HETATM   25  C   UNL     1      17.497  52.080  49.655  1.00  0.00     0.001 A 
HETATM   26  C   UNL     1      16.774  51.092  48.988  1.00  0.00     0.000 A 
HETATM   27  C   UNL     1      17.420  49.942  48.530  1.00  0.00     0.001 A 
HETATM   28  C   UNL     1      18.790  49.771  48.746  1.00  0.00     0.017 A 
ENDBRANCH  20  23
ENDBRANCH   3  19
TORSDOF 5
ENDMDL
MODEL 10
REMARK VINA RESULT:      -7.8      4.551      7.060
REMARK  5 active torsions:
REMARK  status: ('A' for Active; 'I' for Inactive)
REMARK    1  A    between atoms: C_2  and  C_3 
REMARK    2  A    between atoms: C_7  and  C_8 
REMARK       I    between atoms: C_8  and  N_9 
REMARK    3  A    between atoms: N_9  and  C_10 
REMARK    4  A    between atoms: C_12  and  N_13 
REMARK       I    between atoms: N_13  and  C_14 
REMARK    5  A    between atoms: C_14  and  C_15 
ROOT
HETATM    1  C   UNL     1      26.513  43.752  50.464  1.00  0.00     0.037 A 
HETATM    2  C   UNL     1      27.464  43.822  51.491  1.00  0.00     0.059 A 
HETATM    3  C   UNL     1      27.183  44.494  52.688  1.00  0.00     0.037 A 
HETATM    4  C   UNL     1      25.932  45.101  52.850  1.00  0.00     0.029 A 
HETATM    5  C   UNL     1      24.988  45.060  51.825  1.00  0.00     0.004 A 
HETATM    6  C   UNL     1      25.280  44.392  50.635  1.00  0.00     0.029 A 
ENDROOT
BRANCH   1   7
HETATM    7  N   UNL     1      26.715  43.072  49.242  1.00  0.00    -0.322 N 
HETATM    8  C   UNL     1      26.615  41.716  49.003  1.00  0.00     0.274 C 
HETATM    9  O   UNL     1      26.269  40.871  49.819  1.00  0.00    -0.266 OA
HETATM   10  H   UNL     1      26.899  43.657  48.439  1.00  0.00     0.169 HD
BRANCH   8  11
HETATM   11  C   UNL     1      26.928  41.321  47.649  1.00  0.00     0.120 A 
HETATM   12  N   UNL     1      25.939  41.217  46.706  1.00  0.00    -0.273 N 
HETATM   13  N   UNL     1      26.374  40.841  45.493  1.00  0.00    -0.179 NA
HETATM   14  H   UNL     1      24.949  41.395  46.846  1.00  0.00     0.189 HD
HETATM   15  C   UNL     1      27.691  40.681  45.657  1.00  0.00     0.056 A 
HETATM   16  C   UNL     1      28.088  40.972  46.986  1.00  0.00     0.065 A 
BRANCH  15  17
HETATM   17  C   UNL     1      28.546  40.241  44.519  1.00  0.00     0.056 C 
HETATM   18  C   UNL     1      28.214  38.828  44.063  1.00  0.00     0.011 C 
ENDBRANCH  15  17
ENDBRANCH   8  11
ENDBRANCH   1   7
BRANCH   3  19
HETATM   19  N   UNL     1      28.082  44.582  53.776  1.00  0.00    -0.323 N 
HETATM   20  C   UNL     1      29.251  43.864  53.957  1.00  0.00     0.256 C 
HETATM   21  O   UNL     1      29.757  43.074  53.169  1.00  0.00    -0.267 OA
HETATM   22  H   UNL     1      27.806  45.213  54.514  1.00  0.00     0.169 HD
BRANCH  20  23
HETATM   23  C   UNL     1      29.938  44.075  55.264  1.00  0.00     0.032 A 
HETATM   24  C   UNL     1      29.623  45.234  55.987  1.00  0.00     0.017 A 
HETATM   25  C   UNL     1      30.241  45.490  57.211  1.00  0.00     0.001 A 
HETATM   26  C   UNL     1      31.171  44.586  57.723  1.00  0.00     0.000 A 
HETATM   27  C   UNL     1      31.474  43.420  57.018  1.00  0.00     0.001 A 
HETATM   28  C   UNL     1      30.855  43.158  55.793  1.00  0.00     0.017 A 
ENDBRANCH  20  23
ENDBRANCH   3  19
TORSDOF 5
ENDMDL
