MODEL 1
REMARK VINA RESULT:      -9.8      0.000      0.000
REMARK  7 active torsions:
REMARK  status: ('A' for Active; 'I' for Inactive)
REMARK    1  A    between atoms: C_2  and  O_3 
REMARK    2  A    between atoms: O_3  and  C_4 
REMARK    3  A    between atoms: C_5  and  C_6 
REMARK       I    between atoms: C_6  and  N_7 
REMARK    4  A    between atoms: N_7  and  C_8 
REMARK    5  A    between atoms: C_8  and  C_9 
REMARK    6  A    between atoms: C_9  and  N_10 
REMARK    7  A    between atoms: N_14  and  C_15 
ROOT
HETATM    1  C   UNL     1      26.519  44.608  52.975  1.00  0.00     0.255 C 
HETATM    2  N   UNL     1      26.524  45.428  51.867  1.00  0.00    -0.355 N 
HETATM    3  O   UNL     1      25.487  44.326  53.577  1.00  0.00    -0.268 OA
HETATM    4  H   UNL     1      27.432  45.646  51.460  1.00  0.00     0.162 HD
ENDROOT
BRANCH   2   5
HETATM    5  C   UNL     1      25.391  46.263  51.486  1.00  0.00     0.150 C 
BRANCH   5   6
HETATM    6  C   UNL     1      24.387  45.613  50.510  1.00  0.00     0.254 C 
BRANCH   6   7
HETATM    7  N   UNL     1      23.954  46.532  49.397  1.00  0.00    -0.067 N 
HETATM    8  H   UNL     1      24.537  46.289  48.569  1.00  0.00     0.280 HD
HETATM    9  C   UNL     1      22.523  46.316  48.908  1.00  0.00     0.254 C 
HETATM   10  C   UNL     1      22.230  47.238  47.703  1.00  0.00     0.150 C 
HETATM   11  N   UNL     1      22.470  48.651  48.059  1.00  0.00    -0.378 N 
HETATM   12  C   UNL     1      23.860  48.900  48.506  1.00  0.00     0.150 C 
HETATM   13  C   UNL     1      24.216  48.000  49.712  1.00  0.00     0.254 C 
BRANCH  11  14
HETATM   14  C   UNL     1      21.443  49.460  48.541  1.00  0.00     0.030 A 
HETATM   15  C   UNL     1      20.377  48.965  49.312  1.00  0.00     0.031 A 
HETATM   16  C   UNL     1      19.334  49.791  49.761  1.00  0.00     0.026 A 
HETATM   17  C   UNL     1      19.330  51.139  49.436  1.00  0.00     0.034 A 
HETATM   18 CL   UNL     1      18.052  52.151  49.978  1.00  0.00    -0.084 Cl
HETATM   19  C   UNL     1      20.354  51.663  48.661  1.00  0.00     0.026 A 
HETATM   20  C   UNL     1      21.388  50.828  48.216  1.00  0.00     0.031 A 
ENDBRANCH  11  14
ENDBRANCH   6   7
ENDBRANCH   5   6
ENDBRANCH   2   5
BRANCH   1  21
HETATM   21  C   UNL     1      27.831  44.063  53.381  1.00  0.00     0.076 A 
HETATM   22  C   UNL     1      28.360  42.997  52.629  1.00  0.00     0.085 A 
HETATM   23  C   UNL     1      29.614  42.495  52.969  1.00  0.00     0.039 A 
HETATM   24  C   UNL     1      30.315  43.027  54.056  1.00  0.00     0.015 A 
HETATM   25  C   UNL     1      29.780  44.066  54.830  1.00  0.00    -0.025 A 
HETATM   26  C   UNL     1      28.511  44.602  54.508  1.00  0.00    -0.007 A 
HETATM   27  C   UNL     1      30.498  44.570  55.926  1.00  0.00     0.012 A 
HETATM   28  C   UNL     1      27.999  45.627  55.344  1.00  0.00     0.013 A 
HETATM   29  C   UNL     1      28.724  46.116  56.433  1.00  0.00     0.001 A 
HETATM   30  C   UNL     1      29.977  45.590  56.720  1.00  0.00     0.001 A 
BRANCH  22  31
HETATM   31  O   UNL     1      27.625  42.549  51.560  1.00  0.00    -0.350 OA
BRANCH  31  32
HETATM   32  C   UNL     1      27.692  41.144  51.299  1.00  0.00     0.171 C 
HETATM   33  C   UNL     1      26.341  40.706  50.764  1.00  0.00     0.034 C 
ENDBRANCH  31  32
ENDBRANCH  22  31
ENDBRANCH   1  21
TORSDOF 7
ENDMDL
MODEL 2
REMARK VINA RESULT:      -9.7      3.946     10.032
REMARK  7 active torsions:
REMARK  status: ('A' for Active; 'I' for Inactive)
REMARK    1  A    between atoms: C_2  and  O_3 
REMARK    2  A    between atoms: O_3  and  C_4 
REMARK    3  A    between atoms: C_5  and  C_6 
REMARK       I    between atoms: C_6  and  N_7 
REMARK    4  A    between atoms: N_7  and  C_8 
REMARK    5  A    between atoms: C_8  and  C_9 
REMARK    6  A    between atoms: C_9  and  N_10 
REMARK    7  A    between atoms: N_14  and  C_15 
ROOT
HETATM    1  C   UNL     1      22.400  47.477  48.293  1.00  0.00     0.255 C 
HETATM    2  N   UNL     1      23.122  46.898  49.316  1.00  0.00    -0.355 N 
HETATM    3  O   UNL     1      22.076  46.855  47.285  1.00  0.00    -0.268 OA
HETATM    4  H   UNL     1      23.386  47.502  50.092  1.00  0.00     0.162 HD
ENDROOT
BRANCH   2   5
HETATM    5  C   UNL     1      23.814  45.622  49.181  1.00  0.00     0.150 C 
BRANCH   5   6
HETATM    6  C   UNL     1      25.195  45.541  49.865  1.00  0.00     0.254 C 
BRANCH   6   7
HETATM    7  N   UNL     1      25.136  45.737  51.358  1.00  0.00    -0.067 N 
HETATM    8  H   UNL     1      24.173  46.073  51.574  1.00  0.00     0.280 HD
HETATM    9  C   UNL     1      25.264  44.455  52.178  1.00  0.00     0.254 C 
HETATM   10  C   UNL     1      25.083  44.766  53.681  1.00  0.00     0.150 C 
HETATM   11  N   UNL     1      26.055  45.787  54.121  1.00  0.00    -0.378 N 
HETATM   12  C   UNL     1      25.934  47.055  53.366  1.00  0.00     0.150 C 
HETATM   13  C   UNL     1      26.102  46.808  51.850  1.00  0.00     0.254 C 
BRANCH  11  14
HETATM   14  C   UNL     1      27.290  45.426  54.655  1.00  0.00     0.030 A 
HETATM   15  C   UNL     1      27.993  46.229  55.571  1.00  0.00     0.031 A 
HETATM   16  C   UNL     1      29.251  45.862  56.072  1.00  0.00     0.026 A 
HETATM   17  C   UNL     1      29.844  44.678  55.657  1.00  0.00     0.034 A 
HETATM   18 CL   UNL     1      31.387  44.230  56.264  1.00  0.00    -0.084 Cl
HETATM   19  C   UNL     1      29.191  43.867  54.741  1.00  0.00     0.026 A 
HETATM   20  C   UNL     1      27.936  44.245  54.245  1.00  0.00     0.031 A 
ENDBRANCH  11  14
ENDBRANCH   6   7
ENDBRANCH   5   6
ENDBRANCH   2   5
BRANCH   1  21
HETATM   21  C   UNL     1      22.013  48.889  48.496  1.00  0.00     0.076 A 
HETATM   22  C   UNL     1      22.933  49.883  48.114  1.00  0.00     0.085 A 
HETATM   23  C   UNL     1      22.573  51.221  48.259  1.00  0.00     0.039 A 
HETATM   24  C   UNL     1      21.329  51.560  48.802  1.00  0.00     0.015 A 
HETATM   25  C   UNL     1      20.421  50.575  49.215  1.00  0.00    -0.025 A 
HETATM   26  C   UNL     1      20.754  49.208  49.076  1.00  0.00    -0.007 A 
HETATM   27  C   UNL     1      19.186  50.944  49.772  1.00  0.00     0.012 A 
HETATM   28  C   UNL     1      19.816  48.252  49.544  1.00  0.00     0.013 A 
HETATM   29  C   UNL     1      18.593  48.635  50.098  1.00  0.00     0.001 A 
HETATM   30  C   UNL     1      18.276  49.982  50.207  1.00  0.00     0.001 A 
BRANCH  22  31
HETATM   31  O   UNL     1      24.120  49.470  47.563  1.00  0.00    -0.350 OA
BRANCH  31  32
HETATM   32  C   UNL     1      25.282  50.209  47.955  1.00  0.00     0.171 C 
HETATM   33  C   UNL     1      26.210  49.259  48.690  1.00  0.00     0.034 C 
ENDBRANCH  31  32
ENDBRANCH  22  31
ENDBRANCH   1  21
TORSDOF 7
ENDMDL
MODEL 3
REMARK VINA RESULT:      -9.6      1.552      2.251
REMARK  7 active torsions:
REMARK  status: ('A' for Active; 'I' for Inactive)
REMARK    1  A    between atoms: C_2  and  O_3 
REMARK    2  A    between atoms: O_3  and  C_4 
REMARK    3  A    between atoms: C_5  and  C_6 
REMARK       I    between atoms: C_6  and  N_7 
REMARK    4  A    between atoms: N_7  and  C_8 
REMARK    5  A    between atoms: C_8  and  C_9 
REMARK    6  A    between atoms: C_9  and  N_10 
REMARK    7  A    between atoms: N_14  and  C_15 
ROOT
HETATM    1  C   UNL     1      27.750  45.618  54.451  1.00  0.00     0.255 C 
HETATM    2  N   UNL     1      26.539  44.964  54.356  1.00  0.00    -0.355 N 
HETATM    3  O   UNL     1      27.856  46.829  54.287  1.00  0.00    -0.268 OA
HETATM    4  H   UNL     1      26.553  43.951  54.461  1.00  0.00     0.162 HD
ENDROOT
BRANCH   2   5
HETATM    5  C   UNL     1      25.349  45.571  53.773  1.00  0.00     0.150 C 
BRANCH   5   6
HETATM    6  C   UNL     1      24.760  44.833  52.551  1.00  0.00     0.254 C 
BRANCH   6   7
HETATM    7  N   UNL     1      24.971  45.565  51.251  1.00  0.00    -0.067 N 
HETATM    8  H   UNL     1      25.788  45.115  50.788  1.00  0.00     0.280 HD
HETATM    9  C   UNL     1      23.842  45.402  50.234  1.00  0.00     0.254 C 
HETATM   10  C   UNL     1      24.217  46.105  48.910  1.00  0.00     0.150 C 
HETATM   11  N   UNL     1      24.527  47.529  49.147  1.00  0.00    -0.378 N 
HETATM   12  C   UNL     1      25.639  47.721  50.105  1.00  0.00     0.150 C 
HETATM   13  C   UNL     1      25.324  47.033  51.454  1.00  0.00     0.254 C 
BRANCH  11  14
HETATM   14  C   UNL     1      23.543  48.510  49.038  1.00  0.00     0.030 A 
HETATM   15  C   UNL     1      22.167  48.220  49.047  1.00  0.00     0.031 A 
HETATM   16  C   UNL     1      21.193  49.219  48.903  1.00  0.00     0.026 A 
HETATM   17  C   UNL     1      21.577  50.542  48.735  1.00  0.00     0.034 A 
HETATM   18 CL   UNL     1      20.386  51.766  48.552  1.00  0.00    -0.084 Cl
HETATM   19  C   UNL     1      22.924  50.867  48.702  1.00  0.00     0.026 A 
HETATM   20  C   UNL     1      23.889  49.861  48.843  1.00  0.00     0.031 A 
ENDBRANCH  11  14
ENDBRANCH   6   7
ENDBRANCH   5   6
ENDBRANCH   2   5
BRANCH   1  21
HETATM   21  C   UNL     1      28.914  44.773  54.792  1.00  0.00     0.076 A 
HETATM   22  C   UNL     1      29.312  43.797  53.860  1.00  0.00     0.085 A 
HETATM   23  C   UNL     1      30.431  43.016  54.144  1.00  0.00     0.039 A 
HETATM   24  C   UNL     1      31.122  43.187  55.347  1.00  0.00     0.015 A 
HETATM   25  C   UNL     1      30.711  44.135  56.296  1.00  0.00    -0.025 A 
HETATM   26  C   UNL     1      29.582  44.947  56.036  1.00  0.00    -0.007 A 
HETATM   27  C   UNL     1      31.413  44.274  57.503  1.00  0.00     0.012 A 
HETATM   28  C   UNL     1      29.187  45.864  57.043  1.00  0.00     0.013 A 
HETATM   29  C   UNL     1      29.894  45.988  58.240  1.00  0.00     0.001 A 
HETATM   30  C   UNL     1      31.012  45.196  58.467  1.00  0.00     0.001 A 
BRANCH  22  31
HETATM   31  O   UNL     1      28.600  43.709  52.690  1.00  0.00    -0.350 OA
BRANCH  31  32
HETATM   32  C   UNL     1      28.321  42.386  52.224  1.00  0.00     0.171 C 
HETATM   33  C   UNL     1      27.277  42.489  51.128  1.00  0.00     0.034 C 
ENDBRANCH  31  32
ENDBRANCH  22  31
ENDBRANCH   1  21
TORSDOF 7
ENDMDL
MODEL 4
REMARK VINA RESULT:      -9.2      5.561      9.218
REMARK  7 active torsions:
REMARK  status: ('A' for Active; 'I' for Inactive)
REMARK    1  A    between atoms: C_2  and  O_3 
REMARK    2  A    between atoms: O_3  and  C_4 
REMARK    3  A    between atoms: C_5  and  C_6 
REMARK       I    between atoms: C_6  and  N_7 
REMARK    4  A    between atoms: N_7  and  C_8 
REMARK    5  A    between atoms: C_8  and  C_9 
REMARK    6  A    between atoms: C_9  and  N_10 
REMARK    7  A    between atoms: N_14  and  C_15 
ROOT
HETATM    1  C   UNL     1      29.121  43.236  53.452  1.00  0.00     0.255 C 
HETATM    2  N   UNL     1      28.190  42.220  53.514  1.00  0.00    -0.355 N 
HETATM    3  O   UNL     1      29.994  43.273  52.590  1.00  0.00    -0.268 OA
HETATM    4  H   UNL     1      27.531  42.246  54.290  1.00  0.00     0.162 HD
ENDROOT
BRANCH   2   5
HETATM    5  C   UNL     1      28.324  40.969  52.778  1.00  0.00     0.150 C 
BRANCH   5   6
HETATM    6  C   UNL     1      27.613  40.925  51.409  1.00  0.00     0.254 C 
BRANCH   6   7
HETATM    7  N   UNL     1      27.722  39.588  50.721  1.00  0.00    -0.067 N 
HETATM    8  H   UNL     1      27.621  38.864  51.464  1.00  0.00     0.280 HD
HETATM    9  C   UNL     1      26.584  39.272  49.751  1.00  0.00     0.254 C 
HETATM   10  C   UNL     1      26.747  37.841  49.192  1.00  0.00     0.150 C 
HETATM   11  N   UNL     1      28.065  37.683  48.545  1.00  0.00    -0.378 N 
HETATM   12  C   UNL     1      29.191  37.951  49.469  1.00  0.00     0.150 C 
HETATM   13  C   UNL     1      29.081  39.372  50.068  1.00  0.00     0.254 C 
BRANCH  11  14
HETATM   14  C   UNL     1      28.233  37.910  47.181  1.00  0.00     0.030 A 
HETATM   15  C   UNL     1      28.762  36.947  46.303  1.00  0.00     0.031 A 
HETATM   16  C   UNL     1      28.953  37.208  44.938  1.00  0.00     0.026 A 
HETATM   17  C   UNL     1      28.625  38.452  44.417  1.00  0.00     0.034 A 
HETATM   18 CL   UNL     1      28.864  38.775  42.747  1.00  0.00    -0.084 Cl
HETATM   19  C   UNL     1      28.118  39.434  45.253  1.00  0.00     0.026 A 
HETATM   20  C   UNL     1      27.934  39.164  46.616  1.00  0.00     0.031 A 
ENDBRANCH  11  14
ENDBRANCH   6   7
ENDBRANCH   5   6
ENDBRANCH   2   5
BRANCH   1  21
HETATM   21  C   UNL     1      28.985  44.297  54.471  1.00  0.00     0.076 A 
HETATM   22  C   UNL     1      28.005  45.285  54.264  1.00  0.00     0.085 A 
HETATM   23  C   UNL     1      27.833  46.273  55.232  1.00  0.00     0.039 A 
HETATM   24  C   UNL     1      28.644  46.290  56.371  1.00  0.00     0.015 A 
HETATM   25  C   UNL     1      29.645  45.328  56.568  1.00  0.00    -0.025 A 
HETATM   26  C   UNL     1      29.842  44.309  55.607  1.00  0.00    -0.007 A 
HETATM   27  C   UNL     1      30.456  45.379  57.714  1.00  0.00     0.012 A 
HETATM   28  C   UNL     1      30.891  43.383  55.836  1.00  0.00     0.013 A 
HETATM   29  C   UNL     1      31.691  43.449  56.979  1.00  0.00     0.001 A 
HETATM   30  C   UNL     1      31.469  44.445  57.921  1.00  0.00     0.001 A 
BRANCH  22  31
HETATM   31  O   UNL     1      27.231  45.183  53.135  1.00  0.00    -0.350 OA
BRANCH  31  32
HETATM   32  C   UNL     1      26.192  46.158  52.999  1.00  0.00     0.171 C 
HETATM   33  C   UNL     1      26.020  46.450  51.520  1.00  0.00     0.034 C 
ENDBRANCH  31  32
ENDBRANCH  22  31
ENDBRANCH   1  21
TORSDOF 7
ENDMDL
MODEL 5
REMARK VINA RESULT:      -9.2      3.831     10.015
REMARK  7 active torsions:
REMARK  status: ('A' for Active; 'I' for Inactive)
REMARK    1  A    between atoms: C_2  and  O_3 
REMARK    2  A    between atoms: O_3  and  C_4 
REMARK    3  A    between atoms: C_5  and  C_6 
REMARK       I    between atoms: C_6  and  N_7 
REMARK    4  A    between atoms: N_7  and  C_8 
REMARK    5  A    between atoms: C_8  and  C_9 
REMARK    6  A    between atoms: C_9  and  N_10 
REMARK    7  A    between atoms: N_14  and  C_15 
ROOT
HETATM    1  C   UNL     1      22.822  48.207  48.805  1.00  0.00     0.255 C 
HETATM    2  N   UNL     1      23.536  47.581  49.806  1.00  0.00    -0.355 N 
HETATM    3  O   UNL     1      23.368  48.859  47.921  1.00  0.00    -0.268 OA
HETATM    4  H   UNL     1      22.996  47.101  50.525  1.00  0.00     0.162 HD
ENDROOT
BRANCH   2   5
HETATM    5  C   UNL     1      24.937  47.868  50.086  1.00  0.00     0.150 C 
BRANCH   5   6
HETATM    6  C   UNL     1      25.909  46.685  49.888  1.00  0.00     0.254 C 
BRANCH   6   7
HETATM    7  N   UNL     1      25.802  45.636  50.965  1.00  0.00    -0.067 N 
HETATM    8  H   UNL     1      24.861  45.202  50.861  1.00  0.00     0.280 HD
HETATM    9  C   UNL     1      26.763  44.459  50.809  1.00  0.00     0.254 C 
HETATM   10  C   UNL     1      26.489  43.403  51.904  1.00  0.00     0.150 C 
HETATM   11  N   UNL     1      26.592  44.009  53.247  1.00  0.00    -0.378 N 
HETATM   12  C   UNL     1      25.649  45.134  53.441  1.00  0.00     0.150 C 
HETATM   13  C   UNL     1      25.871  46.225  52.368  1.00  0.00     0.254 C 
BRANCH  11  14
HETATM   14  C   UNL     1      27.791  43.994  53.957  1.00  0.00     0.030 A 
HETATM   15  C   UNL     1      28.679  42.904  53.936  1.00  0.00     0.031 A 
HETATM   16  C   UNL     1      29.866  42.895  54.685  1.00  0.00     0.026 A 
HETATM   17  C   UNL     1      30.189  43.982  55.485  1.00  0.00     0.034 A 
HETATM   18 CL   UNL     1      31.638  43.970  56.406  1.00  0.00    -0.084 Cl
HETATM   19  C   UNL     1      29.330  45.068  55.547  1.00  0.00     0.026 A 
HETATM   20  C   UNL     1      28.146  45.065  54.798  1.00  0.00     0.031 A 
ENDBRANCH  11  14
ENDBRANCH   6   7
ENDBRANCH   5   6
ENDBRANCH   2   5
BRANCH   1  21
HETATM   21  C   UNL     1      21.357  48.020  48.845  1.00  0.00     0.076 A 
HETATM   22  C   UNL     1      20.846  46.756  48.498  1.00  0.00     0.085 A 
HETATM   23  C   UNL     1      19.470  46.546  48.567  1.00  0.00     0.039 A 
HETATM   24  C   UNL     1      18.618  47.587  48.949  1.00  0.00     0.015 A 
HETATM   25  C   UNL     1      19.117  48.859  49.265  1.00  0.00    -0.025 A 
HETATM   26  C   UNL     1      20.509  49.103  49.209  1.00  0.00    -0.007 A 
HETATM   27  C   UNL     1      18.236  49.891  49.629  1.00  0.00     0.012 A 
HETATM   28  C   UNL     1      20.958  50.416  49.502  1.00  0.00     0.013 A 
HETATM   29  C   UNL     1      20.070  51.432  49.860  1.00  0.00     0.001 A 
HETATM   30  C   UNL     1      18.708  51.167  49.929  1.00  0.00     0.001 A 
BRANCH  22  31
HETATM   31  O   UNL     1      21.748  45.778  48.162  1.00  0.00    -0.350 OA
BRANCH  31  32
HETATM   32  C   UNL     1      21.685  44.576  48.935  1.00  0.00     0.171 C 
HETATM   33  C   UNL     1      23.097  44.036  49.070  1.00  0.00     0.034 C 
ENDBRANCH  31  32
ENDBRANCH  22  31
ENDBRANCH   1  21
TORSDOF 7
ENDMDL
MODEL 6
REMARK VINA RESULT:      -9.1      5.476      9.423
REMARK  7 active torsions:
REMARK  status: ('A' for Active; 'I' for Inactive)
REMARK    1  A    between atoms: C_2  and  O_3 
REMARK    2  A    between atoms: O_3  and  C_4 
REMARK    3  A    between atoms: C_5  and  C_6 
REMARK       I    between atoms: C_6  and  N_7 
REMARK    4  A    between atoms: N_7  and  C_8 
REMARK    5  A    between atoms: C_8  and  C_9 
REMARK    6  A    between atoms: C_9  and  N_10 
REMARK    7  A    between atoms: N_14  and  C_15 
ROOT
HETATM    1  C   UNL     1      28.743  43.389  53.267  1.00  0.00     0.255 C 
HETATM    2  N   UNL     1      27.665  42.529  53.321  1.00  0.00    -0.355 N 
HETATM    3  O   UNL     1      29.577  43.340  52.368  1.00  0.00    -0.268 OA
HETATM    4  H   UNL     1      27.051  42.612  54.129  1.00  0.00     0.162 HD
ENDROOT
BRANCH   2   5
HETATM    5  C   UNL     1      27.570  41.319  52.515  1.00  0.00     0.150 C 
BRANCH   5   6
HETATM    6  C   UNL     1      28.791  40.376  52.587  1.00  0.00     0.254 C 
BRANCH   6   7
HETATM    7  N   UNL     1      29.253  39.891  51.237  1.00  0.00    -0.067 N 
HETATM    8  H   UNL     1      30.189  40.320  51.074  1.00  0.00     0.280 HD
HETATM    9  C   UNL     1      29.524  38.390  51.154  1.00  0.00     0.254 C 
HETATM   10  C   UNL     1      30.092  38.030  49.763  1.00  0.00     0.150 C 
HETATM   11  N   UNL     1      29.170  38.471  48.696  1.00  0.00    -0.378 N 
HETATM   12  C   UNL     1      28.912  39.929  48.730  1.00  0.00     0.150 C 
HETATM   13  C   UNL     1      28.346  40.353  50.104  1.00  0.00     0.254 C 
BRANCH  11  14
HETATM   14  C   UNL     1      28.195  37.617  48.185  1.00  0.00     0.030 A 
HETATM   15  C   UNL     1      28.108  37.282  46.822  1.00  0.00     0.031 A 
HETATM   16  C   UNL     1      27.098  36.446  46.323  1.00  0.00     0.026 A 
HETATM   17  C   UNL     1      26.139  35.929  47.181  1.00  0.00     0.034 A 
HETATM   18 CL   UNL     1      24.898  34.910  46.571  1.00  0.00    -0.084 Cl
HETATM   19  C   UNL     1      26.179  36.250  48.529  1.00  0.00     0.026 A 
HETATM   20  C   UNL     1      27.190  37.089  49.017  1.00  0.00     0.031 A 
ENDBRANCH  11  14
ENDBRANCH   6   7
ENDBRANCH   5   6
ENDBRANCH   2   5
BRANCH   1  21
HETATM   21  C   UNL     1      28.818  44.396  54.346  1.00  0.00     0.076 A 
HETATM   22  C   UNL     1      27.965  45.511  54.264  1.00  0.00     0.085 A 
HETATM   23  C   UNL     1      27.991  46.453  55.292  1.00  0.00     0.039 A 
HETATM   24  C   UNL     1      28.873  46.297  56.366  1.00  0.00     0.015 A 
HETATM   25  C   UNL     1      29.749  45.205  56.438  1.00  0.00    -0.025 A 
HETATM   26  C   UNL     1      29.744  44.230  55.414  1.00  0.00    -0.007 A 
HETATM   27  C   UNL     1      30.635  45.083  57.521  1.00  0.00     0.012 A 
HETATM   28  C   UNL     1      30.675  43.165  55.517  1.00  0.00     0.013 A 
HETATM   29  C   UNL     1      31.552  43.059  56.598  1.00  0.00     0.001 A 
HETATM   30  C   UNL     1      31.528  44.016  57.603  1.00  0.00     0.001 A 
BRANCH  22  31
HETATM   31  O   UNL     1      27.109  45.578  53.194  1.00  0.00    -0.350 OA
BRANCH  31  32
HETATM   32  C   UNL     1      25.782  46.029  53.480  1.00  0.00     0.171 C 
HETATM   33  C   UNL     1      25.453  47.150  52.512  1.00  0.00     0.034 C 
ENDBRANCH  31  32
ENDBRANCH  22  31
ENDBRANCH   1  21
TORSDOF 7
ENDMDL
MODEL 7
REMARK VINA RESULT:      -8.6      1.463      1.985
REMARK  7 active torsions:
REMARK  status: ('A' for Active; 'I' for Inactive)
REMARK    1  A    between atoms: C_2  and  O_3 
REMARK    2  A    between atoms: O_3  and  C_4 
REMARK    3  A    between atoms: C_5  and  C_6 
REMARK       I    between atoms: C_6  and  N_7 
REMARK    4  A    between atoms: N_7  and  C_8 
REMARK    5  A    between atoms: C_8  and  C_9 
REMARK    6  A    between atoms: C_9  and  N_10 
REMARK    7  A    between atoms: N_14  and  C_15 
ROOT
HETATM    1  C   UNL     1      26.189  43.699  51.340  1.00  0.00     0.255 C 
HETATM    2  N   UNL     1      24.979  43.040  51.412  1.00  0.00    -0.355 N 
HETATM    3  O   UNL     1      26.461  44.471  50.426  1.00  0.00    -0.268 OA
HETATM    4  H   UNL     1      24.858  42.383  52.181  1.00  0.00     0.162 HD
ENDROOT
BRANCH   2   5
HETATM    5  C   UNL     1      24.049  42.956  50.294  1.00  0.00     0.150 C 
BRANCH   5   6
HETATM    6  C   UNL     1      22.875  43.959  50.330  1.00  0.00     0.254 C 
BRANCH   6   7
HETATM    7  N   UNL     1      22.998  45.060  49.309  1.00  0.00    -0.067 N 
HETATM    8  H   UNL     1      23.672  44.722  48.589  1.00  0.00     0.280 HD
HETATM    9  C   UNL     1      21.725  45.338  48.511  1.00  0.00     0.254 C 
HETATM   10  C   UNL     1      22.001  46.406  47.429  1.00  0.00     0.150 C 
HETATM   11  N   UNL     1      22.533  47.640  48.040  1.00  0.00    -0.378 N 
HETATM   12  C   UNL     1      23.786  47.410  48.795  1.00  0.00     0.150 C 
HETATM   13  C   UNL     1      23.575  46.343  49.894  1.00  0.00     0.254 C 
BRANCH  11  14
HETATM   14  C   UNL     1      21.688  48.680  48.422  1.00  0.00     0.030 A 
HETATM   15  C   UNL     1      21.962  50.031  48.143  1.00  0.00     0.031 A 
HETATM   16  C   UNL     1      21.113  51.066  48.565  1.00  0.00     0.026 A 
HETATM   17  C   UNL     1      19.967  50.772  49.289  1.00  0.00     0.034 A 
HETATM   18 CL   UNL     1      18.931  52.037  49.811  1.00  0.00    -0.084 Cl
HETATM   19  C   UNL     1      19.671  49.453  49.600  1.00  0.00     0.026 A 
HETATM   20  C   UNL     1      20.528  48.428  49.177  1.00  0.00     0.031 A 
ENDBRANCH  11  14
ENDBRANCH   6   7
ENDBRANCH   5   6
ENDBRANCH   2   5
BRANCH   1  21
HETATM   21  C   UNL     1      27.130  43.442  52.450  1.00  0.00     0.076 A 
HETATM   22  C   UNL     1      27.675  42.150  52.563  1.00  0.00     0.085 A 
HETATM   23  C   UNL     1      28.595  41.897  53.578  1.00  0.00     0.039 A 
HETATM   24  C   UNL     1      28.944  42.907  54.480  1.00  0.00     0.015 A 
HETATM   25  C   UNL     1      28.380  44.188  54.394  1.00  0.00    -0.025 A 
HETATM   26  C   UNL     1      27.447  44.479  53.372  1.00  0.00    -0.007 A 
HETATM   27  C   UNL     1      28.736  45.179  55.323  1.00  0.00     0.012 A 
HETATM   28  C   UNL     1      26.879  45.779  53.351  1.00  0.00     0.013 A 
HETATM   29  C   UNL     1      27.241  46.752  54.284  1.00  0.00     0.001 A 
HETATM   30  C   UNL     1      28.174  46.453  55.267  1.00  0.00     0.001 A 
BRANCH  22  31
HETATM   31  O   UNL     1      27.305  41.221  51.623  1.00  0.00    -0.350 OA
BRANCH  31  32
HETATM   32  C   UNL     1      28.355  40.722  50.789  1.00  0.00     0.171 C 
HETATM   33  C   UNL     1      27.886  40.809  49.349  1.00  0.00     0.034 C 
ENDBRANCH  31  32
ENDBRANCH  22  31
ENDBRANCH   1  21
TORSDOF 7
ENDMDL
MODEL 8
REMARK VINA RESULT:      -8.4      5.775      9.193
REMARK  7 active torsions:
REMARK  status: ('A' for Active; 'I' for Inactive)
REMARK    1  A    between atoms: C_2  and  O_3 
REMARK    2  A    between atoms: O_3  and  C_4 
REMARK    3  A    between atoms: C_5  and  C_6 
REMARK       I    between atoms: C_6  and  N_7 
REMARK    4  A    between atoms: N_7  and  C_8 
REMARK    5  A    between atoms: C_8  and  C_9 
REMARK    6  A    between atoms: C_9  and  N_10 
REMARK    7  A    between atoms: N_14  and  C_15 
ROOT
HETATM    1  C   UNL     1      27.615  42.148  53.024  1.00  0.00     0.255 C 
HETATM    2  N   UNL     1      27.552  42.138  51.646  1.00  0.00    -0.355 N 
HETATM    3  O   UNL     1      27.634  41.115  53.686  1.00  0.00    -0.268 OA
HETATM    4  H   UNL     1      27.493  43.043  51.182  1.00  0.00     0.162 HD
ENDROOT
BRANCH   2   5
HETATM    5  C   UNL     1      27.206  40.953  50.871  1.00  0.00     0.150 C 
BRANCH   5   6
HETATM    6  C   UNL     1      28.233  40.542  49.794  1.00  0.00     0.254 C 
BRANCH   6   7
HETATM    7  N   UNL     1      27.598  40.075  48.510  1.00  0.00    -0.067 N 
HETATM    8  H   UNL     1      26.588  39.921  48.718  1.00  0.00     0.280 HD
HETATM    9  C   UNL     1      27.582  41.113  47.389  1.00  0.00     0.254 C 
HETATM   10  C   UNL     1      26.816  40.560  46.166  1.00  0.00     0.150 C 
HETATM   11  N   UNL     1      27.410  39.286  45.713  1.00  0.00    -0.378 N 
HETATM   12  C   UNL     1      27.411  38.248  46.768  1.00  0.00     0.150 C 
HETATM   13  C   UNL     1      28.161  38.745  48.025  1.00  0.00     0.254 C 
BRANCH  11  14
HETATM   14  C   UNL     1      28.395  39.259  44.728  1.00  0.00     0.030 A 
HETATM   15  C   UNL     1      28.793  40.401  44.010  1.00  0.00     0.031 A 
HETATM   16  C   UNL     1      29.765  40.345  42.999  1.00  0.00     0.026 A 
HETATM   17  C   UNL     1      30.357  39.134  42.673  1.00  0.00     0.034 A 
HETATM   18 CL   UNL     1      31.542  39.062  41.431  1.00  0.00    -0.084 Cl
HETATM   19  C   UNL     1      29.979  37.981  43.344  1.00  0.00     0.026 A 
HETATM   20  C   UNL     1      29.005  38.048  44.350  1.00  0.00     0.031 A 
ENDBRANCH  11  14
ENDBRANCH   6   7
ENDBRANCH   5   6
ENDBRANCH   2   5
BRANCH   1  21
HETATM   21  C   UNL     1      27.688  43.481  53.657  1.00  0.00     0.076 A 
HETATM   22  C   UNL     1      26.660  44.399  53.375  1.00  0.00     0.085 A 
HETATM   23  C   UNL     1      26.688  45.648  53.992  1.00  0.00     0.039 A 
HETATM   24  C   UNL     1      27.738  45.984  54.853  1.00  0.00     0.015 A 
HETATM   25  C   UNL     1      28.783  45.086  55.113  1.00  0.00    -0.025 A 
HETATM   26  C   UNL     1      28.781  43.809  54.506  1.00  0.00    -0.007 A 
HETATM   27  C   UNL     1      29.833  45.456  55.969  1.00  0.00     0.012 A 
HETATM   28  C   UNL     1      29.881  42.953  54.774  1.00  0.00     0.013 A 
HETATM   29  C   UNL     1      30.918  43.336  55.625  1.00  0.00     0.001 A 
HETATM   30  C   UNL     1      30.891  44.587  56.227  1.00  0.00     0.001 A 
BRANCH  22  31
HETATM   31  O   UNL     1      25.651  43.985  52.542  1.00  0.00    -0.350 OA
BRANCH  31  32
HETATM   32  C   UNL     1      25.021  45.008  51.765  1.00  0.00     0.171 C 
HETATM   33  C   UNL     1      25.247  44.683  50.300  1.00  0.00     0.034 C 
ENDBRANCH  31  32
ENDBRANCH  22  31
ENDBRANCH   1  21
TORSDOF 7
ENDMDL
MODEL 9
REMARK VINA RESULT:      -8.3      2.515      4.109
REMARK  7 active torsions:
REMARK  status: ('A' for Active; 'I' for Inactive)
REMARK    1  A    between atoms: C_2  and  O_3 
REMARK    2  A    between atoms: O_3  and  C_4 
REMARK    3  A    between atoms: C_5  and  C_6 
REMARK       I    between atoms: C_6  and  N_7 
REMARK    4  A    between atoms: N_7  and  C_8 
REMARK    5  A    between atoms: C_8  and  C_9 
REMARK    6  A    between atoms: C_9  and  N_10 
REMARK    7  A    between atoms: N_14  and  C_15 
ROOT
HETATM    1  C   UNL     1      25.514  47.002  50.310  1.00  0.00     0.255 C 
HETATM    2  N   UNL     1      24.158  47.251  50.289  1.00  0.00    -0.355 N 
HETATM    3  O   UNL     1      26.324  47.736  49.751  1.00  0.00    -0.268 OA
HETATM    4  H   UNL     1      23.557  46.563  50.739  1.00  0.00     0.162 HD
ENDROOT
BRANCH   2   5
HETATM    5  C   UNL     1      23.536  48.206  49.380  1.00  0.00     0.150 C 
BRANCH   5   6
HETATM    6  C   UNL     1      22.072  47.900  48.996  1.00  0.00     0.254 C 
BRANCH   6   7
HETATM    7  N   UNL     1      21.073  48.791  49.690  1.00  0.00    -0.067 N 
HETATM    8  H   UNL     1      21.323  48.781  50.702  1.00  0.00     0.280 HD
HETATM    9  C   UNL     1      21.160  50.268  49.310  1.00  0.00     0.254 C 
HETATM   10  C   UNL     1      20.166  51.092  50.159  1.00  0.00     0.150 C 
HETATM   11  N   UNL     1      18.792  50.574  50.000  1.00  0.00    -0.378 N 
HETATM   12  C   UNL     1      18.668  49.152  50.391  1.00  0.00     0.150 C 
HETATM   13  C   UNL     1      19.645  48.273  49.577  1.00  0.00     0.254 C 
BRANCH  11  14
HETATM   14  C   UNL     1      17.931  51.093  49.035  1.00  0.00     0.030 A 
HETATM   15  C   UNL     1      18.350  51.429  47.735  1.00  0.00     0.031 A 
HETATM   16  C   UNL     1      17.474  51.982  46.789  1.00  0.00     0.026 A 
HETATM   17  C   UNL     1      16.150  52.222  47.127  1.00  0.00     0.034 A 
HETATM   18 CL   UNL     1      15.077  52.904  45.972  1.00  0.00    -0.084 Cl
HETATM   19  C   UNL     1      15.702  51.922  48.405  1.00  0.00     0.026 A 
HETATM   20  C   UNL     1      16.587  51.374  49.343  1.00  0.00     0.031 A 
ENDBRANCH  11  14
ENDBRANCH   6   7
ENDBRANCH   5   6
ENDBRANCH   2   5
BRANCH   1  21
HETATM   21  C   UNL     1      25.939  45.810  51.072  1.00  0.00     0.076 A 
HETATM   22  C   UNL     1      25.853  44.558  50.436  1.00  0.00     0.085 A 
HETATM   23  C   UNL     1      26.286  43.426  51.123  1.00  0.00     0.039 A 
HETATM   24  C   UNL     1      26.770  43.538  52.430  1.00  0.00     0.015 A 
HETATM   25  C   UNL     1      26.827  44.777  53.083  1.00  0.00    -0.025 A 
HETATM   26  C   UNL     1      26.400  45.946  52.412  1.00  0.00    -0.007 A 
HETATM   27  C   UNL     1      27.301  44.858  54.402  1.00  0.00     0.012 A 
HETATM   28  C   UNL     1      26.444  47.169  53.129  1.00  0.00     0.013 A 
HETATM   29  C   UNL     1      26.916  47.233  54.442  1.00  0.00     0.001 A 
HETATM   30  C   UNL     1      27.350  46.076  55.076  1.00  0.00     0.001 A 
BRANCH  22  31
HETATM   31  O   UNL     1      25.395  44.535  49.142  1.00  0.00    -0.350 OA
BRANCH  31  32
HETATM   32  C   UNL     1      24.443  43.512  48.834  1.00  0.00     0.171 C 
HETATM   33  C   UNL     1      23.110  44.184  48.564  1.00  0.00     0.034 C 
ENDBRANCH  31  32
ENDBRANCH  22  31
ENDBRANCH   1  21
TORSDOF 7
ENDMDL
MODEL 10
REMARK VINA RESULT:      -8.2      3.053      3.978
REMARK  7 active torsions:
REMARK  status: ('A' for Active; 'I' for Inactive)
REMARK    1  A    between atoms: C_2  and  O_3 
REMARK    2  A    between atoms: O_3  and  C_4 
REMARK    3  A    between atoms: C_5  and  C_6 
REMARK       I    between atoms: C_6  and  N_7 
REMARK    4  A    between atoms: N_7  and  C_8 
REMARK    5  A    between atoms: C_8  and  C_9 
REMARK    6  A    between atoms: C_9  and  N_10 
REMARK    7  A    between atoms: N_14  and  C_15 
ROOT
HETATM    1  C   UNL     1      27.087  44.923  53.314  1.00  0.00     0.255 C 
HETATM    2  N   UNL     1      26.021  44.068  53.126  1.00  0.00    -0.355 N 
HETATM    3  O   UNL     1      26.997  46.133  53.129  1.00  0.00    -0.268 OA
HETATM    4  H   UNL     1      26.200  43.073  53.258  1.00  0.00     0.162 HD
ENDROOT
BRANCH   2   5
HETATM    5  C   UNL     1      24.805  44.452  52.421  1.00  0.00     0.150 C 
BRANCH   5   6
HETATM    6  C   UNL     1      24.971  44.722  50.910  1.00  0.00     0.254 C 
BRANCH   6   7
HETATM    7  N   UNL     1      23.709  45.211  50.248  1.00  0.00    -0.067 N 
HETATM    8  H   UNL     1      23.132  45.648  50.997  1.00  0.00     0.280 HD
HETATM    9  C   UNL     1      23.911  46.342  49.241  1.00  0.00     0.254 C 
HETATM   10  C   UNL     1      22.544  46.830  48.709  1.00  0.00     0.150 C 
HETATM   11  N   UNL     1      21.788  45.709  48.116  1.00  0.00    -0.378 N 
HETATM   12  C   UNL     1      21.547  44.609  49.077  1.00  0.00     0.150 C 
HETATM   13  C   UNL     1      22.882  44.080  49.650  1.00  0.00     0.254 C 
BRANCH  11  14
HETATM   14  C   UNL     1      21.873  45.420  46.756  1.00  0.00     0.030 A 
HETATM   15  C   UNL     1      22.825  44.535  46.218  1.00  0.00     0.031 A 
HETATM   16  C   UNL     1      22.915  44.282  44.841  1.00  0.00     0.026 A 
HETATM   17  C   UNL     1      22.054  44.923  43.962  1.00  0.00     0.034 A 
HETATM   18 CL   UNL     1      22.166  44.621  42.275  1.00  0.00    -0.084 Cl
HETATM   19  C   UNL     1      21.113  45.817  44.450  1.00  0.00     0.026 A 
HETATM   20  C   UNL     1      21.034  46.064  45.827  1.00  0.00     0.031 A 
ENDBRANCH  11  14
ENDBRANCH   6   7
ENDBRANCH   5   6
ENDBRANCH   2   5
BRANCH   1  21
HETATM   21  C   UNL     1      28.341  44.296  53.781  1.00  0.00     0.076 A 
HETATM   22  C   UNL     1      28.895  43.269  52.995  1.00  0.00     0.085 A 
HETATM   23  C   UNL     1      30.098  42.692  53.397  1.00  0.00     0.039 A 
HETATM   24  C   UNL     1      30.722  43.114  54.574  1.00  0.00     0.015 A 
HETATM   25  C   UNL     1      30.160  44.114  55.380  1.00  0.00    -0.025 A 
HETATM   26  C   UNL     1      28.942  44.723  54.998  1.00  0.00    -0.007 A 
HETATM   27  C   UNL     1      30.801  44.506  56.567  1.00  0.00     0.012 A 
HETATM   28  C   UNL     1      28.397  45.704  55.867  1.00  0.00     0.013 A 
HETATM   29  C   UNL     1      29.045  46.081  57.044  1.00  0.00     0.001 A 
HETATM   30  C   UNL     1      30.250  45.485  57.391  1.00  0.00     0.001 A 
BRANCH  22  31
HETATM   31  O   UNL     1      28.237  42.931  51.839  1.00  0.00    -0.350 OA
BRANCH  31  32
HETATM   32  C   UNL     1      28.092  41.530  51.588  1.00  0.00     0.171 C 
HETATM   33  C   UNL     1      26.738  41.312  50.937  1.00  0.00     0.034 C 
ENDBRANCH  31  32
ENDBRANCH  22  31
ENDBRANCH   1  21
TORSDOF 7
ENDMDL
