MODEL 1
REMARK VINA RESULT:      -9.0      0.000      0.000
REMARK  5 active torsions:
REMARK  status: ('A' for Active; 'I' for Inactive)
REMARK    1  A    between atoms: C_4  and  N_5 
REMARK       I    between atoms: N_5  and  C_6 
REMARK       I    between atoms: C_6  and  N_7 
REMARK    2  A    between atoms: N_7  and  C_8 
REMARK    3  A    between atoms: C_8  and  C_9 
REMARK    4  A    between atoms: C_9  and  N_10 
REMARK    5  A    between atoms: C_9  and  C_14 
ROOT
HETATM    1  N   UNL     1      27.872  46.457  55.520  1.00  0.00    -0.307 N 
HETATM    2  C   UNL     1      26.936  47.107  54.793  1.00  0.00     0.320 C 
HETATM    3  N   UNL     1      26.412  46.471  53.712  1.00  0.00    -0.340 N 
HETATM    4  O   UNL     1      26.505  48.201  55.151  1.00  0.00    -0.247 OA
HETATM    5  H   UNL     1      28.044  46.881  56.434  1.00  0.00     0.170 HD
HETATM    6  H   UNL     1      26.551  45.472  53.648  1.00  0.00     0.164 HD
ENDROOT
BRANCH   1   7
HETATM    7  C   UNL     1      28.721  45.349  55.279  1.00  0.00     0.066 A 
HETATM    8  C   UNL     1      28.683  44.574  54.113  1.00  0.00     0.038 A 
HETATM    9  C   UNL     1      29.541  43.480  53.957  1.00  0.00    -0.059 A 
HETATM   10  C   UNL     1      29.512  42.652  52.704  1.00  0.00     0.048 C 
HETATM   11  C   UNL     1      30.487  43.211  54.951  1.00  0.00     0.020 A 
HETATM   12  C   UNL     1      30.572  44.019  56.096  1.00  0.00    -0.005 A 
HETATM   13  C   UNL     1      29.683  45.100  56.274  1.00  0.00     0.093 A 
HETATM   14  C   UNL     1      31.539  43.785  57.082  1.00  0.00     0.015 A 
HETATM   15  N   UNL     1      29.741  45.897  57.367  1.00  0.00    -0.258 NA
HETATM   16  C   UNL     1      30.695  45.645  58.292  1.00  0.00     0.117 A 
HETATM   17  C   UNL     1      31.606  44.612  58.197  1.00  0.00     0.020 A 
ENDBRANCH   1   7
BRANCH   3  18
HETATM   18  C   UNL     1      25.556  47.156  52.755  1.00  0.00     0.164 C 
BRANCH  18  19
HETATM   19  C   UNL     1      25.919  47.003  51.255  1.00  0.00     0.261 C 
BRANCH  19  20
HETATM   20  N   UNL     1      24.895  47.589  50.282  1.00  0.00    -0.067 N 
HETATM   21  H   UNL     1      24.322  48.177  50.903  1.00  0.00     0.280 HD
HETATM   22  C   UNL     1      25.416  48.549  49.252  1.00  0.00     0.270 C 
HETATM   23  C   UNL     1      23.975  46.571  49.681  1.00  0.00     0.270 C 
ENDBRANCH  19  20
BRANCH  19  24
HETATM   24  C   UNL     1      26.302  45.602  50.875  1.00  0.00     0.085 A 
HETATM   25  O   UNL     1      25.745  44.613  51.643  1.00  0.00    -0.325 OA
HETATM   26  C   UNL     1      26.176  43.427  51.142  1.00  0.00     0.142 A 
HETATM   27  C   UNL     1      27.000  43.633  50.063  1.00  0.00     0.027 A 
HETATM   28  C   UNL     1      27.078  45.035  49.882  1.00  0.00     0.037 A 
ENDBRANCH  19  24
ENDBRANCH  18  19
ENDBRANCH   3  18
TORSDOF 5
ENDMDL
MODEL 2
REMARK VINA RESULT:      -9.0      2.625      4.448
REMARK  5 active torsions:
REMARK  status: ('A' for Active; 'I' for Inactive)
REMARK    1  A    between atoms: C_4  and  N_5 
REMARK       I    between atoms: N_5  and  C_6 
REMARK       I    between atoms: C_6  and  N_7 
REMARK    2  A    between atoms: N_7  and  C_8 
REMARK    3  A    between atoms: C_8  and  C_9 
REMARK    4  A    between atoms: C_9  and  N_10 
REMARK    5  A    between atoms: C_9  and  C_14 
ROOT
HETATM    1  N   UNL     1      25.238  44.417  52.666  1.00  0.00    -0.307 N 
HETATM    2  C   UNL     1      24.574  44.720  51.528  1.00  0.00     0.320 C 
HETATM    3  N   UNL     1      25.023  45.768  50.786  1.00  0.00    -0.340 N 
HETATM    4  O   UNL     1      23.651  44.014  51.128  1.00  0.00    -0.247 OA
HETATM    5  H   UNL     1      25.004  43.496  53.040  1.00  0.00     0.170 HD
HETATM    6  H   UNL     1      25.957  46.104  50.975  1.00  0.00     0.164 HD
ENDROOT
BRANCH   1   7
HETATM    7  C   UNL     1      26.146  45.116  53.499  1.00  0.00     0.066 A 
HETATM    8  C   UNL     1      25.897  46.385  54.036  1.00  0.00     0.038 A 
HETATM    9  C   UNL     1      26.853  47.021  54.835  1.00  0.00    -0.059 A 
HETATM   10  C   UNL     1      26.587  48.378  55.422  1.00  0.00     0.048 C 
HETATM   11  C   UNL     1      28.035  46.343  55.150  1.00  0.00     0.020 A 
HETATM   12  C   UNL     1      28.267  45.046  54.665  1.00  0.00    -0.005 A 
HETATM   13  C   UNL     1      27.321  44.417  53.828  1.00  0.00     0.093 A 
HETATM   14  C   UNL     1      29.428  44.339  55.002  1.00  0.00     0.015 A 
HETATM   15  N   UNL     1      27.517  43.168  53.346  1.00  0.00    -0.258 NA
HETATM   16  C   UNL     1      28.646  42.514  53.702  1.00  0.00     0.117 A 
HETATM   17  C   UNL     1      29.622  43.052  54.518  1.00  0.00     0.020 A 
ENDBRANCH   1   7
BRANCH   3  18
HETATM   18  C   UNL     1      24.265  46.297  49.663  1.00  0.00     0.164 C 
BRANCH  18  19
HETATM   19  C   UNL     1      24.072  47.834  49.609  1.00  0.00     0.261 C 
BRANCH  19  20
HETATM   20  N   UNL     1      22.879  48.306  48.776  1.00  0.00    -0.067 N 
HETATM   21  H   UNL     1      23.341  48.707  47.949  1.00  0.00     0.280 HD
HETATM   22  C   UNL     1      21.987  47.239  48.212  1.00  0.00     0.270 C 
HETATM   23  C   UNL     1      22.094  49.412  49.411  1.00  0.00     0.270 C 
ENDBRANCH  19  20
BRANCH  19  24
HETATM   24  C   UNL     1      25.325  48.580  49.247  1.00  0.00     0.085 A 
HETATM   25  O   UNL     1      26.492  48.013  49.689  1.00  0.00    -0.325 OA
HETATM   26  C   UNL     1      27.509  48.799  49.252  1.00  0.00     0.142 A 
HETATM   27  C   UNL     1      27.019  49.863  48.533  1.00  0.00     0.027 A 
HETATM   28  C   UNL     1      25.610  49.720  48.522  1.00  0.00     0.037 A 
ENDBRANCH  19  24
ENDBRANCH  18  19
ENDBRANCH   3  18
TORSDOF 5
ENDMDL
MODEL 3
REMARK VINA RESULT:      -8.7      1.242      2.516
REMARK  5 active torsions:
REMARK  status: ('A' for Active; 'I' for Inactive)
REMARK    1  A    between atoms: C_4  and  N_5 
REMARK       I    between atoms: N_5  and  C_6 
REMARK       I    between atoms: C_6  and  N_7 
REMARK    2  A    between atoms: N_7  and  C_8 
REMARK    3  A    between atoms: C_8  and  C_9 
REMARK    4  A    between atoms: C_9  and  N_10 
REMARK    5  A    between atoms: C_9  and  C_14 
ROOT
HETATM    1  N   UNL     1      27.520  46.215  55.352  1.00  0.00    -0.307 N 
HETATM    2  C   UNL     1      26.655  46.867  54.542  1.00  0.00     0.320 C 
HETATM    3  N   UNL     1      26.367  46.311  53.335  1.00  0.00    -0.340 N 
HETATM    4  O   UNL     1      26.076  47.882  54.924  1.00  0.00    -0.247 OA
HETATM    5  H   UNL     1      27.507  46.551  56.317  1.00  0.00     0.170 HD
HETATM    6  H   UNL     1      26.604  45.338  53.203  1.00  0.00     0.164 HD
ENDROOT
BRANCH   1   7
HETATM    7  C   UNL     1      28.492  45.204  55.153  1.00  0.00     0.066 A 
HETATM    8  C   UNL     1      28.569  44.407  54.004  1.00  0.00     0.038 A 
HETATM    9  C   UNL     1      29.547  43.413  53.890  1.00  0.00    -0.059 A 
HETATM   10  C   UNL     1      29.640  42.562  52.656  1.00  0.00     0.048 C 
HETATM   11  C   UNL     1      30.493  43.271  54.910  1.00  0.00     0.020 A 
HETATM   12  C   UNL     1      30.460  44.105  56.038  1.00  0.00    -0.005 A 
HETATM   13  C   UNL     1      29.453  45.084  56.173  1.00  0.00     0.093 A 
HETATM   14  C   UNL     1      31.423  44.001  57.050  1.00  0.00     0.015 A 
HETATM   15  N   UNL     1      29.395  45.903  57.249  1.00  0.00    -0.258 NA
HETATM   16  C   UNL     1      30.349  45.778  58.200  1.00  0.00     0.117 A 
HETATM   17  C   UNL     1      31.372  44.852  58.147  1.00  0.00     0.020 A 
ENDBRANCH   1   7
BRANCH   3  18
HETATM   18  C   UNL     1      25.615  47.028  52.317  1.00  0.00     0.164 C 
BRANCH  18  19
HETATM   19  C   UNL     1      25.002  46.182  51.172  1.00  0.00     0.261 C 
BRANCH  19  20
HETATM   20  N   UNL     1      25.958  45.172  50.535  1.00  0.00    -0.067 N 
HETATM   21  H   UNL     1      26.430  44.775  51.359  1.00  0.00     0.280 HD
HETATM   22  C   UNL     1      25.334  43.982  49.866  1.00  0.00     0.270 C 
HETATM   23  C   UNL     1      27.022  45.795  49.685  1.00  0.00     0.270 C 
ENDBRANCH  19  20
BRANCH  19  24
HETATM   24  C   UNL     1      24.299  47.007  50.132  1.00  0.00     0.085 A 
HETATM   25  O   UNL     1      24.698  48.315  50.054  1.00  0.00    -0.325 OA
HETATM   26  C   UNL     1      23.983  48.893  49.054  1.00  0.00     0.142 A 
HETATM   27  C   UNL     1      23.130  47.978  48.485  1.00  0.00     0.027 A 
HETATM   28  C   UNL     1      23.337  46.758  49.173  1.00  0.00     0.037 A 
ENDBRANCH  19  24
ENDBRANCH  18  19
ENDBRANCH   3  18
TORSDOF 5
ENDMDL
MODEL 4
REMARK VINA RESULT:      -8.5      2.484      4.207
REMARK  5 active torsions:
REMARK  status: ('A' for Active; 'I' for Inactive)
REMARK    1  A    between atoms: C_4  and  N_5 
REMARK       I    between atoms: N_5  and  C_6 
REMARK       I    between atoms: C_6  and  N_7 
REMARK    2  A    between atoms: N_7  and  C_8 
REMARK    3  A    between atoms: C_8  and  C_9 
REMARK    4  A    between atoms: C_9  and  N_10 
REMARK    5  A    between atoms: C_9  and  C_14 
ROOT
HETATM    1  N   UNL     1      25.574  43.868  52.824  1.00  0.00    -0.307 N 
HETATM    2  C   UNL     1      25.038  44.237  51.639  1.00  0.00     0.320 C 
HETATM    3  N   UNL     1      25.854  44.823  50.723  1.00  0.00    -0.340 N 
HETATM    4  O   UNL     1      23.871  43.968  51.363  1.00  0.00    -0.247 OA
HETATM    5  H   UNL     1      24.980  43.231  53.359  1.00  0.00     0.170 HD
HETATM    6  H   UNL     1      26.851  44.728  50.861  1.00  0.00     0.164 HD
ENDROOT
BRANCH   1   7
HETATM    7  C   UNL     1      26.754  44.212  53.528  1.00  0.00     0.066 A 
HETATM    8  C   UNL     1      27.850  43.354  53.685  1.00  0.00     0.038 A 
HETATM    9  C   UNL     1      28.974  43.759  54.413  1.00  0.00    -0.059 A 
HETATM   10  C   UNL     1      30.155  42.846  54.576  1.00  0.00     0.048 C 
HETATM   11  C   UNL     1      29.020  45.060  54.923  1.00  0.00     0.020 A 
HETATM   12  C   UNL     1      27.952  45.948  54.719  1.00  0.00    -0.005 A 
HETATM   13  C   UNL     1      26.801  45.529  54.017  1.00  0.00     0.093 A 
HETATM   14  C   UNL     1      27.999  47.266  55.190  1.00  0.00     0.015 A 
HETATM   15  N   UNL     1      25.755  46.362  53.804  1.00  0.00    -0.258 NA
HETATM   16  C   UNL     1      25.843  47.630  54.267  1.00  0.00     0.117 A 
HETATM   17  C   UNL     1      26.931  48.124  54.959  1.00  0.00     0.020 A 
ENDBRANCH   1   7
BRANCH   3  18
HETATM   18  C   UNL     1      25.336  45.436  49.510  1.00  0.00     0.164 C 
BRANCH  18  19
HETATM   19  C   UNL     1      24.766  46.872  49.638  1.00  0.00     0.261 C 
BRANCH  19  20
HETATM   20  N   UNL     1      23.450  47.111  48.896  1.00  0.00    -0.067 N 
HETATM   21  H   UNL     1      23.779  47.358  47.952  1.00  0.00     0.280 HD
HETATM   22  C   UNL     1      22.573  45.913  48.674  1.00  0.00     0.270 C 
HETATM   23  C   UNL     1      22.671  48.286  49.403  1.00  0.00     0.270 C 
ENDBRANCH  19  20
BRANCH  19  24
HETATM   24  C   UNL     1      25.773  47.943  49.332  1.00  0.00     0.085 A 
HETATM   25  O   UNL     1      27.082  47.587  49.520  1.00  0.00    -0.325 OA
HETATM   26  C   UNL     1      27.842  48.657  49.173  1.00  0.00     0.142 A 
HETATM   27  C   UNL     1      27.045  49.698  48.762  1.00  0.00     0.027 A 
HETATM   28  C   UNL     1      25.709  49.238  48.856  1.00  0.00     0.037 A 
ENDBRANCH  19  24
ENDBRANCH  18  19
ENDBRANCH   3  18
TORSDOF 5
ENDMDL
MODEL 5
REMARK VINA RESULT:      -8.4      2.414      4.024
REMARK  5 active torsions:
REMARK  status: ('A' for Active; 'I' for Inactive)
REMARK    1  A    between atoms: C_4  and  N_5 
REMARK       I    between atoms: N_5  and  C_6 
REMARK       I    between atoms: C_6  and  N_7 
REMARK    2  A    between atoms: N_7  and  C_8 
REMARK    3  A    between atoms: C_8  and  C_9 
REMARK    4  A    between atoms: C_9  and  N_10 
REMARK    5  A    between atoms: C_9  and  C_14 
ROOT
HETATM    1  N   UNL     1      27.908  42.783  53.178  1.00  0.00    -0.307 N 
HETATM    2  C   UNL     1      27.400  42.369  51.996  1.00  0.00     0.320 C 
HETATM    3  N   UNL     1      27.181  43.303  51.032  1.00  0.00    -0.340 N 
HETATM    4  O   UNL     1      27.228  41.174  51.767  1.00  0.00    -0.247 OA
HETATM    5  H   UNL     1      28.267  42.020  53.757  1.00  0.00     0.170 HD
HETATM    6  H   UNL     1      27.632  44.200  51.144  1.00  0.00     0.164 HD
ENDROOT
BRANCH   1   7
HETATM    7  C   UNL     1      28.004  44.036  53.831  1.00  0.00     0.066 A 
HETATM    8  C   UNL     1      27.087  45.081  53.657  1.00  0.00     0.038 A 
HETATM    9  C   UNL     1      27.260  46.299  54.322  1.00  0.00    -0.059 A 
HETATM   10  C   UNL     1      26.275  47.419  54.146  1.00  0.00     0.048 C 
HETATM   11  C   UNL     1      28.324  46.438  55.219  1.00  0.00     0.020 A 
HETATM   12  C   UNL     1      29.213  45.376  55.446  1.00  0.00    -0.005 A 
HETATM   13  C   UNL     1      29.063  44.159  54.748  1.00  0.00     0.093 A 
HETATM   14  C   UNL     1      30.260  45.486  56.370  1.00  0.00     0.015 A 
HETATM   15  N   UNL     1      29.904  43.116  54.946  1.00  0.00    -0.258 NA
HETATM   16  C   UNL     1      30.897  43.259  55.853  1.00  0.00     0.117 A 
HETATM   17  C   UNL     1      31.114  44.411  56.582  1.00  0.00     0.020 A 
ENDBRANCH   1   7
BRANCH   3  18
HETATM   18  C   UNL     1      26.454  42.994  49.811  1.00  0.00     0.164 C 
BRANCH  18  19
HETATM   19  C   UNL     1      25.180  43.829  49.523  1.00  0.00     0.261 C 
BRANCH  19  20
HETATM   20  N   UNL     1      24.580  43.629  48.130  1.00  0.00    -0.067 N 
HETATM   21  H   UNL     1      25.294  44.059  47.526  1.00  0.00     0.280 HD
HETATM   22  C   UNL     1      24.486  42.216  47.633  1.00  0.00     0.270 C 
HETATM   23  C   UNL     1      23.307  44.386  47.902  1.00  0.00     0.270 C 
ENDBRANCH  19  20
BRANCH  19  24
HETATM   24  C   UNL     1      25.336  45.286  49.851  1.00  0.00     0.085 A 
HETATM   25  O   UNL     1      26.470  45.879  49.361  1.00  0.00    -0.325 OA
HETATM   26  C   UNL     1      26.430  47.186  49.728  1.00  0.00     0.142 A 
HETATM   27  C   UNL     1      25.287  47.447  50.446  1.00  0.00     0.027 A 
HETATM   28  C   UNL     1      24.576  46.225  50.521  1.00  0.00     0.037 A 
ENDBRANCH  19  24
ENDBRANCH  18  19
ENDBRANCH   3  18
TORSDOF 5
ENDMDL
MODEL 6
REMARK VINA RESULT:      -8.4      3.466      8.222
REMARK  5 active torsions:
REMARK  status: ('A' for Active; 'I' for Inactive)
REMARK    1  A    between atoms: C_4  and  N_5 
REMARK       I    between atoms: N_5  and  C_6 
REMARK       I    between atoms: C_6  and  N_7 
REMARK    2  A    between atoms: N_7  and  C_8 
REMARK    3  A    between atoms: C_8  and  C_9 
REMARK    4  A    between atoms: C_9  and  N_10 
REMARK    5  A    between atoms: C_9  and  C_14 
ROOT
HETATM    1  N   UNL     1      23.937  46.387  50.357  1.00  0.00    -0.307 N 
HETATM    2  C   UNL     1      24.294  45.093  50.524  1.00  0.00     0.320 C 
HETATM    3  N   UNL     1      25.608  44.771  50.393  1.00  0.00    -0.340 N 
HETATM    4  O   UNL     1      23.470  44.251  50.874  1.00  0.00    -0.247 OA
HETATM    5  H   UNL     1      22.997  46.597  50.698  1.00  0.00     0.170 HD
HETATM    6  H   UNL     1      26.277  45.527  50.429  1.00  0.00     0.164 HD
ENDROOT
BRANCH   1   7
HETATM    7  C   UNL     1      24.549  47.514  49.756  1.00  0.00     0.066 A 
HETATM    8  C   UNL     1      25.932  47.737  49.741  1.00  0.00     0.038 A 
HETATM    9  C   UNL     1      26.461  48.887  49.144  1.00  0.00    -0.059 A 
HETATM   10  C   UNL     1      27.943  49.127  49.117  1.00  0.00     0.048 C 
HETATM   11  C   UNL     1      25.597  49.778  48.501  1.00  0.00     0.020 A 
HETATM   12  C   UNL     1      24.215  49.531  48.459  1.00  0.00    -0.005 A 
HETATM   13  C   UNL     1      23.675  48.392  49.091  1.00  0.00     0.093 A 
HETATM   14  C   UNL     1      23.341  50.394  47.785  1.00  0.00     0.015 A 
HETATM   15  N   UNL     1      22.347  48.127  49.067  1.00  0.00    -0.258 NA
HETATM   16  C   UNL     1      21.537  48.979  48.398  1.00  0.00     0.117 A 
HETATM   17  C   UNL     1      21.981  50.113  47.749  1.00  0.00     0.020 A 
ENDBRANCH   1   7
BRANCH   3  18
HETATM   18  C   UNL     1      26.062  43.390  50.352  1.00  0.00     0.164 C 
BRANCH  18  19
HETATM   19  C   UNL     1      27.055  42.945  51.456  1.00  0.00     0.261 C 
BRANCH  19  20
HETATM   20  N   UNL     1      27.031  41.451  51.781  1.00  0.00    -0.067 N 
HETATM   21  H   UNL     1      26.429  41.423  52.616  1.00  0.00     0.280 HD
HETATM   22  C   UNL     1      26.331  40.558  50.799  1.00  0.00     0.270 C 
HETATM   23  C   UNL     1      28.361  40.896  52.190  1.00  0.00     0.270 C 
ENDBRANCH  19  20
BRANCH  19  24
HETATM   24  C   UNL     1      26.975  43.781  52.702  1.00  0.00     0.085 A 
HETATM   25  O   UNL     1      25.744  43.821  53.302  1.00  0.00    -0.325 OA
HETATM   26  C   UNL     1      25.865  44.592  54.413  1.00  0.00     0.142 A 
HETATM   27  C   UNL     1      27.155  45.049  54.541  1.00  0.00     0.027 A 
HETATM   28  C   UNL     1      27.876  44.521  53.442  1.00  0.00     0.037 A 
ENDBRANCH  19  24
ENDBRANCH  18  19
ENDBRANCH   3  18
TORSDOF 5
ENDMDL
MODEL 7
REMARK VINA RESULT:      -8.1      2.230      3.606
REMARK  5 active torsions:
REMARK  status: ('A' for Active; 'I' for Inactive)
REMARK    1  A    between atoms: C_4  and  N_5 
REMARK       I    between atoms: N_5  and  C_6 
REMARK       I    between atoms: C_6  and  N_7 
REMARK    2  A    between atoms: N_7  and  C_8 
REMARK    3  A    between atoms: C_8  and  C_9 
REMARK    4  A    between atoms: C_9  and  N_10 
REMARK    5  A    between atoms: C_9  and  C_14 
ROOT
HETATM    1  N   UNL     1      27.435  43.461  53.343  1.00  0.00    -0.307 N 
HETATM    2  C   UNL     1      27.096  43.328  52.041  1.00  0.00     0.320 C 
HETATM    3  N   UNL     1      27.405  44.345  51.193  1.00  0.00    -0.340 N 
HETATM    4  O   UNL     1      26.606  42.282  51.620  1.00  0.00    -0.247 OA
HETATM    5  H   UNL     1      27.393  42.584  53.866  1.00  0.00     0.170 HD
HETATM    6  H   UNL     1      28.083  45.023  51.510  1.00  0.00     0.164 HD
ENDROOT
BRANCH   1   7
HETATM    7  C   UNL     1      27.779  44.559  54.170  1.00  0.00     0.066 A 
HETATM    8  C   UNL     1      26.992  45.709  54.310  1.00  0.00     0.038 A 
HETATM    9  C   UNL     1      27.410  46.762  55.132  1.00  0.00    -0.059 A 
HETATM   10  C   UNL     1      26.566  47.993  55.293  1.00  0.00     0.048 C 
HETATM   11  C   UNL     1      28.591  46.622  55.867  1.00  0.00     0.020 A 
HETATM   12  C   UNL     1      29.355  45.448  55.779  1.00  0.00    -0.005 A 
HETATM   13  C   UNL     1      28.955  44.400  54.923  1.00  0.00     0.093 A 
HETATM   14  C   UNL     1      30.519  45.277  56.538  1.00  0.00     0.015 A 
HETATM   15  N   UNL     1      29.671  43.255  54.817  1.00  0.00    -0.258 NA
HETATM   16  C   UNL     1      30.784  43.124  55.574  1.00  0.00     0.117 A 
HETATM   17  C   UNL     1      31.245  44.096  56.440  1.00  0.00     0.020 A 
ENDBRANCH   1   7
BRANCH   3  18
HETATM   18  C   UNL     1      26.907  44.387  49.827  1.00  0.00     0.164 C 
BRANCH  18  19
HETATM   19  C   UNL     1      25.827  45.453  49.508  1.00  0.00     0.261 C 
BRANCH  19  20
HETATM   20  N   UNL     1      25.951  46.754  50.301  1.00  0.00    -0.067 N 
HETATM   21  H   UNL     1      26.889  46.663  50.716  1.00  0.00     0.280 HD
HETATM   22  C   UNL     1      26.027  48.025  49.506  1.00  0.00     0.270 C 
HETATM   23  C   UNL     1      24.985  46.866  51.441  1.00  0.00     0.270 C 
ENDBRANCH  19  20
BRANCH  19  24
HETATM   24  C   UNL     1      24.426  44.913  49.551  1.00  0.00     0.085 A 
HETATM   25  O   UNL     1      23.552  45.480  48.662  1.00  0.00    -0.325 OA
HETATM   26  C   UNL     1      22.356  44.857  48.824  1.00  0.00     0.142 A 
HETATM   27  C   UNL     1      22.445  43.895  49.801  1.00  0.00     0.027 A 
HETATM   28  C   UNL     1      23.781  43.923  50.268  1.00  0.00     0.037 A 
ENDBRANCH  19  24
ENDBRANCH  18  19
ENDBRANCH   3  18
TORSDOF 5
ENDMDL
MODEL 8
REMARK VINA RESULT:      -8.1      4.527      7.490
REMARK  5 active torsions:
REMARK  status: ('A' for Active; 'I' for Inactive)
REMARK    1  A    between atoms: C_4  and  N_5 
REMARK       I    between atoms: N_5  and  C_6 
REMARK       I    between atoms: C_6  and  N_7 
REMARK    2  A    between atoms: N_7  and  C_8 
REMARK    3  A    between atoms: C_8  and  C_9 
REMARK    4  A    between atoms: C_9  and  N_10 
REMARK    5  A    between atoms: C_9  and  C_14 
ROOT
HETATM    1  N   UNL     1      24.864  47.706  49.774  1.00  0.00    -0.307 N 
HETATM    2  C   UNL     1      23.944  48.560  49.272  1.00  0.00     0.320 C 
HETATM    3  N   UNL     1      22.639  48.353  49.591  1.00  0.00    -0.340 N 
HETATM    4  O   UNL     1      24.286  49.546  48.623  1.00  0.00    -0.247 OA
HETATM    5  H   UNL     1      25.824  48.050  49.697  1.00  0.00     0.170 HD
HETATM    6  H   UNL     1      22.443  47.744  50.373  1.00  0.00     0.164 HD
ENDROOT
BRANCH   1   7
HETATM    7  C   UNL     1      24.808  46.406  50.333  1.00  0.00     0.066 A 
HETATM    8  C   UNL     1      24.483  45.255  49.604  1.00  0.00     0.038 A 
HETATM    9  C   UNL     1      24.428  44.006  50.232  1.00  0.00    -0.059 A 
HETATM   10  C   UNL     1      24.090  42.767  49.453  1.00  0.00     0.048 C 
HETATM   11  C   UNL     1      24.770  43.910  51.584  1.00  0.00     0.020 A 
HETATM   12  C   UNL     1      25.155  45.049  52.308  1.00  0.00    -0.005 A 
HETATM   13  C   UNL     1      25.175  46.316  51.687  1.00  0.00     0.093 A 
HETATM   14  C   UNL     1      25.537  44.963  53.653  1.00  0.00     0.015 A 
HETATM   15  N   UNL     1      25.542  47.432  52.359  1.00  0.00    -0.258 NA
HETATM   16  C   UNL     1      25.914  47.307  53.654  1.00  0.00     0.117 A 
HETATM   17  C   UNL     1      25.927  46.107  54.338  1.00  0.00     0.020 A 
ENDBRANCH   1   7
BRANCH   3  18
HETATM   18  C   UNL     1      21.562  49.086  48.943  1.00  0.00     0.164 C 
BRANCH  18  19
HETATM   19  C   UNL     1      20.370  49.515  49.836  1.00  0.00     0.261 C 
BRANCH  19  20
HETATM   20  N   UNL     1      19.391  48.393  50.188  1.00  0.00    -0.067 N 
HETATM   21  H   UNL     1      20.028  47.606  50.375  1.00  0.00     0.280 HD
HETATM   22  C   UNL     1      18.618  48.548  51.465  1.00  0.00     0.270 C 
HETATM   23  C   UNL     1      18.511  47.975  49.050  1.00  0.00     0.270 C 
ENDBRANCH  19  20
BRANCH  19  24
HETATM   24  C   UNL     1      19.652  50.732  49.328  1.00  0.00     0.085 A 
HETATM   25  O   UNL     1      18.742  51.280  50.193  1.00  0.00    -0.325 OA
HETATM   26  C   UNL     1      18.217  52.373  49.582  1.00  0.00     0.142 A 
HETATM   27  C   UNL     1      18.775  52.542  48.338  1.00  0.00     0.027 A 
HETATM   28  C   UNL     1      19.707  51.489  48.173  1.00  0.00     0.037 A 
ENDBRANCH  19  24
ENDBRANCH  18  19
ENDBRANCH   3  18
TORSDOF 5
ENDMDL
MODEL 9
REMARK VINA RESULT:      -8.1      1.666      2.371
REMARK  5 active torsions:
REMARK  status: ('A' for Active; 'I' for Inactive)
REMARK    1  A    between atoms: C_4  and  N_5 
REMARK       I    between atoms: N_5  and  C_6 
REMARK       I    between atoms: C_6  and  N_7 
REMARK    2  A    between atoms: N_7  and  C_8 
REMARK    3  A    between atoms: C_8  and  C_9 
REMARK    4  A    between atoms: C_9  and  N_10 
REMARK    5  A    between atoms: C_9  and  C_14 
ROOT
HETATM    1  N   UNL     1      26.753  45.699  53.758  1.00  0.00    -0.307 N 
HETATM    2  C   UNL     1      26.093  46.561  52.953  1.00  0.00     0.320 C 
HETATM    3  N   UNL     1      25.901  46.205  51.655  1.00  0.00    -0.340 N 
HETATM    4  O   UNL     1      25.600  47.594  53.403  1.00  0.00    -0.247 OA
HETATM    5  H   UNL     1      26.653  45.913  54.753  1.00  0.00     0.170 HD
HETATM    6  H   UNL     1      26.030  45.232  51.417  1.00  0.00     0.164 HD
ENDROOT
BRANCH   1   7
HETATM    7  C   UNL     1      27.609  44.593  53.535  1.00  0.00     0.066 A 
HETATM    8  C   UNL     1      27.435  43.666  52.500  1.00  0.00     0.038 A 
HETATM    9  C   UNL     1      28.313  42.585  52.356  1.00  0.00    -0.059 A 
HETATM   10  C   UNL     1      28.136  41.594  51.242  1.00  0.00     0.048 C 
HETATM   11  C   UNL     1      29.408  42.481  53.217  1.00  0.00     0.020 A 
HETATM   12  C   UNL     1      29.624  43.439  54.221  1.00  0.00    -0.005 A 
HETATM   13  C   UNL     1      28.721  44.509  54.392  1.00  0.00     0.093 A 
HETATM   14  C   UNL     1      30.738  43.370  55.067  1.00  0.00     0.015 A 
HETATM   15  N   UNL     1      28.902  45.448  55.349  1.00  0.00    -0.258 NA
HETATM   16  C   UNL     1      29.995  45.352  56.141  1.00  0.00     0.117 A 
HETATM   17  C   UNL     1      30.932  44.342  56.040  1.00  0.00     0.020 A 
ENDBRANCH   1   7
BRANCH   3  18
HETATM   18  C   UNL     1      25.388  47.141  50.667  1.00  0.00     0.164 C 
BRANCH  18  19
HETATM   19  C   UNL     1      24.469  46.560  49.562  1.00  0.00     0.261 C 
BRANCH  19  20
HETATM   20  N   UNL     1      23.132  47.283  49.390  1.00  0.00    -0.067 N 
HETATM   21  H   UNL     1      22.647  47.048  50.267  1.00  0.00     0.280 HD
HETATM   22  C   UNL     1      23.172  48.783  49.387  1.00  0.00     0.270 C 
HETATM   23  C   UNL     1      22.289  46.746  48.274  1.00  0.00     0.270 C 
ENDBRANCH  19  20
BRANCH  19  24
HETATM   24  C   UNL     1      24.281  45.073  49.664  1.00  0.00     0.085 A 
HETATM   25  O   UNL     1      25.133  44.322  48.897  1.00  0.00    -0.325 OA
HETATM   26  C   UNL     1      24.839  43.017  49.134  1.00  0.00     0.142 A 
HETATM   27  C   UNL     1      23.813  42.914  50.042  1.00  0.00     0.027 A 
HETATM   28  C   UNL     1      23.456  44.239  50.392  1.00  0.00     0.037 A 
ENDBRANCH  19  24
ENDBRANCH  18  19
ENDBRANCH   3  18
TORSDOF 5
ENDMDL
MODEL 10
REMARK VINA RESULT:      -8.1      2.836      4.657
REMARK  5 active torsions:
REMARK  status: ('A' for Active; 'I' for Inactive)
REMARK    1  A    between atoms: C_4  and  N_5 
REMARK       I    between atoms: N_5  and  C_6 
REMARK       I    between atoms: C_6  and  N_7 
REMARK    2  A    between atoms: N_7  and  C_8 
REMARK    3  A    between atoms: C_8  and  C_9 
REMARK    4  A    between atoms: C_9  and  N_10 
REMARK    5  A    between atoms: C_9  and  C_14 
ROOT
HETATM    1  N   UNL     1      25.786  43.551  53.175  1.00  0.00    -0.307 N 
HETATM    2  C   UNL     1      25.379  43.494  51.887  1.00  0.00     0.320 C 
HETATM    3  N   UNL     1      26.322  43.603  50.913  1.00  0.00    -0.340 N 
HETATM    4  O   UNL     1      24.206  43.259  51.605  1.00  0.00    -0.247 OA
HETATM    5  H   UNL     1      25.079  43.228  53.839  1.00  0.00     0.170 HD
HETATM    6  H   UNL     1      27.286  43.468  51.184  1.00  0.00     0.164 HD
ENDROOT
BRANCH   1   7
HETATM    7  C   UNL     1      26.955  44.016  53.825  1.00  0.00     0.066 A 
HETATM    8  C   UNL     1      28.097  43.233  54.036  1.00  0.00     0.038 A 
HETATM    9  C   UNL     1      29.208  43.758  54.706  1.00  0.00    -0.059 A 
HETATM   10  C   UNL     1      30.438  42.926  54.926  1.00  0.00     0.048 C 
HETATM   11  C   UNL     1      29.190  45.099  55.102  1.00  0.00     0.020 A 
HETATM   12  C   UNL     1      28.073  45.908  54.841  1.00  0.00    -0.005 A 
HETATM   13  C   UNL     1      26.938  45.371  54.199  1.00  0.00     0.093 A 
HETATM   14  C   UNL     1      28.056  47.263  55.197  1.00  0.00     0.015 A 
HETATM   15  N   UNL     1      25.846  46.127  53.933  1.00  0.00    -0.258 NA
HETATM   16  C   UNL     1      25.872  47.433  54.284  1.00  0.00     0.117 A 
HETATM   17  C   UNL     1      26.941  48.041  54.911  1.00  0.00     0.020 A 
ENDBRANCH   1   7
BRANCH   3  18
HETATM   18  C   UNL     1      25.968  43.758  49.511  1.00  0.00     0.164 C 
BRANCH  18  19
HETATM   19  C   UNL     1      25.831  42.460  48.675  1.00  0.00     0.261 C 
BRANCH  19  20
HETATM   20  N   UNL     1      24.446  41.811  48.715  1.00  0.00    -0.067 N 
HETATM   21  H   UNL     1      24.381  41.506  49.696  1.00  0.00     0.280 HD
HETATM   22  C   UNL     1      23.268  42.724  48.540  1.00  0.00     0.270 C 
HETATM   23  C   UNL     1      24.327  40.579  47.871  1.00  0.00     0.270 C 
ENDBRANCH  19  20
BRANCH  19  24
HETATM   24  C   UNL     1      26.916  41.458  48.947  1.00  0.00     0.085 A 
HETATM   25  O   UNL     1      26.866  40.860  50.179  1.00  0.00    -0.325 OA
HETATM   26  C   UNL     1      27.896  39.977  50.237  1.00  0.00     0.142 A 
HETATM   27  C   UNL     1      28.608  39.992  49.062  1.00  0.00     0.027 A 
HETATM   28  C   UNL     1      27.974  40.942  48.225  1.00  0.00     0.037 A 
ENDBRANCH  19  24
ENDBRANCH  18  19
ENDBRANCH   3  18
TORSDOF 5
ENDMDL
