MODEL 1
REMARK VINA RESULT:      -8.5      0.000      0.000
REMARK  6 active torsions:
REMARK  status: ('A' for Active; 'I' for Inactive)
REMARK       I    between atoms: C_2  and  N_3 
REMARK    1  A    between atoms: N_3  and  C_4 
REMARK    2  A    between atoms: C_7  and  C_8 
REMARK    3  A    between atoms: C_8  and  N_9 
REMARK    4  A    between atoms: N_9  and  C_11 
REMARK    5  A    between atoms: C_11  and  C_12 
REMARK    6  A    between atoms: C_14  and  C_15 
ROOT
HETATM    1  N   UNL     1      25.975  45.038  49.676  1.00  0.00    -0.063 N 
HETATM    2  H   UNL     1      26.590  45.359  48.912  1.00  0.00     0.280 HD
HETATM    3  C   UNL     1      24.645  44.677  49.113  1.00  0.00     0.270 C 
ENDROOT
BRANCH   1   4
HETATM    4  C   UNL     1      25.912  46.243  50.599  1.00  0.00     0.294 C 
BRANCH   4   5
HETATM    5  C   UNL     1      25.668  47.499  49.824  1.00  0.00     0.069 A 
HETATM    6  C   UNL     1      26.587  48.391  49.306  1.00  0.00     0.082 A 
HETATM    7  S   UNL     1      25.762  49.673  48.504  1.00  0.00    -0.062 SA
HETATM    8  C   UNL     1      24.278  48.928  48.878  1.00  0.00     0.173 A 
HETATM    9  N   UNL     1      24.342  47.831  49.586  1.00  0.00    -0.227 NA
BRANCH   8  10
HETATM   10  N   UNL     1      23.162  49.547  48.395  1.00  0.00    -0.306 N 
HETATM   11  C   UNL     1      22.520  50.523  49.129  1.00  0.00     0.219 C 
HETATM   12  C   UNL     1      21.350  51.114  48.388  1.00  0.00     0.117 C 
HETATM   13  O   UNL     1      22.808  50.878  50.270  1.00  0.00    -0.274 OA
HETATM   14  H   UNL     1      22.790  49.225  47.512  1.00  0.00     0.171 HD
ENDBRANCH   8  10
ENDBRANCH   4   5
ENDBRANCH   1   4
BRANCH   1  15
HETATM   15  C   UNL     1      26.723  43.850  50.250  1.00  0.00     0.312 C 
BRANCH  15  16
HETATM   16  C   UNL     1      26.977  43.906  51.721  1.00  0.00     0.130 A 
HETATM   17  N   UNL     1      28.131  44.148  52.314  1.00  0.00    -0.232 NA
HETATM   18  C   UNL     1      27.908  43.987  53.665  1.00  0.00     0.084 A 
HETATM   19  C   UNL     1      26.582  43.694  53.889  1.00  0.00     0.122 A 
HETATM   20  N   UNL     1      25.998  43.659  52.652  1.00  0.00    -0.351 N 
HETATM   21  H   UNL     1      25.022  43.454  52.467  1.00  0.00     0.166 HD
BRANCH  18  22
HETATM   22  C   UNL     1      28.956  44.101  54.665  1.00  0.00    -0.006 A 
HETATM   23  C   UNL     1      29.024  45.248  55.468  1.00  0.00     0.014 A 
HETATM   24  C   UNL     1      30.035  45.391  56.423  1.00  0.00     0.001 A 
HETATM   25  C   UNL     1      30.993  44.392  56.578  1.00  0.00     0.000 A 
HETATM   26  C   UNL     1      30.940  43.249  55.783  1.00  0.00     0.001 A 
HETATM   27  C   UNL     1      29.925  43.102  54.832  1.00  0.00     0.014 A 
ENDBRANCH  18  22
ENDBRANCH  15  16
ENDBRANCH   1  15
TORSDOF 6
ENDMDL
MODEL 2
REMARK VINA RESULT:      -8.4      4.329      6.868
REMARK  6 active torsions:
REMARK  status: ('A' for Active; 'I' for Inactive)
REMARK       I    between atoms: C_2  and  N_3 
REMARK    1  A    between atoms: N_3  and  C_4 
REMARK    2  A    between atoms: C_7  and  C_8 
REMARK    3  A    between atoms: C_8  and  N_9 
REMARK    4  A    between atoms: N_9  and  C_11 
REMARK    5  A    between atoms: C_11  and  C_12 
REMARK    6  A    between atoms: C_14  and  C_15 
ROOT
HETATM    1  N   UNL     1      26.056  45.065  51.483  1.00  0.00    -0.063 N 
HETATM    2  H   UNL     1      25.317  44.433  51.135  1.00  0.00     0.280 HD
HETATM    3  C   UNL     1      25.967  46.364  50.760  1.00  0.00     0.270 C 
ENDROOT
BRANCH   1   4
HETATM    4  C   UNL     1      27.335  44.306  51.168  1.00  0.00     0.294 C 
BRANCH   4   5
HETATM    5  C   UNL     1      27.060  42.848  50.979  1.00  0.00     0.069 A 
HETATM    6  C   UNL     1      25.907  42.235  50.527  1.00  0.00     0.082 A 
HETATM    7  S   UNL     1      26.128  40.527  50.509  1.00  0.00    -0.062 SA
HETATM    8  C   UNL     1      27.723  40.745  51.063  1.00  0.00     0.173 A 
HETATM    9  N   UNL     1      28.090  41.977  51.303  1.00  0.00    -0.227 NA
BRANCH   8  10
HETATM   10  N   UNL     1      28.468  39.610  51.197  1.00  0.00    -0.306 N 
HETATM   11  C   UNL     1      29.088  39.038  50.106  1.00  0.00     0.219 C 
HETATM   12  C   UNL     1      29.904  37.829  50.486  1.00  0.00     0.117 C 
HETATM   13  O   UNL     1      28.990  39.410  48.939  1.00  0.00    -0.274 OA
HETATM   14  H   UNL     1      28.499  39.172  52.108  1.00  0.00     0.171 HD
ENDBRANCH   8  10
ENDBRANCH   4   5
ENDBRANCH   1   4
BRANCH   1  15
HETATM   15  C   UNL     1      25.748  45.182  52.963  1.00  0.00     0.312 C 
BRANCH  15  16
HETATM   16  C   UNL     1      26.899  45.587  53.824  1.00  0.00     0.130 A 
HETATM   17  N   UNL     1      27.767  44.785  54.411  1.00  0.00    -0.232 NA
HETATM   18  C   UNL     1      28.572  45.593  55.185  1.00  0.00     0.084 A 
HETATM   19  C   UNL     1      28.212  46.910  55.018  1.00  0.00     0.122 A 
HETATM   20  N   UNL     1      27.160  46.898  54.143  1.00  0.00    -0.351 N 
HETATM   21  H   UNL     1      26.653  47.714  53.820  1.00  0.00     0.166 HD
BRANCH  18  22
HETATM   22  C   UNL     1      29.621  45.079  56.050  1.00  0.00    -0.006 A 
HETATM   23  C   UNL     1      30.376  43.971  55.639  1.00  0.00     0.014 A 
HETATM   24  C   UNL     1      31.375  43.444  56.462  1.00  0.00     0.001 A 
HETATM   25  C   UNL     1      31.625  44.016  57.707  1.00  0.00     0.000 A 
HETATM   26  C   UNL     1      30.880  45.115  58.130  1.00  0.00     0.001 A 
HETATM   27  C   UNL     1      29.884  45.646  57.305  1.00  0.00     0.014 A 
ENDBRANCH  18  22
ENDBRANCH  15  16
ENDBRANCH   1  15
TORSDOF 6
ENDMDL
MODEL 3
REMARK VINA RESULT:      -8.4      5.480      7.907
REMARK  6 active torsions:
REMARK  status: ('A' for Active; 'I' for Inactive)
REMARK       I    between atoms: C_2  and  N_3 
REMARK    1  A    between atoms: N_3  and  C_4 
REMARK    2  A    between atoms: C_7  and  C_8 
REMARK    3  A    between atoms: C_8  and  N_9 
REMARK    4  A    between atoms: N_9  and  C_11 
REMARK    5  A    between atoms: C_11  and  C_12 
REMARK    6  A    between atoms: C_14  and  C_15 
ROOT
HETATM    1  N   UNL     1      26.191  41.962  50.046  1.00  0.00    -0.063 N 
HETATM    2  H   UNL     1      26.441  41.450  50.907  1.00  0.00     0.280 HD
HETATM    3  C   UNL     1      24.964  41.356  49.458  1.00  0.00     0.270 C 
ENDROOT
BRANCH   1   4
HETATM    4  C   UNL     1      27.415  41.777  49.165  1.00  0.00     0.294 C 
BRANCH   4   5
HETATM    5  C   UNL     1      27.660  40.327  48.887  1.00  0.00     0.069 A 
HETATM    6  C   UNL     1      27.664  39.666  47.674  1.00  0.00     0.082 A 
HETATM    7  S   UNL     1      27.996  37.995  47.926  1.00  0.00    -0.062 SA
HETATM    8  C   UNL     1      28.137  38.293  49.596  1.00  0.00     0.173 A 
HETATM    9  N   UNL     1      27.914  39.521  49.986  1.00  0.00    -0.227 NA
BRANCH   8  10
HETATM   10  N   UNL     1      28.477  37.219  50.366  1.00  0.00    -0.306 N 
HETATM   11  C   UNL     1      29.725  37.130  50.945  1.00  0.00     0.219 C 
HETATM   12  C   UNL     1      29.869  35.897  51.799  1.00  0.00     0.117 C 
HETATM   13  O   UNL     1      30.656  37.918  50.786  1.00  0.00    -0.274 OA
HETATM   14  H   UNL     1      27.806  36.467  50.447  1.00  0.00     0.171 HD
ENDBRANCH   8  10
ENDBRANCH   4   5
ENDBRANCH   1   4
BRANCH   1  15
HETATM   15  C   UNL     1      25.980  43.382  50.533  1.00  0.00     0.312 C 
BRANCH  15  16
HETATM   16  C   UNL     1      26.409  43.645  51.939  1.00  0.00     0.130 A 
HETATM   17  N   UNL     1      27.642  43.839  52.366  1.00  0.00    -0.232 NA
HETATM   18  C   UNL     1      27.563  43.926  53.740  1.00  0.00     0.084 A 
HETATM   19  C   UNL     1      26.250  43.834  54.140  1.00  0.00     0.122 A 
HETATM   20  N   UNL     1      25.524  43.670  52.990  1.00  0.00    -0.351 N 
HETATM   21  H   UNL     1      24.518  43.557  52.940  1.00  0.00     0.166 HD
BRANCH  18  22
HETATM   22  C   UNL     1      28.727  44.073  54.598  1.00  0.00    -0.006 A 
HETATM   23  C   UNL     1      28.914  45.266  55.311  1.00  0.00     0.014 A 
HETATM   24  C   UNL     1      30.036  45.440  56.126  1.00  0.00     0.001 A 
HETATM   25  C   UNL     1      30.986  44.427  56.230  1.00  0.00     0.000 A 
HETATM   26  C   UNL     1      30.814  43.238  55.523  1.00  0.00     0.001 A 
HETATM   27  C   UNL     1      29.689  43.060  54.712  1.00  0.00     0.014 A 
ENDBRANCH  18  22
ENDBRANCH  15  16
ENDBRANCH   1  15
TORSDOF 6
ENDMDL
MODEL 4
REMARK VINA RESULT:      -8.3      2.698      3.383
REMARK  6 active torsions:
REMARK  status: ('A' for Active; 'I' for Inactive)
REMARK       I    between atoms: C_2  and  N_3 
REMARK    1  A    between atoms: N_3  and  C_4 
REMARK    2  A    between atoms: C_7  and  C_8 
REMARK    3  A    between atoms: C_8  and  N_9 
REMARK    4  A    between atoms: N_9  and  C_11 
REMARK    5  A    between atoms: C_11  and  C_12 
REMARK    6  A    between atoms: C_14  and  C_15 
ROOT
HETATM    1  N   UNL     1      26.097  42.420  49.656  1.00  0.00    -0.063 N 
HETATM    2  H   UNL     1      26.359  43.162  48.986  1.00  0.00     0.280 HD
HETATM    3  C   UNL     1      25.236  41.421  48.965  1.00  0.00     0.270 C 
ENDROOT
BRANCH   1   4
HETATM    4  C   UNL     1      25.355  43.182  50.742  1.00  0.00     0.294 C 
BRANCH   4   5
HETATM    5  C   UNL     1      24.983  44.553  50.275  1.00  0.00     0.069 A 
HETATM    6  C   UNL     1      23.765  45.011  49.811  1.00  0.00     0.082 A 
HETATM    7  S   UNL     1      23.890  46.678  49.399  1.00  0.00    -0.062 SA
HETATM    8  C   UNL     1      25.519  46.660  49.894  1.00  0.00     0.173 A 
HETATM    9  N   UNL     1      25.989  45.509  50.298  1.00  0.00    -0.227 NA
BRANCH   8  10
HETATM   10  N   UNL     1      26.176  47.854  49.828  1.00  0.00    -0.306 N 
HETATM   11  C   UNL     1      27.404  47.952  49.208  1.00  0.00     0.219 C 
HETATM   12  C   UNL     1      27.923  49.366  49.196  1.00  0.00     0.117 C 
HETATM   13  O   UNL     1      28.056  47.021  48.739  1.00  0.00    -0.274 OA
HETATM   14  H   UNL     1      25.760  48.647  50.297  1.00  0.00     0.171 HD
ENDBRANCH   8  10
ENDBRANCH   4   5
ENDBRANCH   1   4
BRANCH   1  15
HETATM   15  C   UNL     1      27.435  41.855  50.092  1.00  0.00     0.312 C 
BRANCH  15  16
HETATM   16  C   UNL     1      27.754  42.020  51.542  1.00  0.00     0.130 A 
HETATM   17  N   UNL     1      28.312  43.071  52.114  1.00  0.00    -0.232 NA
HETATM   18  C   UNL     1      28.514  42.727  53.433  1.00  0.00     0.084 A 
HETATM   19  C   UNL     1      28.020  41.464  53.669  1.00  0.00     0.122 A 
HETATM   20  N   UNL     1      27.529  41.030  52.467  1.00  0.00    -0.351 N 
HETATM   21  H   UNL     1      27.104  40.125  52.297  1.00  0.00     0.166 HD
BRANCH  18  22
HETATM   22  C   UNL     1      29.174  43.597  54.392  1.00  0.00    -0.006 A 
HETATM   23  C   UNL     1      30.381  43.189  54.980  1.00  0.00     0.014 A 
HETATM   24  C   UNL     1      31.024  43.998  55.921  1.00  0.00     0.001 A 
HETATM   25  C   UNL     1      30.463  45.218  56.289  1.00  0.00     0.000 A 
HETATM   26  C   UNL     1      29.263  45.634  55.716  1.00  0.00     0.001 A 
HETATM   27  C   UNL     1      28.622  44.828  54.771  1.00  0.00     0.014 A 
ENDBRANCH  18  22
ENDBRANCH  15  16
ENDBRANCH   1  15
TORSDOF 6
ENDMDL
MODEL 5
REMARK VINA RESULT:      -8.2      1.661      2.124
REMARK  6 active torsions:
REMARK  status: ('A' for Active; 'I' for Inactive)
REMARK       I    between atoms: C_2  and  N_3 
REMARK    1  A    between atoms: N_3  and  C_4 
REMARK    2  A    between atoms: C_7  and  C_8 
REMARK    3  A    between atoms: C_8  and  N_9 
REMARK    4  A    between atoms: N_9  and  C_11 
REMARK    5  A    between atoms: C_11  and  C_12 
REMARK    6  A    between atoms: C_14  and  C_15 
ROOT
HETATM    1  N   UNL     1      25.721  44.246  50.584  1.00  0.00    -0.063 N 
HETATM    2  H   UNL     1      25.186  43.909  49.768  1.00  0.00     0.280 HD
HETATM    3  C   UNL     1      24.989  43.883  51.829  1.00  0.00     0.270 C 
ENDROOT
BRANCH   1   4
HETATM    4  C   UNL     1      25.786  45.747  50.360  1.00  0.00     0.294 C 
BRANCH   4   5
HETATM    5  C   UNL     1      24.537  46.245  49.703  1.00  0.00     0.069 A 
HETATM    6  C   UNL     1      23.646  45.557  48.901  1.00  0.00     0.082 A 
HETATM    7  S   UNL     1      22.381  46.613  48.403  1.00  0.00    -0.062 SA
HETATM    8  C   UNL     1      23.094  47.866  49.308  1.00  0.00     0.173 A 
HETATM    9  N   UNL     1      24.217  47.578  49.913  1.00  0.00    -0.227 NA
BRANCH   8  10
HETATM   10  N   UNL     1      22.418  49.052  49.320  1.00  0.00    -0.306 N 
HETATM   11  C   UNL     1      22.586  49.972  48.306  1.00  0.00     0.219 C 
HETATM   12  C   UNL     1      21.705  51.181  48.484  1.00  0.00     0.117 C 
HETATM   13  O   UNL     1      23.373  49.879  47.366  1.00  0.00    -0.274 OA
HETATM   14  H   UNL     1      21.840  49.256  50.124  1.00  0.00     0.171 HD
ENDBRANCH   8  10
ENDBRANCH   4   5
ENDBRANCH   1   4
BRANCH   1  15
HETATM   15  C   UNL     1      27.053  43.535  50.446  1.00  0.00     0.312 C 
BRANCH  15  16
HETATM   16  C   UNL     1      27.732  43.199  51.733  1.00  0.00     0.130 A 
HETATM   17  N   UNL     1      28.150  44.049  52.652  1.00  0.00    -0.232 NA
HETATM   18  C   UNL     1      28.811  43.296  53.598  1.00  0.00     0.084 A 
HETATM   19  C   UNL     1      28.743  41.962  53.267  1.00  0.00     0.122 A 
HETATM   20  N   UNL     1      28.046  41.909  52.090  1.00  0.00    -0.351 N 
HETATM   21  H   UNL     1      27.832  41.066  51.570  1.00  0.00     0.166 HD
BRANCH  18  22
HETATM   22  C   UNL     1      29.483  43.874  54.750  1.00  0.00    -0.006 A 
HETATM   23  C   UNL     1      30.567  43.199  55.330  1.00  0.00     0.014 A 
HETATM   24  C   UNL     1      31.216  43.723  56.451  1.00  0.00     0.001 A 
HETATM   25  C   UNL     1      30.784  44.923  57.008  1.00  0.00     0.000 A 
HETATM   26  C   UNL     1      29.705  45.603  56.445  1.00  0.00     0.001 A 
HETATM   27  C   UNL     1      29.059  45.082  55.320  1.00  0.00     0.014 A 
ENDBRANCH  18  22
ENDBRANCH  15  16
ENDBRANCH   1  15
TORSDOF 6
ENDMDL
MODEL 6
REMARK VINA RESULT:      -8.2      2.967      4.384
REMARK  6 active torsions:
REMARK  status: ('A' for Active; 'I' for Inactive)
REMARK       I    between atoms: C_2  and  N_3 
REMARK    1  A    between atoms: N_3  and  C_4 
REMARK    2  A    between atoms: C_7  and  C_8 
REMARK    3  A    between atoms: C_8  and  N_9 
REMARK    4  A    between atoms: N_9  and  C_11 
REMARK    5  A    between atoms: C_11  and  C_12 
REMARK    6  A    between atoms: C_14  and  C_15 
ROOT
HETATM    1  N   UNL     1      27.409  40.910  49.569  1.00  0.00    -0.063 N 
HETATM    2  H   UNL     1      27.283  41.935  49.577  1.00  0.00     0.280 HD
HETATM    3  C   UNL     1      28.402  40.549  48.519  1.00  0.00     0.270 C 
ENDROOT
BRANCH   1   4
HETATM    4  C   UNL     1      26.014  40.393  49.257  1.00  0.00     0.294 C 
BRANCH   4   5
HETATM    5  C   UNL     1      25.062  41.525  49.031  1.00  0.00     0.069 A 
HETATM    6  C   UNL     1      23.755  41.482  48.585  1.00  0.00     0.082 A 
HETATM    7  S   UNL     1      23.120  43.080  48.499  1.00  0.00    -0.062 SA
HETATM    8  C   UNL     1      24.601  43.682  49.084  1.00  0.00     0.173 A 
HETATM    9  N   UNL     1      25.542  42.799  49.295  1.00  0.00    -0.227 NA
BRANCH   8  10
HETATM   10  N   UNL     1      24.660  45.030  49.282  1.00  0.00    -0.306 N 
HETATM   11  C   UNL     1      24.597  45.562  50.553  1.00  0.00     0.219 C 
HETATM   12  C   UNL     1      24.739  47.062  50.550  1.00  0.00     0.117 C 
HETATM   13  O   UNL     1      24.413  44.934  51.594  1.00  0.00    -0.274 OA
HETATM   14  H   UNL     1      24.691  45.625  48.465  1.00  0.00     0.171 HD
ENDBRANCH   8  10
ENDBRANCH   4   5
ENDBRANCH   1   4
BRANCH   1  15
HETATM   15  C   UNL     1      27.888  40.605  50.974  1.00  0.00     0.312 C 
BRANCH  15  16
HETATM   16  C   UNL     1      27.858  41.758  51.923  1.00  0.00     0.130 A 
HETATM   17  N   UNL     1      28.852  42.186  52.678  1.00  0.00    -0.232 NA
HETATM   18  C   UNL     1      28.329  43.192  53.464  1.00  0.00     0.084 A 
HETATM   19  C   UNL     1      27.010  43.405  53.136  1.00  0.00     0.122 A 
HETATM   20  N   UNL     1      26.724  42.501  52.149  1.00  0.00    -0.351 N 
HETATM   21  H   UNL     1      25.824  42.389  51.696  1.00  0.00     0.166 HD
BRANCH  18  22
HETATM   22  C   UNL     1      29.095  43.882  54.488  1.00  0.00    -0.006 A 
HETATM   23  C   UNL     1      30.237  43.272  55.027  1.00  0.00     0.014 A 
HETATM   24  C   UNL     1      30.978  43.905  56.028  1.00  0.00     0.001 A 
HETATM   25  C   UNL     1      30.580  45.151  56.507  1.00  0.00     0.000 A 
HETATM   26  C   UNL     1      29.445  45.766  55.984  1.00  0.00     0.001 A 
HETATM   27  C   UNL     1      28.706  45.136  54.978  1.00  0.00     0.014 A 
ENDBRANCH  18  22
ENDBRANCH  15  16
ENDBRANCH   1  15
TORSDOF 6
ENDMDL
MODEL 7
REMARK VINA RESULT:      -7.9      4.695      6.266
REMARK  6 active torsions:
REMARK  status: ('A' for Active; 'I' for Inactive)
REMARK       I    between atoms: C_2  and  N_3 
REMARK    1  A    between atoms: N_3  and  C_4 
REMARK    2  A    between atoms: C_7  and  C_8 
REMARK    3  A    between atoms: C_8  and  N_9 
REMARK    4  A    between atoms: N_9  and  C_11 
REMARK    5  A    between atoms: C_11  and  C_12 
REMARK    6  A    between atoms: C_14  and  C_15 
ROOT
HETATM    1  N   UNL     1      25.939  43.740  51.591  1.00  0.00    -0.063 N 
HETATM    2  H   UNL     1      26.071  42.944  52.235  1.00  0.00     0.280 HD
HETATM    3  C   UNL     1      24.984  44.707  52.201  1.00  0.00     0.270 C 
ENDROOT
BRANCH   1   4
HETATM    4  C   UNL     1      25.385  43.082  50.338  1.00  0.00     0.294 C 
BRANCH   4   5
HETATM    5  C   UNL     1      26.303  42.009  49.846  1.00  0.00     0.069 A 
HETATM    6  C   UNL     1      26.678  40.835  50.472  1.00  0.00     0.082 A 
HETATM    7  S   UNL     1      27.765  39.962  49.461  1.00  0.00    -0.062 SA
HETATM    8  C   UNL     1      27.622  41.181  48.282  1.00  0.00     0.173 A 
HETATM    9  N   UNL     1      26.869  42.204  48.595  1.00  0.00    -0.227 NA
BRANCH   8  10
HETATM   10  N   UNL     1      28.303  40.969  47.119  1.00  0.00    -0.306 N 
HETATM   11  C   UNL     1      27.630  40.712  45.943  1.00  0.00     0.219 C 
HETATM   12  C   UNL     1      28.568  40.567  44.772  1.00  0.00     0.117 C 
HETATM   13  O   UNL     1      26.416  40.572  45.817  1.00  0.00    -0.274 OA
HETATM   14  H   UNL     1      29.312  40.949  47.162  1.00  0.00     0.171 HD
ENDBRANCH   8  10
ENDBRANCH   4   5
ENDBRANCH   1   4
BRANCH   1  15
HETATM   15  C   UNL     1      27.339  44.300  51.435  1.00  0.00     0.312 C 
BRANCH  15  16
HETATM   16  C   UNL     1      28.322  43.858  52.469  1.00  0.00     0.130 A 
HETATM   17  N   UNL     1      28.511  44.393  53.660  1.00  0.00    -0.232 NA
HETATM   18  C   UNL     1      29.587  43.732  54.211  1.00  0.00     0.084 A 
HETATM   19  C   UNL     1      30.019  42.745  53.355  1.00  0.00     0.122 A 
HETATM   20  N   UNL     1      29.202  42.823  52.260  1.00  0.00    -0.351 N 
HETATM   21  H   UNL     1      29.265  42.237  51.434  1.00  0.00     0.166 HD
BRANCH  18  22
HETATM   22  C   UNL     1      30.159  44.076  55.502  1.00  0.00    -0.006 A 
HETATM   23  C   UNL     1      31.089  43.212  56.099  1.00  0.00     0.014 A 
HETATM   24  C   UNL     1      31.637  43.510  57.350  1.00  0.00     0.001 A 
HETATM   25  C   UNL     1      31.254  44.669  58.020  1.00  0.00     0.000 A 
HETATM   26  C   UNL     1      30.328  45.534  57.440  1.00  0.00     0.001 A 
HETATM   27  C   UNL     1      29.784  45.240  56.186  1.00  0.00     0.014 A 
ENDBRANCH  18  22
ENDBRANCH  15  16
ENDBRANCH   1  15
TORSDOF 6
ENDMDL
MODEL 8
REMARK VINA RESULT:      -7.8      1.713      2.145
REMARK  6 active torsions:
REMARK  status: ('A' for Active; 'I' for Inactive)
REMARK       I    between atoms: C_2  and  N_3 
REMARK    1  A    between atoms: N_3  and  C_4 
REMARK    2  A    between atoms: C_7  and  C_8 
REMARK    3  A    between atoms: C_8  and  N_9 
REMARK    4  A    between atoms: N_9  and  C_11 
REMARK    5  A    between atoms: C_11  and  C_12 
REMARK    6  A    between atoms: C_14  and  C_15 
ROOT
HETATM    1  N   UNL     1      25.774  46.578  50.385  1.00  0.00    -0.063 N 
HETATM    2  H   UNL     1      26.657  46.048  50.460  1.00  0.00     0.280 HD
HETATM    3  C   UNL     1      24.893  45.918  49.382  1.00  0.00     0.270 C 
ENDROOT
BRANCH   1   4
HETATM    4  C   UNL     1      26.235  47.957  49.940  1.00  0.00     0.294 C 
BRANCH   4   5
HETATM    5  C   UNL     1      25.105  48.731  49.340  1.00  0.00     0.069 A 
HETATM    6  C   UNL     1      25.105  49.535  48.216  1.00  0.00     0.082 A 
HETATM    7  S   UNL     1      23.533  50.196  47.976  1.00  0.00    -0.062 SA
HETATM    8  C   UNL     1      22.986  49.345  49.345  1.00  0.00     0.173 A 
HETATM    9  N   UNL     1      23.883  48.648  49.991  1.00  0.00    -0.227 NA
BRANCH   8  10
HETATM   10  N   UNL     1      21.658  49.470  49.633  1.00  0.00    -0.306 N 
HETATM   11  C   UNL     1      20.745  48.541  49.178  1.00  0.00     0.219 C 
HETATM   12  C   UNL     1      19.347  48.836  49.657  1.00  0.00     0.117 C 
HETATM   13  O   UNL     1      20.986  47.590  48.438  1.00  0.00    -0.274 OA
HETATM   14  H   UNL     1      21.361  50.294  50.137  1.00  0.00     0.171 HD
ENDBRANCH   8  10
ENDBRANCH   4   5
ENDBRANCH   1   4
BRANCH   1  15
HETATM   15  C   UNL     1      25.216  46.530  51.794  1.00  0.00     0.312 C 
BRANCH  15  16
HETATM   16  C   UNL     1      25.955  45.643  52.742  1.00  0.00     0.130 A 
HETATM   17  N   UNL     1      27.106  45.902  53.332  1.00  0.00    -0.232 NA
HETATM   18  C   UNL     1      27.450  44.758  54.019  1.00  0.00     0.084 A 
HETATM   19  C   UNL     1      26.459  43.812  53.880  1.00  0.00     0.122 A 
HETATM   20  N   UNL     1      25.509  44.388  53.080  1.00  0.00    -0.351 N 
HETATM   21  H   UNL     1      24.650  43.945  52.775  1.00  0.00     0.166 HD
BRANCH  18  22
HETATM   22  C   UNL     1      28.696  44.612  54.752  1.00  0.00    -0.006 A 
HETATM   23  C   UNL     1      29.445  43.433  54.616  1.00  0.00     0.014 A 
HETATM   24  C   UNL     1      30.636  43.260  55.327  1.00  0.00     0.001 A 
HETATM   25  C   UNL     1      31.086  44.259  56.186  1.00  0.00     0.000 A 
HETATM   26  C   UNL     1      30.350  45.433  56.333  1.00  0.00     0.001 A 
HETATM   27  C   UNL     1      29.162  45.610  55.619  1.00  0.00     0.014 A 
ENDBRANCH  18  22
ENDBRANCH  15  16
ENDBRANCH   1  15
TORSDOF 6
ENDMDL
MODEL 9
REMARK VINA RESULT:      -7.7      4.533      6.469
REMARK  6 active torsions:
REMARK  status: ('A' for Active; 'I' for Inactive)
REMARK       I    between atoms: C_2  and  N_3 
REMARK    1  A    between atoms: N_3  and  C_4 
REMARK    2  A    between atoms: C_7  and  C_8 
REMARK    3  A    between atoms: C_8  and  N_9 
REMARK    4  A    between atoms: N_9  and  C_11 
REMARK    5  A    between atoms: C_11  and  C_12 
REMARK    6  A    between atoms: C_14  and  C_15 
ROOT
HETATM    1  N   UNL     1      25.636  44.009  50.712  1.00  0.00    -0.063 N 
HETATM    2  H   UNL     1      25.875  43.062  51.045  1.00  0.00     0.280 HD
HETATM    3  C   UNL     1      24.329  44.418  51.298  1.00  0.00     0.270 C 
ENDROOT
BRANCH   1   4
HETATM    4  C   UNL     1      25.572  43.839  49.203  1.00  0.00     0.294 C 
BRANCH   4   5
HETATM    5  C   UNL     1      25.781  42.409  48.817  1.00  0.00     0.069 A 
HETATM    6  C   UNL     1      24.872  41.512  48.289  1.00  0.00     0.082 A 
HETATM    7  S   UNL     1      25.638  39.991  48.035  1.00  0.00    -0.062 SA
HETATM    8  C   UNL     1      27.099  40.651  48.608  1.00  0.00     0.173 A 
HETATM    9  N   UNL     1      27.053  41.894  49.013  1.00  0.00    -0.227 NA
BRANCH   8  10
HETATM   10  N   UNL     1      28.180  39.819  48.583  1.00  0.00    -0.306 N 
HETATM   11  C   UNL     1      28.796  39.423  49.752  1.00  0.00     0.219 C 
HETATM   12  C   UNL     1      29.928  38.462  49.500  1.00  0.00     0.117 C 
HETATM   13  O   UNL     1      28.515  39.808  50.885  1.00  0.00    -0.274 OA
HETATM   14  H   UNL     1      28.548  39.553  47.680  1.00  0.00     0.171 HD
ENDBRANCH   8  10
ENDBRANCH   4   5
ENDBRANCH   1   4
BRANCH   1  15
HETATM   15  C   UNL     1      26.798  44.854  51.196  1.00  0.00     0.312 C 
BRANCH  15  16
HETATM   16  C   UNL     1      27.709  44.185  52.172  1.00  0.00     0.130 A 
HETATM   17  N   UNL     1      28.115  44.666  53.332  1.00  0.00    -0.232 NA
HETATM   18  C   UNL     1      29.026  43.756  53.826  1.00  0.00     0.084 A 
HETATM   19  C   UNL     1      29.128  42.684  52.970  1.00  0.00     0.122 A 
HETATM   20  N   UNL     1      28.280  42.958  51.931  1.00  0.00    -0.351 N 
HETATM   21  H   UNL     1      28.131  42.368  51.121  1.00  0.00     0.166 HD
BRANCH  18  22
HETATM   22  C   UNL     1      29.760  43.955  55.064  1.00  0.00    -0.006 A 
HETATM   23  C   UNL     1      29.578  45.139  55.794  1.00  0.00     0.014 A 
HETATM   24  C   UNL     1      30.288  45.363  56.977  1.00  0.00     0.001 A 
HETATM   25  C   UNL     1      31.193  44.410  57.438  1.00  0.00     0.000 A 
HETATM   26  C   UNL     1      31.386  43.231  56.720  1.00  0.00     0.001 A 
HETATM   27  C   UNL     1      30.672  43.003  55.540  1.00  0.00     0.014 A 
ENDBRANCH  18  22
ENDBRANCH  15  16
ENDBRANCH   1  15
TORSDOF 6
ENDMDL
MODEL 10
REMARK VINA RESULT:      -7.5     11.615     12.921
REMARK  6 active torsions:
REMARK  status: ('A' for Active; 'I' for Inactive)
REMARK       I    between atoms: C_2  and  N_3 
REMARK    1  A    between atoms: N_3  and  C_4 
REMARK    2  A    between atoms: C_7  and  C_8 
REMARK    3  A    between atoms: C_8  and  N_9 
REMARK    4  A    between atoms: N_9  and  C_11 
REMARK    5  A    between atoms: C_11  and  C_12 
REMARK    6  A    between atoms: C_14  and  C_15 
ROOT
HETATM    1  N   UNL     1      27.822  48.554  40.176  1.00  0.00    -0.063 N 
HETATM    2  H   UNL     1      28.494  48.588  39.392  1.00  0.00     0.280 HD
HETATM    3  C   UNL     1      26.601  47.822  39.740  1.00  0.00     0.270 C 
ENDROOT
BRANCH   1   4
HETATM    4  C   UNL     1      27.553  50.022  40.464  1.00  0.00     0.294 C 
BRANCH   4   5
HETATM    5  C   UNL     1      28.368  50.901  39.570  1.00  0.00     0.069 A 
HETATM    6  C   UNL     1      27.939  51.790  38.602  1.00  0.00     0.082 A 
HETATM    7  S   UNL     1      29.300  52.541  37.861  1.00  0.00    -0.062 SA
HETATM    8  C   UNL     1      30.327  51.662  38.896  1.00  0.00     0.173 A 
HETATM    9  N   UNL     1      29.745  50.824  39.714  1.00  0.00    -0.227 NA
BRANCH   8  10
HETATM   10  N   UNL     1      31.661  51.922  38.774  1.00  0.00    -0.306 N 
HETATM   11  C   UNL     1      32.342  52.602  39.763  1.00  0.00     0.219 C 
HETATM   12  C   UNL     1      33.811  52.730  39.455  1.00  0.00     0.117 C 
HETATM   13  O   UNL     1      31.849  53.095  40.775  1.00  0.00    -0.274 OA
HETATM   14  H   UNL     1      32.116  51.654  37.912  1.00  0.00     0.171 HD
ENDBRANCH   8  10
ENDBRANCH   4   5
ENDBRANCH   1   4
BRANCH   1  15
HETATM   15  C   UNL     1      28.592  47.835  41.266  1.00  0.00     0.312 C 
BRANCH  15  16
HETATM   16  C   UNL     1      30.023  48.240  41.409  1.00  0.00     0.130 A 
HETATM   17  N   UNL     1      30.511  49.130  42.253  1.00  0.00    -0.232 NA
HETATM   18  C   UNL     1      31.850  49.253  41.946  1.00  0.00     0.084 A 
HETATM   19  C   UNL     1      32.181  48.381  40.935  1.00  0.00     0.122 A 
HETATM   20  N   UNL     1      31.020  47.734  40.610  1.00  0.00    -0.351 N 
HETATM   21  H   UNL     1      30.920  47.030  39.887  1.00  0.00     0.166 HD
BRANCH  18  22
HETATM   22  C   UNL     1      32.736  50.194  42.610  1.00  0.00    -0.006 A 
HETATM   23  C   UNL     1      32.252  50.967  43.675  1.00  0.00     0.014 A 
HETATM   24  C   UNL     1      33.078  51.895  44.316  1.00  0.00     0.001 A 
HETATM   25  C   UNL     1      34.394  52.064  43.893  1.00  0.00     0.000 A 
HETATM   26  C   UNL     1      34.887  51.305  42.834  1.00  0.00     0.001 A 
HETATM   27  C   UNL     1      34.063  50.373  42.196  1.00  0.00     0.014 A 
ENDBRANCH  18  22
ENDBRANCH  15  16
ENDBRANCH   1  15
TORSDOF 6
ENDMDL
