MODEL 1
REMARK VINA RESULT:      -8.4      0.000      0.000
REMARK  5 active torsions:
REMARK  status: ('A' for Active; 'I' for Inactive)
REMARK    1  A    between atoms: C_8  and  N_9 
REMARK       I    between atoms: N_9  and  C_10 
REMARK       I    between atoms: C_10  and  N_11 
REMARK    2  A    between atoms: N_11  and  C_12 
REMARK    3  A    between atoms: C_13  and  O_14 
REMARK    4  A    between atoms: O_14  and  C_15 
REMARK    5  A    between atoms: C_15  and  C_16 
ROOT
HETATM    1  N   UNL     1      28.752  40.982  50.972  1.00  0.00    -0.305 N 
HETATM    2  C   UNL     1      28.733  41.390  52.292  1.00  0.00     0.325 C 
HETATM    3  N   UNL     1      29.612  42.441  52.480  1.00  0.00    -0.306 N 
HETATM    4  O   UNL     1      28.031  40.907  53.172  1.00  0.00    -0.247 OA
HETATM    5  H   UNL     1      28.928  41.711  50.297  1.00  0.00     0.171 HD
HETATM    6  H   UNL     1      30.420  42.455  51.869  1.00  0.00     0.171 HD
ENDROOT
BRANCH   3   7
HETATM    7  C   UNL     1      29.694  43.274  53.615  1.00  0.00     0.070 A 
HETATM    8  C   UNL     1      28.744  44.300  53.749  1.00  0.00     0.097 A 
HETATM    9  C   UNL     1      28.715  45.112  54.884  1.00  0.00     0.063 A 
HETATM   10  C   UNL     1      29.669  44.918  55.881  1.00  0.00     0.036 A 
HETATM   11 CL   UNL     1      29.650  45.915  57.283  1.00  0.00    -0.084 Cl
HETATM   12  C   UNL     1      30.636  43.923  55.752  1.00  0.00     0.026 A 
HETATM   13  C   UNL     1      30.646  43.098  54.621  1.00  0.00     0.034 A 
BRANCH   8  14
HETATM   14  O   UNL     1      27.825  44.472  52.741  1.00  0.00    -0.340 OA
BRANCH  14  15
HETATM   15  C   UNL     1      26.724  45.293  53.180  1.00  0.00     0.293 C 
BRANCH  15  16
HETATM   16  C   UNL     1      25.414  44.538  53.029  1.00  0.00     0.408 C 
HETATM   17  F   UNL     1      25.612  43.317  52.481  1.00  0.00    -0.169 F 
HETATM   18  F   UNL     1      24.799  44.362  54.219  1.00  0.00    -0.169 F 
HETATM   19  F   UNL     1      24.562  45.214  52.225  1.00  0.00    -0.169 F 
ENDBRANCH  15  16
ENDBRANCH  14  15
ENDBRANCH   8  14
ENDBRANCH   3   7
BRANCH   1  20
HETATM   20  C   UNL     1      28.148  39.833  50.491  1.00  0.00     0.086 A 
HETATM   21  C   UNL     1      26.819  39.780  50.123  1.00  0.00     0.052 A 
HETATM   22  C   UNL     1      25.726  40.779  50.161  1.00  0.00     0.072 C 
HETATM   23  N   UNL     1      26.603  38.496  49.704  1.00  0.00    -0.280 N 
HETATM   24  H   UNL     1      25.737  38.080  49.380  1.00  0.00     0.189 HD
HETATM   25  N   UNL     1      27.695  37.725  49.731  1.00  0.00    -0.177 NA
HETATM   26  C   UNL     1      28.655  38.532  50.209  1.00  0.00     0.079 A 
HETATM   27  C   UNL     1      30.042  38.009  50.308  1.00  0.00     0.075 C 
ENDBRANCH   1  20
TORSDOF 5
ENDMDL
MODEL 2
REMARK VINA RESULT:      -8.2      0.674      1.915
REMARK  5 active torsions:
REMARK  status: ('A' for Active; 'I' for Inactive)
REMARK    1  A    between atoms: C_8  and  N_9 
REMARK       I    between atoms: N_9  and  C_10 
REMARK       I    between atoms: C_10  and  N_11 
REMARK    2  A    between atoms: N_11  and  C_12 
REMARK    3  A    between atoms: C_13  and  O_14 
REMARK    4  A    between atoms: O_14  and  C_15 
REMARK    5  A    between atoms: C_15  and  C_16 
ROOT
HETATM    1  N   UNL     1      28.799  40.942  50.912  1.00  0.00    -0.305 N 
HETATM    2  C   UNL     1      28.745  41.356  52.230  1.00  0.00     0.325 C 
HETATM    3  N   UNL     1      29.637  42.391  52.443  1.00  0.00    -0.306 N 
HETATM    4  O   UNL     1      28.005  40.890  53.088  1.00  0.00    -0.247 OA
HETATM    5  H   UNL     1      29.011  41.665  50.241  1.00  0.00     0.171 HD
HETATM    6  H   UNL     1      30.465  42.387  51.859  1.00  0.00     0.171 HD
ENDROOT
BRANCH   3   7
HETATM    7  C   UNL     1      29.697  43.227  53.577  1.00  0.00     0.070 A 
HETATM    8  C   UNL     1      28.746  44.255  53.689  1.00  0.00     0.097 A 
HETATM    9  C   UNL     1      28.696  45.070  54.821  1.00  0.00     0.063 A 
HETATM   10  C   UNL     1      29.630  44.877  55.838  1.00  0.00     0.036 A 
HETATM   11 CL   UNL     1      29.585  45.877  57.236  1.00  0.00    -0.084 Cl
HETATM   12  C   UNL     1      30.598  43.880  55.730  1.00  0.00     0.026 A 
HETATM   13  C   UNL     1      30.629  43.052  54.602  1.00  0.00     0.034 A 
BRANCH   8  14
HETATM   14  O   UNL     1      27.848  44.425  52.663  1.00  0.00    -0.340 OA
BRANCH  14  15
HETATM   15  C   UNL     1      26.498  44.188  53.112  1.00  0.00     0.293 C 
BRANCH  15  16
HETATM   16  C   UNL     1      25.651  45.433  52.907  1.00  0.00     0.408 C 
HETATM   17  F   UNL     1      25.350  46.020  54.088  1.00  0.00    -0.169 F 
HETATM   18  F   UNL     1      26.284  46.346  52.140  1.00  0.00    -0.169 F 
HETATM   19  F   UNL     1      24.486  45.123  52.295  1.00  0.00    -0.169 F 
ENDBRANCH  15  16
ENDBRANCH  14  15
ENDBRANCH   8  14
ENDBRANCH   3   7
BRANCH   1  20
HETATM   20  C   UNL     1      28.189  39.803  50.415  1.00  0.00     0.086 A 
HETATM   21  C   UNL     1      28.784  38.557  50.447  1.00  0.00     0.052 A 
HETATM   22  C   UNL     1      30.111  38.090  50.909  1.00  0.00     0.072 C 
HETATM   23  N   UNL     1      27.881  37.704  49.875  1.00  0.00    -0.280 N 
HETATM   24  H   UNL     1      27.980  36.709  49.706  1.00  0.00     0.189 HD
HETATM   25  N   UNL     1      26.733  38.288  49.515  1.00  0.00    -0.177 NA
HETATM   26  C   UNL     1      26.905  39.578  49.843  1.00  0.00     0.079 A 
HETATM   27  C   UNL     1      25.776  40.521  49.639  1.00  0.00     0.075 C 
ENDBRANCH   1  20
TORSDOF 5
ENDMDL
MODEL 3
REMARK VINA RESULT:      -7.9      1.705      2.062
REMARK  5 active torsions:
REMARK  status: ('A' for Active; 'I' for Inactive)
REMARK    1  A    between atoms: C_8  and  N_9 
REMARK       I    between atoms: N_9  and  C_10 
REMARK       I    between atoms: C_10  and  N_11 
REMARK    2  A    between atoms: N_11  and  C_12 
REMARK    3  A    between atoms: C_13  and  O_14 
REMARK    4  A    between atoms: O_14  and  C_15 
REMARK    5  A    between atoms: C_15  and  C_16 
ROOT
HETATM    1  N   UNL     1      27.984  42.395  51.458  1.00  0.00    -0.305 N 
HETATM    2  C   UNL     1      28.314  42.420  52.800  1.00  0.00     0.325 C 
HETATM    3  N   UNL     1      29.272  43.390  53.037  1.00  0.00    -0.306 N 
HETATM    4  O   UNL     1      27.825  41.703  53.663  1.00  0.00    -0.247 OA
HETATM    5  H   UNL     1      28.029  43.286  50.986  1.00  0.00     0.171 HD
HETATM    6  H   UNL     1      29.903  43.584  52.269  1.00  0.00     0.171 HD
ENDROOT
BRANCH   3   7
HETATM    7  C   UNL     1      29.679  43.876  54.297  1.00  0.00     0.070 A 
HETATM    8  C   UNL     1      28.996  44.983  54.828  1.00  0.00     0.097 A 
HETATM    9  C   UNL     1      29.292  45.468  56.103  1.00  0.00     0.063 A 
HETATM   10  C   UNL     1      30.306  44.861  56.841  1.00  0.00     0.036 A 
HETATM   11 CL   UNL     1      30.687  45.452  58.412  1.00  0.00    -0.084 Cl
HETATM   12  C   UNL     1      31.013  43.779  56.318  1.00  0.00     0.026 A 
HETATM   13  C   UNL     1      30.696  43.284  55.048  1.00  0.00     0.034 A 
BRANCH   8  14
HETATM   14  O   UNL     1      28.010  45.565  54.069  1.00  0.00    -0.340 OA
BRANCH  14  15
HETATM   15  C   UNL     1      27.603  46.830  54.631  1.00  0.00     0.293 C 
BRANCH  15  16
HETATM   16  C   UNL     1      26.233  47.221  54.104  1.00  0.00     0.408 C 
HETATM   17  F   UNL     1      26.285  47.539  52.790  1.00  0.00    -0.169 F 
HETATM   18  F   UNL     1      25.337  46.221  54.253  1.00  0.00    -0.169 F 
HETATM   19  F   UNL     1      25.755  48.298  54.767  1.00  0.00    -0.169 F 
ENDBRANCH  15  16
ENDBRANCH  14  15
ENDBRANCH   8  14
ENDBRANCH   3   7
BRANCH   1  20
HETATM   20  C   UNL     1      27.214  41.417  50.852  1.00  0.00     0.086 A 
HETATM   21  C   UNL     1      25.878  41.590  50.551  1.00  0.00     0.052 A 
HETATM   22  C   UNL     1      24.931  42.704  50.789  1.00  0.00     0.072 C 
HETATM   23  N   UNL     1      25.477  40.420  49.967  1.00  0.00    -0.280 N 
HETATM   24  H   UNL     1      24.552  40.171  49.634  1.00  0.00     0.189 HD
HETATM   25  N   UNL     1      26.456  39.520  49.826  1.00  0.00    -0.177 NA
HETATM   26  C   UNL     1      27.532  40.118  50.362  1.00  0.00     0.079 A 
HETATM   27  C   UNL     1      28.838  39.413  50.311  1.00  0.00     0.075 C 
ENDBRANCH   1  20
TORSDOF 5
ENDMDL
MODEL 4
REMARK VINA RESULT:      -7.9      2.383      3.553
REMARK  5 active torsions:
REMARK  status: ('A' for Active; 'I' for Inactive)
REMARK    1  A    between atoms: C_8  and  N_9 
REMARK       I    between atoms: N_9  and  C_10 
REMARK       I    between atoms: C_10  and  N_11 
REMARK    2  A    between atoms: N_11  and  C_12 
REMARK    3  A    between atoms: C_13  and  O_14 
REMARK    4  A    between atoms: O_14  and  C_15 
REMARK    5  A    between atoms: C_15  and  C_16 
ROOT
HETATM    1  N   UNL     1      27.404  43.633  51.941  1.00  0.00    -0.305 N 
HETATM    2  C   UNL     1      27.750  43.523  53.275  1.00  0.00     0.325 C 
HETATM    3  N   UNL     1      29.053  43.944  53.467  1.00  0.00    -0.306 N 
HETATM    4  O   UNL     1      27.010  43.127  54.167  1.00  0.00    -0.247 OA
HETATM    5  H   UNL     1      27.842  44.394  51.444  1.00  0.00     0.171 HD
HETATM    6  H   UNL     1      29.680  43.812  52.682  1.00  0.00     0.171 HD
ENDROOT
BRANCH   3   7
HETATM    7  C   UNL     1      29.676  44.206  54.705  1.00  0.00     0.070 A 
HETATM    8  C   UNL     1      29.448  45.456  55.305  1.00  0.00     0.097 A 
HETATM    9  C   UNL     1      29.968  45.755  56.566  1.00  0.00     0.063 A 
HETATM   10  C   UNL     1      30.753  44.807  57.219  1.00  0.00     0.036 A 
HETATM   11 CL   UNL     1      31.405  45.163  58.770  1.00  0.00    -0.084 Cl
HETATM   12  C   UNL     1      31.012  43.572  56.625  1.00  0.00     0.026 A 
HETATM   13  C   UNL     1      30.470  43.271  55.371  1.00  0.00     0.034 A 
BRANCH   8  14
HETATM   14  O   UNL     1      28.680  46.373  54.629  1.00  0.00    -0.340 OA
BRANCH  14  15
HETATM   15  C   UNL     1      27.475  46.677  55.360  1.00  0.00     0.293 C 
BRANCH  15  16
HETATM   16  C   UNL     1      26.308  46.845  54.401  1.00  0.00     0.408 C 
HETATM   17  F   UNL     1      25.403  45.851  54.551  1.00  0.00    -0.169 F 
HETATM   18  F   UNL     1      25.669  48.019  54.593  1.00  0.00    -0.169 F 
HETATM   19  F   UNL     1      26.736  46.819  53.118  1.00  0.00    -0.169 F 
ENDBRANCH  15  16
ENDBRANCH  14  15
ENDBRANCH   8  14
ENDBRANCH   3   7
BRANCH   1  20
HETATM   20  C   UNL     1      26.253  43.111  51.378  1.00  0.00     0.086 A 
HETATM   21  C   UNL     1      26.154  41.806  50.939  1.00  0.00     0.052 A 
HETATM   22  C   UNL     1      27.127  40.691  50.880  1.00  0.00     0.072 C 
HETATM   23  N   UNL     1      24.881  41.674  50.457  1.00  0.00    -0.280 N 
HETATM   24  H   UNL     1      24.454  40.859  50.032  1.00  0.00     0.189 HD
HETATM   25  N   UNL     1      24.134  42.776  50.587  1.00  0.00    -0.177 NA
HETATM   26  C   UNL     1      24.961  43.668  51.154  1.00  0.00     0.079 A 
HETATM   27  C   UNL     1      24.427  45.007  51.511  1.00  0.00     0.075 C 
ENDBRANCH   1  20
TORSDOF 5
ENDMDL
MODEL 5
REMARK VINA RESULT:      -7.5      8.632     11.133
REMARK  5 active torsions:
REMARK  status: ('A' for Active; 'I' for Inactive)
REMARK    1  A    between atoms: C_8  and  N_9 
REMARK       I    between atoms: N_9  and  C_10 
REMARK       I    between atoms: C_10  and  N_11 
REMARK    2  A    between atoms: N_11  and  C_12 
REMARK    3  A    between atoms: C_13  and  O_14 
REMARK    4  A    between atoms: O_14  and  C_15 
REMARK    5  A    between atoms: C_15  and  C_16 
ROOT
HETATM    1  N   UNL     1      23.422  48.452  48.978  1.00  0.00    -0.305 N 
HETATM    2  C   UNL     1      22.668  49.571  49.278  1.00  0.00     0.325 C 
HETATM    3  N   UNL     1      21.447  49.512  48.630  1.00  0.00    -0.306 N 
HETATM    4  O   UNL     1      23.015  50.481  50.020  1.00  0.00    -0.247 OA
HETATM    5  H   UNL     1      22.896  47.606  48.822  1.00  0.00     0.171 HD
HETATM    6  H   UNL     1      21.440  49.013  47.748  1.00  0.00     0.171 HD
ENDROOT
BRANCH   3   7
HETATM    7  C   UNL     1      20.328  50.334  48.873  1.00  0.00     0.070 A 
HETATM    8  C   UNL     1      19.290  49.816  49.666  1.00  0.00     0.097 A 
HETATM    9  C   UNL     1      18.188  50.600  50.013  1.00  0.00     0.063 A 
HETATM   10  C   UNL     1      18.107  51.906  49.534  1.00  0.00     0.036 A 
HETATM   11 CL   UNL     1      16.753  52.882  49.948  1.00  0.00    -0.084 Cl
HETATM   12  C   UNL     1      19.114  52.427  48.723  1.00  0.00     0.026 A 
HETATM   13  C   UNL     1      20.226  51.642  48.396  1.00  0.00     0.034 A 
BRANCH   8  14
HETATM   14  O   UNL     1      19.396  48.520  50.112  1.00  0.00    -0.340 OA
BRANCH  14  15
HETATM   15  C   UNL     1      18.438  47.667  49.453  1.00  0.00     0.293 C 
BRANCH  15  16
HETATM   16  C   UNL     1      19.146  46.732  48.488  1.00  0.00     0.408 C 
HETATM   17  F   UNL     1      20.412  46.475  48.893  1.00  0.00    -0.169 F 
HETATM   18  F   UNL     1      18.501  45.551  48.372  1.00  0.00    -0.169 F 
HETATM   19  F   UNL     1      19.215  47.282  47.253  1.00  0.00    -0.169 F 
ENDBRANCH  15  16
ENDBRANCH  14  15
ENDBRANCH   8  14
ENDBRANCH   3   7
BRANCH   1  20
HETATM   20  C   UNL     1      24.761  48.293  49.295  1.00  0.00     0.086 A 
HETATM   21  C   UNL     1      25.226  47.274  50.100  1.00  0.00     0.052 A 
HETATM   22  C   UNL     1      24.544  46.187  50.840  1.00  0.00     0.072 C 
HETATM   23  N   UNL     1      26.581  47.451  50.174  1.00  0.00    -0.280 N 
HETATM   24  H   UNL     1      27.257  46.905  50.696  1.00  0.00     0.189 HD
HETATM   25  N   UNL     1      27.034  48.478  49.446  1.00  0.00    -0.177 NA
HETATM   26  C   UNL     1      25.929  49.004  48.897  1.00  0.00     0.079 A 
HETATM   27  C   UNL     1      26.075  50.142  47.954  1.00  0.00     0.075 C 
ENDBRANCH   1  20
TORSDOF 5
ENDMDL
MODEL 6
REMARK VINA RESULT:      -7.4      3.409      6.673
REMARK  5 active torsions:
REMARK  status: ('A' for Active; 'I' for Inactive)
REMARK    1  A    between atoms: C_8  and  N_9 
REMARK       I    between atoms: N_9  and  C_10 
REMARK       I    between atoms: C_10  and  N_11 
REMARK    2  A    between atoms: N_11  and  C_12 
REMARK    3  A    between atoms: C_13  and  O_14 
REMARK    4  A    between atoms: O_14  and  C_15 
REMARK    5  A    between atoms: C_15  and  C_16 
ROOT
HETATM    1  N   UNL     1      29.721  44.322  54.590  1.00  0.00    -0.305 N 
HETATM    2  C   UNL     1      28.581  43.806  54.004  1.00  0.00     0.325 C 
HETATM    3  N   UNL     1      28.812  43.535  52.667  1.00  0.00    -0.306 N 
HETATM    4  O   UNL     1      27.520  43.600  54.580  1.00  0.00    -0.247 OA
HETATM    5  H   UNL     1      30.592  43.978  54.215  1.00  0.00     0.171 HD
HETATM    6  H   UNL     1      29.496  44.126  52.209  1.00  0.00     0.171 HD
ENDROOT
BRANCH   3   7
HETATM    7  C   UNL     1      27.981  42.788  51.807  1.00  0.00     0.070 A 
HETATM    8  C   UNL     1      27.287  43.476  50.798  1.00  0.00     0.097 A 
HETATM    9  C   UNL     1      26.510  42.792  49.862  1.00  0.00     0.063 A 
HETATM   10  C   UNL     1      26.397  41.407  49.957  1.00  0.00     0.036 A 
HETATM   11 CL   UNL     1      25.438  40.550  48.815  1.00  0.00    -0.084 Cl
HETATM   12  C   UNL     1      27.056  40.710  50.968  1.00  0.00     0.026 A 
HETATM   13  C   UNL     1      27.852  41.400  51.890  1.00  0.00     0.034 A 
BRANCH   8  14
HETATM   14  O   UNL     1      27.411  44.844  50.740  1.00  0.00    -0.340 OA
BRANCH  14  15
HETATM   15  C   UNL     1      26.116  45.477  50.678  1.00  0.00     0.293 C 
BRANCH  15  16
HETATM   16  C   UNL     1      25.693  45.940  52.062  1.00  0.00     0.408 C 
HETATM   17  F   UNL     1      25.000  44.976  52.711  1.00  0.00    -0.169 F 
HETATM   18  F   UNL     1      26.756  46.270  52.826  1.00  0.00    -0.169 F 
HETATM   19  F   UNL     1      24.896  47.030  51.979  1.00  0.00    -0.169 F 
ENDBRANCH  15  16
ENDBRANCH  14  15
ENDBRANCH   8  14
ENDBRANCH   3   7
BRANCH   1  20
HETATM   20  C   UNL     1      29.775  44.884  55.854  1.00  0.00     0.086 A 
HETATM   21  C   UNL     1      30.667  44.471  56.823  1.00  0.00     0.052 A 
HETATM   22  C   UNL     1      31.691  43.402  56.854  1.00  0.00     0.072 C 
HETATM   23  N   UNL     1      30.416  45.256  57.914  1.00  0.00    -0.280 N 
HETATM   24  H   UNL     1      30.862  45.226  58.824  1.00  0.00     0.189 HD
HETATM   25  N   UNL     1      29.462  46.173  57.716  1.00  0.00    -0.177 NA
HETATM   26  C   UNL     1      29.059  45.960  56.453  1.00  0.00     0.079 A 
HETATM   27  C   UNL     1      28.036  46.864  55.870  1.00  0.00     0.075 C 
ENDBRANCH   1  20
TORSDOF 5
ENDMDL
MODEL 7
REMARK VINA RESULT:      -7.4      9.325     11.902
REMARK  5 active torsions:
REMARK  status: ('A' for Active; 'I' for Inactive)
REMARK    1  A    between atoms: C_8  and  N_9 
REMARK       I    between atoms: N_9  and  C_10 
REMARK       I    between atoms: C_10  and  N_11 
REMARK    2  A    between atoms: N_11  and  C_12 
REMARK    3  A    between atoms: C_13  and  O_14 
REMARK    4  A    between atoms: O_14  and  C_15 
REMARK    5  A    between atoms: C_15  and  C_16 
ROOT
HETATM    1  N   UNL     1      22.555  48.331  49.685  1.00  0.00    -0.305 N 
HETATM    2  C   UNL     1      21.595  48.133  48.711  1.00  0.00     0.325 C 
HETATM    3  N   UNL     1      20.387  47.791  49.292  1.00  0.00    -0.306 N 
HETATM    4  O   UNL     1      21.774  48.256  47.506  1.00  0.00    -0.247 OA
HETATM    5  H   UNL     1      22.212  48.701  50.559  1.00  0.00     0.171 HD
HETATM    6  H   UNL     1      20.447  47.292  50.172  1.00  0.00     0.171 HD
ENDROOT
BRANCH   3   7
HETATM    7  C   UNL     1      19.131  47.748  48.653  1.00  0.00     0.070 A 
HETATM    8  C   UNL     1      18.237  48.806  48.888  1.00  0.00     0.097 A 
HETATM    9  C   UNL     1      17.007  48.870  48.229  1.00  0.00     0.063 A 
HETATM   10  C   UNL     1      16.654  47.848  47.351  1.00  0.00     0.036 A 
HETATM   11 CL   UNL     1      15.141  47.910  46.536  1.00  0.00    -0.084 Cl
HETATM   12  C   UNL     1      17.517  46.776  47.128  1.00  0.00     0.026 A 
HETATM   13  C   UNL     1      18.757  46.729  47.775  1.00  0.00     0.034 A 
BRANCH   8  14
HETATM   14  O   UNL     1      18.611  49.792  49.769  1.00  0.00    -0.340 OA
BRANCH  14  15
HETATM   15  C   UNL     1      18.445  51.100  49.183  1.00  0.00     0.293 C 
BRANCH  15  16
HETATM   16  C   UNL     1      19.759  51.579  48.591  1.00  0.00     0.408 C 
HETATM   17  F   UNL     1      20.783  51.395  49.456  1.00  0.00    -0.169 F 
HETATM   18  F   UNL     1      20.060  50.925  47.448  1.00  0.00    -0.169 F 
HETATM   19  F   UNL     1      19.700  52.899  48.301  1.00  0.00    -0.169 F 
ENDBRANCH  15  16
ENDBRANCH  14  15
ENDBRANCH   8  14
ENDBRANCH   3   7
BRANCH   1  20
HETATM   20  C   UNL     1      23.909  48.484  49.442  1.00  0.00     0.086 A 
HETATM   21  C   UNL     1      24.858  47.582  49.878  1.00  0.00     0.052 A 
HETATM   22  C   UNL     1      24.771  46.345  50.687  1.00  0.00     0.072 C 
HETATM   23  N   UNL     1      26.059  48.072  49.445  1.00  0.00    -0.280 N 
HETATM   24  H   UNL     1      26.985  47.687  49.597  1.00  0.00     0.189 HD
HETATM   25  N   UNL     1      25.959  49.197  48.727  1.00  0.00    -0.177 NA
HETATM   26  C   UNL     1      24.644  49.462  48.713  1.00  0.00     0.079 A 
HETATM   27  C   UNL     1      24.161  50.627  47.930  1.00  0.00     0.075 C 
ENDBRANCH   1  20
TORSDOF 5
ENDMDL
MODEL 8
REMARK VINA RESULT:      -7.4      2.910      4.113
REMARK  5 active torsions:
REMARK  status: ('A' for Active; 'I' for Inactive)
REMARK    1  A    between atoms: C_8  and  N_9 
REMARK       I    between atoms: N_9  and  C_10 
REMARK       I    between atoms: C_10  and  N_11 
REMARK    2  A    between atoms: N_11  and  C_12 
REMARK    3  A    between atoms: C_13  and  O_14 
REMARK    4  A    between atoms: O_14  and  C_15 
REMARK    5  A    between atoms: C_15  and  C_16 
ROOT
HETATM    1  N   UNL     1      27.816  40.434  51.681  1.00  0.00    -0.305 N 
HETATM    2  C   UNL     1      27.649  41.803  51.770  1.00  0.00     0.325 C 
HETATM    3  N   UNL     1      27.383  42.168  53.077  1.00  0.00    -0.306 N 
HETATM    4  O   UNL     1      27.737  42.589  50.835  1.00  0.00    -0.247 OA
HETATM    5  H   UNL     1      28.222  39.995  52.494  1.00  0.00     0.171 HD
HETATM    6  H   UNL     1      26.901  41.477  53.639  1.00  0.00     0.171 HD
ENDROOT
BRANCH   3   7
HETATM    7  C   UNL     1      27.394  43.477  53.601  1.00  0.00     0.070 A 
HETATM    8  C   UNL     1      28.463  43.845  54.435  1.00  0.00     0.097 A 
HETATM    9  C   UNL     1      28.580  45.146  54.925  1.00  0.00     0.063 A 
HETATM   10  C   UNL     1      27.599  46.082  54.606  1.00  0.00     0.036 A 
HETATM   11 CL   UNL     1      27.726  47.689  55.208  1.00  0.00    -0.084 Cl
HETATM   12  C   UNL     1      26.516  45.728  53.803  1.00  0.00     0.026 A 
HETATM   13  C   UNL     1      26.416  44.427  53.297  1.00  0.00     0.034 A 
BRANCH   8  14
HETATM   14  O   UNL     1      29.407  42.893  54.740  1.00  0.00    -0.340 OA
BRANCH  14  15
HETATM   15  C   UNL     1      30.691  43.501  54.990  1.00  0.00     0.293 C 
BRANCH  15  16
HETATM   16  C   UNL     1      31.098  43.290  56.438  1.00  0.00     0.408 C 
HETATM   17  F   UNL     1      30.560  42.153  56.938  1.00  0.00    -0.169 F 
HETATM   18  F   UNL     1      32.439  43.207  56.574  1.00  0.00    -0.169 F 
HETATM   19  F   UNL     1      30.673  44.317  57.209  1.00  0.00    -0.169 F 
ENDBRANCH  15  16
ENDBRANCH  14  15
ENDBRANCH   8  14
ENDBRANCH   3   7
BRANCH   1  20
HETATM   20  C   UNL     1      27.893  39.722  50.497  1.00  0.00     0.086 A 
HETATM   21  C   UNL     1      28.855  38.762  50.257  1.00  0.00     0.052 A 
HETATM   22  C   UNL     1      30.005  38.273  51.052  1.00  0.00     0.072 C 
HETATM   23  N   UNL     1      28.601  38.291  48.999  1.00  0.00    -0.280 N 
HETATM   24  H   UNL     1      29.116  37.591  48.475  1.00  0.00     0.189 HD
HETATM   25  N   UNL     1      27.526  38.837  48.421  1.00  0.00    -0.177 NA
HETATM   26  C   UNL     1      27.076  39.717  49.329  1.00  0.00     0.079 A 
HETATM   27  C   UNL     1      25.828  40.467  49.038  1.00  0.00     0.075 C 
ENDBRANCH   1  20
TORSDOF 5
ENDMDL
MODEL 9
REMARK VINA RESULT:      -7.4     13.434     14.934
REMARK  5 active torsions:
REMARK  status: ('A' for Active; 'I' for Inactive)
REMARK    1  A    between atoms: C_8  and  N_9 
REMARK       I    between atoms: N_9  and  C_10 
REMARK       I    between atoms: C_10  and  N_11 
REMARK    2  A    between atoms: N_11  and  C_12 
REMARK    3  A    between atoms: C_13  and  O_14 
REMARK    4  A    between atoms: O_14  and  C_15 
REMARK    5  A    between atoms: C_15  and  C_16 
ROOT
HETATM    1  N   UNL     1      32.549  50.616  41.601  1.00  0.00    -0.305 N 
HETATM    2  C   UNL     1      31.632  49.630  41.915  1.00  0.00     0.325 C 
HETATM    3  N   UNL     1      30.680  49.528  40.916  1.00  0.00    -0.306 N 
HETATM    4  O   UNL     1      31.658  48.933  42.921  1.00  0.00    -0.247 OA
HETATM    5  H   UNL     1      32.734  50.735  40.617  1.00  0.00     0.171 HD
HETATM    6  H   UNL     1      30.480  50.382  40.409  1.00  0.00     0.171 HD
ENDROOT
BRANCH   3   7
HETATM    7  C   UNL     1      29.737  48.492  40.759  1.00  0.00     0.070 A 
HETATM    8  C   UNL     1      28.436  48.707  41.242  1.00  0.00     0.097 A 
HETATM    9  C   UNL     1      27.430  47.758  41.052  1.00  0.00     0.063 A 
HETATM   10  C   UNL     1      27.737  46.565  40.401  1.00  0.00     0.036 A 
HETATM   11 CL   UNL     1      26.510  45.384  40.164  1.00  0.00    -0.084 Cl
HETATM   12  C   UNL     1      29.030  46.323  39.939  1.00  0.00     0.026 A 
HETATM   13  C   UNL     1      30.028  47.288  40.114  1.00  0.00     0.034 A 
BRANCH   8  14
HETATM   14  O   UNL     1      28.169  49.889  41.891  1.00  0.00    -0.340 OA
BRANCH  14  15
HETATM   15  C   UNL     1      27.508  50.823  41.013  1.00  0.00     0.293 C 
BRANCH  15  16
HETATM   16  C   UNL     1      28.063  52.222  41.223  1.00  0.00     0.408 C 
HETATM   17  F   UNL     1      28.520  52.747  40.062  1.00  0.00    -0.169 F 
HETATM   18  F   UNL     1      27.127  53.062  41.716  1.00  0.00    -0.169 F 
HETATM   19  F   UNL     1      29.095  52.201  42.097  1.00  0.00    -0.169 F 
ENDBRANCH  15  16
ENDBRANCH  14  15
ENDBRANCH   8  14
ENDBRANCH   3   7
BRANCH   1  20
HETATM   20  C   UNL     1      33.505  51.111  42.471  1.00  0.00     0.086 A 
HETATM   21  C   UNL     1      34.856  51.099  42.189  1.00  0.00     0.052 A 
HETATM   22  C   UNL     1      35.638  50.579  41.044  1.00  0.00     0.072 C 
HETATM   23  N   UNL     1      35.465  51.667  43.274  1.00  0.00    -0.280 N 
HETATM   24  H   UNL     1      36.456  51.809  43.434  1.00  0.00     0.189 HD
HETATM   25  N   UNL     1      34.613  52.085  44.217  1.00  0.00    -0.177 NA
HETATM   26  C   UNL     1      33.404  51.753  43.738  1.00  0.00     0.079 A 
HETATM   27  C   UNL     1      32.199  52.139  44.516  1.00  0.00     0.075 C 
ENDBRANCH   1  20
TORSDOF 5
ENDMDL
MODEL 10
REMARK VINA RESULT:      -7.3      8.560     10.747
REMARK  5 active torsions:
REMARK  status: ('A' for Active; 'I' for Inactive)
REMARK    1  A    between atoms: C_8  and  N_9 
REMARK       I    between atoms: N_9  and  C_10 
REMARK       I    between atoms: C_10  and  N_11 
REMARK    2  A    between atoms: N_11  and  C_12 
REMARK    3  A    between atoms: C_13  and  O_14 
REMARK    4  A    between atoms: O_14  and  C_15 
REMARK    5  A    between atoms: C_15  and  C_16 
ROOT
HETATM    1  N   UNL     1      23.540  47.510  50.008  1.00  0.00    -0.305 N 
HETATM    2  C   UNL     1      22.810  48.170  49.037  1.00  0.00     0.325 C 
HETATM    3  N   UNL     1      21.649  48.688  49.583  1.00  0.00    -0.306 N 
HETATM    4  O   UNL     1      23.142  48.297  47.865  1.00  0.00    -0.247 OA
HETATM    5  H   UNL     1      23.462  47.890  50.939  1.00  0.00     0.171 HD
HETATM    6  H   UNL     1      21.262  48.174  50.366  1.00  0.00     0.171 HD
ENDROOT
BRANCH   3   7
HETATM    7  C   UNL     1      20.780  49.618  48.976  1.00  0.00     0.070 A 
HETATM    8  C   UNL     1      19.624  49.125  48.346  1.00  0.00     0.097 A 
HETATM    9  C   UNL     1      18.679  49.992  47.794  1.00  0.00     0.063 A 
HETATM   10  C   UNL     1      18.909  51.365  47.842  1.00  0.00     0.036 A 
HETATM   11 CL   UNL     1      17.757  52.446  47.160  1.00  0.00    -0.084 Cl
HETATM   12  C   UNL     1      20.064  51.870  48.438  1.00  0.00     0.026 A 
HETATM   13  C   UNL     1      20.996  50.996  49.009  1.00  0.00     0.034 A 
BRANCH   8  14
HETATM   14  O   UNL     1      19.434  47.764  48.306  1.00  0.00    -0.340 OA
BRANCH  14  15
HETATM   15  C   UNL     1      18.262  47.429  47.536  1.00  0.00     0.293 C 
BRANCH  15  16
HETATM   16  C   UNL     1      17.137  46.992  48.458  1.00  0.00     0.408 C 
HETATM   17  F   UNL     1      17.321  47.463  49.713  1.00  0.00    -0.169 F 
HETATM   18  F   UNL     1      15.936  47.431  48.024  1.00  0.00    -0.169 F 
HETATM   19  F   UNL     1      17.075  45.643  48.532  1.00  0.00    -0.169 F 
ENDBRANCH  15  16
ENDBRANCH  14  15
ENDBRANCH   8  14
ENDBRANCH   3   7
BRANCH   1  20
HETATM   20  C   UNL     1      24.643  46.711  49.760  1.00  0.00     0.086 A 
HETATM   21  C   UNL     1      24.545  45.370  49.447  1.00  0.00     0.052 A 
HETATM   22  C   UNL     1      23.392  44.446  49.337  1.00  0.00     0.072 C 
HETATM   23  N   UNL     1      25.830  44.937  49.274  1.00  0.00    -0.280 N 
HETATM   24  H   UNL     1      26.152  44.000  49.056  1.00  0.00     0.189 HD
HETATM   25  N   UNL     1      26.750  45.898  49.407  1.00  0.00    -0.177 NA
HETATM   26  C   UNL     1      26.037  46.996  49.703  1.00  0.00     0.079 A 
HETATM   27  C   UNL     1      26.750  48.290  49.853  1.00  0.00     0.075 C 
ENDBRANCH   1  20
TORSDOF 5
ENDMDL
