MODEL 1
REMARK VINA RESULT:     -11.1      0.000      0.000
REMARK  8 active torsions:
REMARK  status: ('A' for Active; 'I' for Inactive)
REMARK    1  A    between atoms: C_2  and  N_3 
REMARK    2  A    between atoms: C_2  and  C_34 
REMARK       I    between atoms: N_3  and  C_4 
REMARK    3  A    between atoms: C_4  and  C_5 
REMARK    4  A    between atoms: C_5  and  N_6 
REMARK       I    between atoms: N_12  and  C_13 
REMARK    5  A    between atoms: C_13  and  C_14 
REMARK    6  A    between atoms: C_14  and  O_15 
REMARK    7  A    between atoms: O_15  and  C_16 
REMARK    8  A    between atoms: N_25  and  C_26 
ROOT
HETATM    1  N   UNL     1      22.989  45.145  49.347  1.00  0.00    -0.325 N 
HETATM    2  C   UNL     1      23.760  44.669  50.387  1.00  0.00     0.250 C 
HETATM    3  O   UNL     1      23.465  43.717  51.096  1.00  0.00    -0.270 OA
HETATM    4  C   UNL     1      25.027  45.545  50.496  1.00  0.00     0.118 C 
HETATM    5  C   UNL     1      26.219  44.694  50.042  1.00  0.00     0.061 C 
HETATM    6  C   UNL     1      26.663  43.698  51.109  1.00  0.00     0.129 C 
HETATM    7  N   UNL     1      26.811  44.328  52.418  1.00  0.00    -0.350 N 
HETATM    8  C   UNL     1      27.856  43.895  53.238  1.00  0.00     0.244 C 
HETATM    9  O   UNL     1      28.681  43.058  52.862  1.00  0.00    -0.271 OA
HETATM   10  C   UNL     1      25.625  45.017  52.917  1.00  0.00     0.129 C 
HETATM   11  C   UNL     1      25.116  46.067  51.936  1.00  0.00     0.061 C 
HETATM   12  N   UNL     1      24.726  46.638  49.526  1.00  0.00    -0.346 N 
HETATM   13  C   UNL     1      23.457  46.402  48.847  1.00  0.00     0.254 C 
ENDROOT
BRANCH  12  14
HETATM   14  C   UNL     1      25.460  47.776  49.247  1.00  0.00     0.032 A 
HETATM   15  C   UNL     1      24.894  48.952  48.727  1.00  0.00     0.029 A 
HETATM   16  C   UNL     1      25.654  50.094  48.434  1.00  0.00     0.002 A 
HETATM   17  C   UNL     1      27.023  50.100  48.657  1.00  0.00     0.000 A 
HETATM   18  C   UNL     1      27.623  48.965  49.177  1.00  0.00     0.002 A 
HETATM   19  C   UNL     1      26.852  47.831  49.467  1.00  0.00     0.029 A 
ENDBRANCH  12  14
BRANCH   1  20
HETATM   20  C   UNL     1      21.618  44.699  49.157  1.00  0.00     0.230 C 
BRANCH  20  21
HETATM   21  C   UNL     1      20.688  45.609  48.341  1.00  0.00     0.236 C 
HETATM   22  N   UNL     1      20.123  46.631  49.075  1.00  0.00    -0.351 N 
HETATM   23  H   UNL     1      20.288  46.688  50.071  1.00  0.00     0.163 HD
HETATM   24  O   UNL     1      20.515  45.491  47.131  1.00  0.00    -0.272 OA
BRANCH  22  25
HETATM   25  C   UNL     1      19.209  47.591  48.472  1.00  0.00     0.113 C 
HETATM   26  C   UNL     1      17.831  47.542  49.137  1.00  0.00     0.037 C 
BRANCH  25  27
HETATM   27  C   UNL     1      19.802  48.988  48.519  1.00  0.00    -0.036 A 
HETATM   28  C   UNL     1      21.021  49.251  47.875  1.00  0.00     0.009 A 
HETATM   29  C   UNL     1      21.576  50.532  47.894  1.00  0.00     0.001 A 
HETATM   30  C   UNL     1      20.924  51.566  48.561  1.00  0.00     0.000 A 
HETATM   31  C   UNL     1      19.716  51.320  49.211  1.00  0.00     0.001 A 
HETATM   32  C   UNL     1      19.157  50.041  49.190  1.00  0.00     0.009 A 
ENDBRANCH  25  27
ENDBRANCH  22  25
ENDBRANCH  20  21
ENDBRANCH   1  20
BRANCH   8  33
HETATM   33  C   UNL     1      27.961  44.482  54.648  1.00  0.00     0.278 C 
BRANCH  33  34
HETATM   34  O   UNL     1      29.162  45.240  54.761  1.00  0.00    -0.342 OA
BRANCH  34  35
HETATM   35  C   UNL     1      29.873  45.017  55.907  1.00  0.00     0.069 A 
HETATM   36  C   UNL     1      29.788  45.804  57.056  1.00  0.00     0.037 A 
HETATM   37  C   UNL     1      30.581  45.504  58.167  1.00  0.00     0.003 A 
HETATM   38  C   UNL     1      31.463  44.424  58.128  1.00  0.00     0.000 A 
HETATM   39  C   UNL     1      31.561  43.648  56.976  1.00  0.00     0.003 A 
HETATM   40  C   UNL     1      30.774  43.952  55.864  1.00  0.00     0.037 A 
ENDBRANCH  34  35
ENDBRANCH  33  34
ENDBRANCH   8  33
TORSDOF 8
ENDMDL
MODEL 2
REMARK VINA RESULT:     -10.3      2.802      8.770
REMARK  8 active torsions:
REMARK  status: ('A' for Active; 'I' for Inactive)
REMARK    1  A    between atoms: C_2  and  N_3 
REMARK    2  A    between atoms: C_2  and  C_34 
REMARK       I    between atoms: N_3  and  C_4 
REMARK    3  A    between atoms: C_4  and  C_5 
REMARK    4  A    between atoms: C_5  and  N_6 
REMARK       I    between atoms: N_12  and  C_13 
REMARK    5  A    between atoms: C_13  and  C_14 
REMARK    6  A    between atoms: C_14  and  O_15 
REMARK    7  A    between atoms: O_15  and  C_16 
REMARK    8  A    between atoms: N_25  and  C_26 
ROOT
HETATM    1  N   UNL     1      25.333  45.864  52.926  1.00  0.00    -0.325 N 
HETATM    2  C   UNL     1      25.047  44.851  52.035  1.00  0.00     0.250 C 
HETATM    3  O   UNL     1      24.893  43.676  52.339  1.00  0.00    -0.270 OA
HETATM    4  C   UNL     1      24.970  45.455  50.616  1.00  0.00     0.118 C 
HETATM    5  C   UNL     1      23.501  45.416  50.175  1.00  0.00     0.061 C 
HETATM    6  C   UNL     1      23.060  44.022  49.742  1.00  0.00     0.129 C 
HETATM    7  N   UNL     1      24.006  43.414  48.810  1.00  0.00    -0.350 N 
HETATM    8  C   UNL     1      23.492  42.629  47.774  1.00  0.00     0.244 C 
HETATM    9  O   UNL     1      22.279  42.497  47.592  1.00  0.00    -0.271 OA
HETATM   10  C   UNL     1      25.381  43.318  49.289  1.00  0.00     0.129 C 
HETATM   11  C   UNL     1      25.936  44.671  49.718  1.00  0.00     0.061 C 
HETATM   12  N   UNL     1      25.440  46.851  50.854  1.00  0.00    -0.346 N 
HETATM   13  C   UNL     1      25.692  47.086  52.271  1.00  0.00     0.254 C 
ENDROOT
BRANCH  12  14
HETATM   14  C   UNL     1      25.668  47.858  49.934  1.00  0.00     0.032 A 
HETATM   15  C   UNL     1      24.640  48.521  49.244  1.00  0.00     0.029 A 
HETATM   16  C   UNL     1      24.888  49.530  48.301  1.00  0.00     0.002 A 
HETATM   17  C   UNL     1      26.188  49.918  48.016  1.00  0.00     0.000 A 
HETATM   18  C   UNL     1      27.234  49.298  48.680  1.00  0.00     0.002 A 
HETATM   19  C   UNL     1      26.973  48.292  49.620  1.00  0.00     0.029 A 
ENDBRANCH  12  14
BRANCH   1  20
HETATM   20  C   UNL     1      25.724  45.577  54.296  1.00  0.00     0.230 C 
BRANCH  20  21
HETATM   21  C   UNL     1      26.659  44.380  54.526  1.00  0.00     0.236 C 
HETATM   22  N   UNL     1      27.968  44.616  54.163  1.00  0.00    -0.351 N 
HETATM   23  H   UNL     1      28.221  45.494  53.728  1.00  0.00     0.163 HD
HETATM   24  O   UNL     1      26.298  43.330  55.053  1.00  0.00    -0.272 OA
BRANCH  22  25
HETATM   25  C   UNL     1      28.997  43.596  54.303  1.00  0.00     0.113 C 
HETATM   26  C   UNL     1      29.801  43.435  53.010  1.00  0.00     0.037 C 
BRANCH  25  27
HETATM   27  C   UNL     1      29.898  43.910  55.484  1.00  0.00    -0.036 A 
HETATM   28  C   UNL     1      29.740  45.119  56.181  1.00  0.00     0.009 A 
HETATM   29  C   UNL     1      30.548  45.420  57.278  1.00  0.00     0.001 A 
HETATM   30  C   UNL     1      31.529  44.521  57.691  1.00  0.00     0.000 A 
HETATM   31  C   UNL     1      31.703  43.321  57.006  1.00  0.00     0.001 A 
HETATM   32  C   UNL     1      30.893  43.015  55.911  1.00  0.00     0.009 A 
ENDBRANCH  25  27
ENDBRANCH  22  25
ENDBRANCH  20  21
ENDBRANCH   1  20
BRANCH   8  33
HETATM   33  C   UNL     1      24.479  41.911  46.851  1.00  0.00     0.278 C 
BRANCH  33  34
HETATM   34  O   UNL     1      24.705  40.589  47.331  1.00  0.00    -0.342 OA
BRANCH  34  35
HETATM   35  C   UNL     1      25.974  40.352  47.778  1.00  0.00     0.069 A 
HETATM   36  C   UNL     1      26.284  39.693  48.968  1.00  0.00     0.037 A 
HETATM   37  C   UNL     1      27.619  39.527  49.347  1.00  0.00     0.003 A 
HETATM   38  C   UNL     1      28.643  40.025  48.542  1.00  0.00     0.000 A 
HETATM   39  C   UNL     1      28.335  40.698  47.362  1.00  0.00     0.003 A 
HETATM   40  C   UNL     1      27.002  40.870  46.987  1.00  0.00     0.037 A 
ENDBRANCH  34  35
ENDBRANCH  33  34
ENDBRANCH   8  33
TORSDOF 8
ENDMDL
MODEL 3
REMARK VINA RESULT:      -9.7      2.302      4.502
REMARK  8 active torsions:
REMARK  status: ('A' for Active; 'I' for Inactive)
REMARK    1  A    between atoms: C_2  and  N_3 
REMARK    2  A    between atoms: C_2  and  C_34 
REMARK       I    between atoms: N_3  and  C_4 
REMARK    3  A    between atoms: C_4  and  C_5 
REMARK    4  A    between atoms: C_5  and  N_6 
REMARK       I    between atoms: N_12  and  C_13 
REMARK    5  A    between atoms: C_13  and  C_14 
REMARK    6  A    between atoms: C_14  and  O_15 
REMARK    7  A    between atoms: O_15  and  C_16 
REMARK    8  A    between atoms: N_25  and  C_26 
ROOT
HETATM    1  N   UNL     1      23.101  44.114  49.044  1.00  0.00    -0.325 N 
HETATM    2  C   UNL     1      23.959  44.325  50.103  1.00  0.00     0.250 C 
HETATM    3  O   UNL     1      23.787  45.154  50.986  1.00  0.00    -0.270 OA
HETATM    4  C   UNL     1      25.151  43.354  49.967  1.00  0.00     0.118 C 
HETATM    5  C   UNL     1      25.026  42.306  51.081  1.00  0.00     0.061 C 
HETATM    6  C   UNL     1      25.459  42.847  52.440  1.00  0.00     0.129 C 
HETATM    7  N   UNL     1      26.747  43.531  52.371  1.00  0.00    -0.350 N 
HETATM    8  C   UNL     1      27.622  43.389  53.452  1.00  0.00     0.244 C 
HETATM    9  O   UNL     1      27.364  42.659  54.412  1.00  0.00    -0.271 OA
HETATM   10  C   UNL     1      26.822  44.628  51.410  1.00  0.00     0.129 C 
HETATM   11  C   UNL     1      26.441  44.184  50.003  1.00  0.00     0.061 C 
HETATM   12  N   UNL     1      24.908  42.761  48.620  1.00  0.00    -0.346 N 
HETATM   13  C   UNL     1      23.664  43.256  48.044  1.00  0.00     0.254 C 
ENDROOT
BRANCH  12  14
HETATM   14  C   UNL     1      25.697  41.876  47.906  1.00  0.00     0.032 A 
HETATM   15  C   UNL     1      25.254  41.197  46.761  1.00  0.00     0.029 A 
HETATM   16  C   UNL     1      26.061  40.291  46.056  1.00  0.00     0.002 A 
HETATM   17  C   UNL     1      27.356  40.033  46.478  1.00  0.00     0.000 A 
HETATM   18  C   UNL     1      27.840  40.688  47.599  1.00  0.00     0.002 A 
HETATM   19  C   UNL     1      27.024  41.592  48.292  1.00  0.00     0.029 A 
ENDBRANCH  12  14
BRANCH   1  20
HETATM   20  C   UNL     1      22.023  45.044  48.747  1.00  0.00     0.230 C 
BRANCH  20  21
HETATM   21  C   UNL     1      22.410  46.397  48.132  1.00  0.00     0.236 C 
HETATM   22  N   UNL     1      22.858  47.321  49.053  1.00  0.00    -0.351 N 
HETATM   23  H   UNL     1      22.849  47.096  50.039  1.00  0.00     0.163 HD
HETATM   24  O   UNL     1      22.394  46.622  46.925  1.00  0.00    -0.272 OA
BRANCH  22  25
HETATM   25  C   UNL     1      23.264  48.662  48.657  1.00  0.00     0.113 C 
HETATM   26  C   UNL     1      22.478  49.730  49.421  1.00  0.00     0.037 C 
BRANCH  25  27
HETATM   27  C   UNL     1      24.761  48.837  48.834  1.00  0.00    -0.036 A 
HETATM   28  C   UNL     1      25.482  47.927  49.625  1.00  0.00     0.009 A 
HETATM   29  C   UNL     1      26.861  48.062  49.789  1.00  0.00     0.001 A 
HETATM   30  C   UNL     1      27.539  49.111  49.172  1.00  0.00     0.000 A 
HETATM   31  C   UNL     1      26.838  50.026  48.389  1.00  0.00     0.001 A 
HETATM   32  C   UNL     1      25.459  49.890  48.220  1.00  0.00     0.009 A 
ENDBRANCH  25  27
ENDBRANCH  22  25
ENDBRANCH  20  21
ENDBRANCH   1  20
BRANCH   8  33
HETATM   33  C   UNL     1      28.933  44.179  53.430  1.00  0.00     0.278 C 
BRANCH  33  34
HETATM   34  O   UNL     1      29.931  43.465  54.156  1.00  0.00    -0.342 OA
BRANCH  34  35
HETATM   35  C   UNL     1      30.219  43.981  55.388  1.00  0.00     0.069 A 
HETATM   36  C   UNL     1      29.714  45.185  55.880  1.00  0.00     0.037 A 
HETATM   37  C   UNL     1      30.096  45.637  57.146  1.00  0.00     0.003 A 
HETATM   38  C   UNL     1      30.986  44.891  57.918  1.00  0.00     0.000 A 
HETATM   39  C   UNL     1      31.505  43.697  57.421  1.00  0.00     0.003 A 
HETATM   40  C   UNL     1      31.129  43.250  56.153  1.00  0.00     0.037 A 
ENDBRANCH  34  35
ENDBRANCH  33  34
ENDBRANCH   8  33
TORSDOF 8
ENDMDL
MODEL 4
REMARK VINA RESULT:      -9.5      2.132      3.685
REMARK  8 active torsions:
REMARK  status: ('A' for Active; 'I' for Inactive)
REMARK    1  A    between atoms: C_2  and  N_3 
REMARK    2  A    between atoms: C_2  and  C_34 
REMARK       I    between atoms: N_3  and  C_4 
REMARK    3  A    between atoms: C_4  and  C_5 
REMARK    4  A    between atoms: C_5  and  N_6 
REMARK       I    between atoms: N_12  and  C_13 
REMARK    5  A    between atoms: C_13  and  C_14 
REMARK    6  A    between atoms: C_14  and  O_15 
REMARK    7  A    between atoms: O_15  and  C_16 
REMARK    8  A    between atoms: N_25  and  C_26 
ROOT
HETATM    1  N   UNL     1      23.499  45.686  49.141  1.00  0.00    -0.325 N 
HETATM    2  C   UNL     1      24.356  45.710  50.221  1.00  0.00     0.250 C 
HETATM    3  O   UNL     1      24.520  46.670  50.961  1.00  0.00    -0.270 OA
HETATM    4  C   UNL     1      25.062  44.340  50.315  1.00  0.00     0.118 C 
HETATM    5  C   UNL     1      24.514  43.621  51.554  1.00  0.00     0.061 C 
HETATM    6  C   UNL     1      25.111  44.159  52.851  1.00  0.00     0.129 C 
HETATM    7  N   UNL     1      26.566  44.260  52.783  1.00  0.00    -0.350 N 
HETATM    8  C   UNL     1      27.298  43.961  53.935  1.00  0.00     0.244 C 
HETATM    9  O   UNL     1      26.758  43.556  54.968  1.00  0.00    -0.271 OA
HETATM   10  C   UNL     1      27.086  45.068  51.684  1.00  0.00     0.129 C 
HETATM   11  C   UNL     1      26.576  44.590  50.329  1.00  0.00     0.061 C 
HETATM   12  N   UNL     1      24.619  43.682  49.052  1.00  0.00    -0.346 N 
HETATM   13  C   UNL     1      23.684  44.528  48.319  1.00  0.00     0.254 C 
ENDROOT
BRANCH  12  14
HETATM   14  C   UNL     1      24.996  42.457  48.534  1.00  0.00     0.032 A 
HETATM   15  C   UNL     1      24.084  41.522  48.017  1.00  0.00     0.029 A 
HETATM   16  C   UNL     1      24.481  40.276  47.509  1.00  0.00     0.002 A 
HETATM   17  C   UNL     1      25.820  39.919  47.496  1.00  0.00     0.000 A 
HETATM   18  C   UNL     1      26.758  40.814  47.988  1.00  0.00     0.002 A 
HETATM   19  C   UNL     1      26.348  42.056  48.492  1.00  0.00     0.029 A 
ENDBRANCH  12  14
BRANCH   1  20
HETATM   20  C   UNL     1      22.887  46.904  48.634  1.00  0.00     0.230 C 
BRANCH  20  21
HETATM   21  C   UNL     1      21.353  46.979  48.646  1.00  0.00     0.236 C 
HETATM   22  N   UNL     1      20.856  48.207  49.028  1.00  0.00    -0.351 N 
HETATM   23  H   UNL     1      21.490  48.937  49.327  1.00  0.00     0.163 HD
HETATM   24  O   UNL     1      20.627  46.058  48.280  1.00  0.00    -0.272 OA
BRANCH  22  25
HETATM   25  C   UNL     1      19.426  48.464  49.105  1.00  0.00     0.113 C 
HETATM   26  C   UNL     1      18.901  48.275  50.530  1.00  0.00     0.037 C 
BRANCH  25  27
HETATM   27  C   UNL     1      19.107  49.850  48.572  1.00  0.00    -0.036 A 
HETATM   28  C   UNL     1      19.727  50.975  49.139  1.00  0.00     0.009 A 
HETATM   29  C   UNL     1      19.458  52.257  48.655  1.00  0.00     0.001 A 
HETATM   30  C   UNL     1      18.562  52.433  47.602  1.00  0.00     0.000 A 
HETATM   31  C   UNL     1      17.934  51.327  47.034  1.00  0.00     0.001 A 
HETATM   32  C   UNL     1      18.204  50.044  47.513  1.00  0.00     0.009 A 
ENDBRANCH  25  27
ENDBRANCH  22  25
ENDBRANCH  20  21
ENDBRANCH   1  20
BRANCH   8  33
HETATM   33  C   UNL     1      28.815  44.157  53.900  1.00  0.00     0.278 C 
BRANCH  33  34
HETATM   34  O   UNL     1      29.175  45.246  54.745  1.00  0.00    -0.342 OA
BRANCH  34  35
HETATM   35  C   UNL     1      29.970  44.910  55.805  1.00  0.00     0.069 A 
HETATM   36  C   UNL     1      30.855  43.832  55.819  1.00  0.00     0.037 A 
HETATM   37  C   UNL     1      31.604  43.558  56.967  1.00  0.00     0.003 A 
HETATM   38  C   UNL     1      31.463  44.355  58.102  1.00  0.00     0.000 A 
HETATM   39  C   UNL     1      30.566  45.421  58.096  1.00  0.00     0.003 A 
HETATM   40  C   UNL     1      29.814  45.690  56.952  1.00  0.00     0.037 A 
ENDBRANCH  34  35
ENDBRANCH  33  34
ENDBRANCH   8  33
TORSDOF 8
ENDMDL
MODEL 5
REMARK VINA RESULT:      -9.3      5.320     10.740
REMARK  8 active torsions:
REMARK  status: ('A' for Active; 'I' for Inactive)
REMARK    1  A    between atoms: C_2  and  N_3 
REMARK    2  A    between atoms: C_2  and  C_34 
REMARK       I    between atoms: N_3  and  C_4 
REMARK    3  A    between atoms: C_4  and  C_5 
REMARK    4  A    between atoms: C_5  and  N_6 
REMARK       I    between atoms: N_12  and  C_13 
REMARK    5  A    between atoms: C_13  and  C_14 
REMARK    6  A    between atoms: C_14  and  O_15 
REMARK    7  A    between atoms: O_15  and  C_16 
REMARK    8  A    between atoms: N_25  and  C_26 
ROOT
HETATM    1  N   UNL     1      27.958  40.915  51.840  1.00  0.00    -0.325 N 
HETATM    2  C   UNL     1      28.267  39.961  50.894  1.00  0.00     0.250 C 
HETATM    3  O   UNL     1      29.179  39.152  50.989  1.00  0.00    -0.270 OA
HETATM    4  C   UNL     1      27.279  40.105  49.716  1.00  0.00     0.118 C 
HETATM    5  C   UNL     1      26.347  38.887  49.740  1.00  0.00     0.061 C 
HETATM    6  C   UNL     1      27.016  37.630  49.191  1.00  0.00     0.129 C 
HETATM    7  N   UNL     1      27.681  37.878  47.916  1.00  0.00    -0.350 N 
HETATM    8  C   UNL     1      27.640  36.870  46.949  1.00  0.00     0.244 C 
HETATM    9  O   UNL     1      27.009  35.824  47.119  1.00  0.00    -0.271 OA
HETATM   10  C   UNL     1      28.678  38.945  47.927  1.00  0.00     0.129 C 
HETATM   11  C   UNL     1      28.101  40.264  48.429  1.00  0.00     0.061 C 
HETATM   12  N   UNL     1      26.559  41.361  50.074  1.00  0.00    -0.346 N 
HETATM   13  C   UNL     1      27.004  41.871  51.365  1.00  0.00     0.254 C 
ENDROOT
BRANCH  12  14
HETATM   14  C   UNL     1      25.604  42.050  49.348  1.00  0.00     0.032 A 
HETATM   15  C   UNL     1      24.678  41.424  48.499  1.00  0.00     0.029 A 
HETATM   16  C   UNL     1      23.725  42.138  47.758  1.00  0.00     0.002 A 
HETATM   17  C   UNL     1      23.663  43.521  47.844  1.00  0.00     0.000 A 
HETATM   18  C   UNL     1      24.552  44.182  48.677  1.00  0.00     0.002 A 
HETATM   19  C   UNL     1      25.498  43.456  49.414  1.00  0.00     0.029 A 
ENDBRANCH  12  14
BRANCH   1  20
HETATM   20  C   UNL     1      28.861  41.206  52.942  1.00  0.00     0.230 C 
BRANCH  20  21
HETATM   21  C   UNL     1      29.309  42.665  53.119  1.00  0.00     0.236 C 
HETATM   22  N   UNL     1      28.782  43.280  54.235  1.00  0.00    -0.351 N 
HETATM   23  H   UNL     1      28.113  42.788  54.813  1.00  0.00     0.163 HD
HETATM   24  O   UNL     1      30.120  43.219  52.381  1.00  0.00    -0.272 OA
BRANCH  22  25
HETATM   25  C   UNL     1      29.089  44.664  54.563  1.00  0.00     0.113 C 
HETATM   26  C   UNL     1      27.822  45.524  54.594  1.00  0.00     0.037 C 
BRANCH  25  27
HETATM   27  C   UNL     1      29.848  44.742  55.876  1.00  0.00    -0.036 A 
HETATM   28  C   UNL     1      30.869  43.817  56.147  1.00  0.00     0.009 A 
HETATM   29  C   UNL     1      31.589  43.881  57.342  1.00  0.00     0.001 A 
HETATM   30  C   UNL     1      31.294  44.863  58.284  1.00  0.00     0.000 A 
HETATM   31  C   UNL     1      30.280  45.784  58.033  1.00  0.00     0.001 A 
HETATM   32  C   UNL     1      29.561  45.726  56.837  1.00  0.00     0.009 A 
ENDBRANCH  25  27
ENDBRANCH  22  25
ENDBRANCH  20  21
ENDBRANCH   1  20
BRANCH   8  33
HETATM   33  C   UNL     1      28.416  37.083  45.646  1.00  0.00     0.278 C 
BRANCH  33  34
HETATM   34  O   UNL     1      27.582  37.745  44.699  1.00  0.00    -0.342 OA
BRANCH  34  35
HETATM   35  C   UNL     1      28.163  38.814  44.075  1.00  0.00     0.069 A 
HETATM   36  C   UNL     1      29.367  38.762  43.374  1.00  0.00     0.037 A 
HETATM   37  C   UNL     1      29.889  39.923  42.795  1.00  0.00     0.003 A 
HETATM   38  C   UNL     1      29.211  41.135  42.923  1.00  0.00     0.000 A 
HETATM   39  C   UNL     1      28.016  41.191  43.637  1.00  0.00     0.003 A 
HETATM   40  C   UNL     1      27.500  40.034  44.221  1.00  0.00     0.037 A 
ENDBRANCH  34  35
ENDBRANCH  33  34
ENDBRANCH   8  33
TORSDOF 8
ENDMDL
MODEL 6
REMARK VINA RESULT:      -9.2      2.601      4.829
REMARK  8 active torsions:
REMARK  status: ('A' for Active; 'I' for Inactive)
REMARK    1  A    between atoms: C_2  and  N_3 
REMARK    2  A    between atoms: C_2  and  C_34 
REMARK       I    between atoms: N_3  and  C_4 
REMARK    3  A    between atoms: C_4  and  C_5 
REMARK    4  A    between atoms: C_5  and  N_6 
REMARK       I    between atoms: N_12  and  C_13 
REMARK    5  A    between atoms: C_13  and  C_14 
REMARK    6  A    between atoms: C_14  and  O_15 
REMARK    7  A    between atoms: O_15  and  C_16 
REMARK    8  A    between atoms: N_25  and  C_26 
ROOT
HETATM    1  N   UNL     1      23.160  45.034  49.465  1.00  0.00    -0.325 N 
HETATM    2  C   UNL     1      24.046  44.517  50.387  1.00  0.00     0.250 C 
HETATM    3  O   UNL     1      23.845  43.517  51.063  1.00  0.00    -0.270 OA
HETATM    4  C   UNL     1      25.300  45.416  50.416  1.00  0.00     0.118 C 
HETATM    5  C   UNL     1      26.454  44.622  49.787  1.00  0.00     0.061 C 
HETATM    6  C   UNL     1      27.027  43.576  50.738  1.00  0.00     0.129 C 
HETATM    7  N   UNL     1      27.301  44.131  52.060  1.00  0.00    -0.350 N 
HETATM    8  C   UNL     1      28.436  43.676  52.738  1.00  0.00     0.244 C 
HETATM    9  O   UNL     1      29.231  42.884  52.227  1.00  0.00    -0.271 OA
HETATM   10  C   UNL     1      26.163  44.760  52.724  1.00  0.00     0.129 C 
HETATM   11  C   UNL     1      25.533  45.853  51.868  1.00  0.00     0.061 C 
HETATM   12  N   UNL     1      24.878  46.556  49.552  1.00  0.00    -0.346 N 
HETATM   13  C   UNL     1      23.549  46.330  48.997  1.00  0.00     0.254 C 
ENDROOT
BRANCH  12  14
HETATM   14  C   UNL     1      25.557  47.727  49.268  1.00  0.00     0.032 A 
HETATM   15  C   UNL     1      24.934  48.878  48.760  1.00  0.00     0.029 A 
HETATM   16  C   UNL     1      25.639  50.054  48.462  1.00  0.00     0.002 A 
HETATM   17  C   UNL     1      27.008  50.120  48.667  1.00  0.00     0.000 A 
HETATM   18  C   UNL     1      27.665  49.011  49.176  1.00  0.00     0.002 A 
HETATM   19  C   UNL     1      26.948  47.843  49.471  1.00  0.00     0.029 A 
ENDBRANCH  12  14
BRANCH   1  20
HETATM   20  C   UNL     1      21.785  44.566  49.393  1.00  0.00     0.230 C 
BRANCH  20  21
HETATM   21  C   UNL     1      21.298  44.015  48.044  1.00  0.00     0.236 C 
HETATM   22  N   UNL     1      22.220  43.216  47.402  1.00  0.00    -0.351 N 
HETATM   23  H   UNL     1      23.143  43.091  47.798  1.00  0.00     0.163 HD
HETATM   24  O   UNL     1      20.167  44.204  47.604  1.00  0.00    -0.272 OA
BRANCH  22  25
HETATM   25  C   UNL     1      21.939  42.609  46.109  1.00  0.00     0.113 C 
HETATM   26  C   UNL     1      23.004  42.983  45.074  1.00  0.00     0.037 C 
BRANCH  25  27
HETATM   27  C   UNL     1      21.800  41.104  46.248  1.00  0.00    -0.036 A 
HETATM   28  C   UNL     1      20.531  40.509  46.164  1.00  0.00     0.009 A 
HETATM   29  C   UNL     1      20.383  39.125  46.275  1.00  0.00     0.001 A 
HETATM   30  C   UNL     1      21.500  38.317  46.478  1.00  0.00     0.000 A 
HETATM   31  C   UNL     1      22.765  38.892  46.570  1.00  0.00     0.001 A 
HETATM   32  C   UNL     1      22.916  40.276  46.455  1.00  0.00     0.009 A 
ENDBRANCH  25  27
ENDBRANCH  22  25
ENDBRANCH  20  21
ENDBRANCH   1  20
BRANCH   8  33
HETATM   33  C   UNL     1      28.679  44.181  54.163  1.00  0.00     0.278 C 
BRANCH  33  34
HETATM   34  O   UNL     1      29.977  43.782  54.594  1.00  0.00    -0.342 OA
BRANCH  34  35
HETATM   35  C   UNL     1      30.339  44.252  55.826  1.00  0.00     0.069 A 
HETATM   36  C   UNL     1      31.284  43.648  56.656  1.00  0.00     0.037 A 
HETATM   37  C   UNL     1      31.560  44.196  57.912  1.00  0.00     0.003 A 
HETATM   38  C   UNL     1      30.890  45.341  58.341  1.00  0.00     0.000 A 
HETATM   39  C   UNL     1      29.933  45.934  57.520  1.00  0.00     0.003 A 
HETATM   40  C   UNL     1      29.652  45.383  56.269  1.00  0.00     0.037 A 
ENDBRANCH  34  35
ENDBRANCH  33  34
ENDBRANCH   8  33
TORSDOF 8
ENDMDL
MODEL 7
REMARK VINA RESULT:      -9.2      2.620     10.584
REMARK  8 active torsions:
REMARK  status: ('A' for Active; 'I' for Inactive)
REMARK    1  A    between atoms: C_2  and  N_3 
REMARK    2  A    between atoms: C_2  and  C_34 
REMARK       I    between atoms: N_3  and  C_4 
REMARK    3  A    between atoms: C_4  and  C_5 
REMARK    4  A    between atoms: C_5  and  N_6 
REMARK       I    between atoms: N_12  and  C_13 
REMARK    5  A    between atoms: C_13  and  C_14 
REMARK    6  A    between atoms: C_14  and  O_15 
REMARK    7  A    between atoms: O_15  and  C_16 
REMARK    8  A    between atoms: N_25  and  C_26 
ROOT
HETATM    1  N   UNL     1      23.048  47.103  49.188  1.00  0.00    -0.325 N 
HETATM    2  C   UNL     1      22.224  46.455  48.293  1.00  0.00     0.250 C 
HETATM    3  O   UNL     1      22.498  45.406  47.725  1.00  0.00    -0.270 OA
HETATM    4  C   UNL     1      20.929  47.281  48.134  1.00  0.00     0.118 C 
HETATM    5  C   UNL     1      19.792  46.493  48.798  1.00  0.00     0.061 C 
HETATM    6  C   UNL     1      19.307  45.332  47.937  1.00  0.00     0.129 C 
HETATM    7  N   UNL     1      19.057  45.741  46.558  1.00  0.00    -0.350 N 
HETATM    8  C   UNL     1      17.972  45.165  45.891  1.00  0.00     0.244 C 
HETATM    9  O   UNL     1      17.197  44.386  46.450  1.00  0.00    -0.271 OA
HETATM   10  C   UNL     1      20.188  46.362  45.874  1.00  0.00     0.129 C 
HETATM   11  C   UNL     1      20.731  47.563  46.639  1.00  0.00     0.061 C 
HETATM   12  N   UNL     1      21.263  48.519  48.895  1.00  0.00    -0.346 N 
HETATM   13  C   UNL     1      22.579  48.417  49.513  1.00  0.00     0.254 C 
ENDROOT
BRANCH  12  14
HETATM   14  C   UNL     1      20.518  49.676  49.040  1.00  0.00     0.032 A 
HETATM   15  C   UNL     1      19.458  49.802  49.952  1.00  0.00     0.029 A 
HETATM   16  C   UNL     1      18.701  50.977  50.077  1.00  0.00     0.002 A 
HETATM   17  C   UNL     1      18.984  52.080  49.285  1.00  0.00     0.000 A 
HETATM   18  C   UNL     1      20.028  52.004  48.377  1.00  0.00     0.002 A 
HETATM   19  C   UNL     1      20.777  50.825  48.264  1.00  0.00     0.029 A 
ENDBRANCH  12  14
BRANCH   1  20
HETATM   20  C   UNL     1      24.440  46.716  49.352  1.00  0.00     0.230 C 
BRANCH  20  21
HETATM   21  C   UNL     1      24.760  45.680  50.440  1.00  0.00     0.236 C 
HETATM   22  N   UNL     1      25.981  45.872  51.052  1.00  0.00    -0.351 N 
HETATM   23  H   UNL     1      26.598  46.605  50.727  1.00  0.00     0.163 HD
HETATM   24  O   UNL     1      23.975  44.803  50.791  1.00  0.00    -0.272 OA
BRANCH  22  25
HETATM   25  C   UNL     1      26.457  44.986  52.103  1.00  0.00     0.113 C 
HETATM   26  C   UNL     1      27.629  44.128  51.620  1.00  0.00     0.037 C 
BRANCH  25  27
HETATM   27  C   UNL     1      26.823  45.782  53.343  1.00  0.00    -0.036 A 
HETATM   28  C   UNL     1      27.824  45.308  54.207  1.00  0.00     0.009 A 
HETATM   29  C   UNL     1      28.185  46.032  55.344  1.00  0.00     0.001 A 
HETATM   30  C   UNL     1      27.548  47.235  55.639  1.00  0.00     0.000 A 
HETATM   31  C   UNL     1      26.548  47.716  54.796  1.00  0.00     0.001 A 
HETATM   32  C   UNL     1      26.188  46.996  53.654  1.00  0.00     0.009 A 
ENDBRANCH  25  27
ENDBRANCH  22  25
ENDBRANCH  20  21
ENDBRANCH   1  20
BRANCH   8  33
HETATM   33  C   UNL     1      17.760  45.517  44.416  1.00  0.00     0.278 C 
BRANCH  33  34
HETATM   34  O   UNL     1      16.772  46.539  44.308  1.00  0.00    -0.342 OA
BRANCH  34  35
HETATM   35  C   UNL     1      17.133  47.742  44.848  1.00  0.00     0.069 A 
HETATM   36  C   UNL     1      16.698  48.216  46.085  1.00  0.00     0.037 A 
HETATM   37  C   UNL     1      17.106  49.476  46.532  1.00  0.00     0.003 A 
HETATM   38  C   UNL     1      17.943  50.263  45.742  1.00  0.00     0.000 A 
HETATM   39  C   UNL     1      18.365  49.798  44.499  1.00  0.00     0.003 A 
HETATM   40  C   UNL     1      17.951  48.543  44.049  1.00  0.00     0.037 A 
ENDBRANCH  34  35
ENDBRANCH  33  34
ENDBRANCH   8  33
TORSDOF 8
ENDMDL
MODEL 8
REMARK VINA RESULT:      -9.1      3.428      5.274
REMARK  8 active torsions:
REMARK  status: ('A' for Active; 'I' for Inactive)
REMARK    1  A    between atoms: C_2  and  N_3 
REMARK    2  A    between atoms: C_2  and  C_34 
REMARK       I    between atoms: N_3  and  C_4 
REMARK    3  A    between atoms: C_4  and  C_5 
REMARK    4  A    between atoms: C_5  and  N_6 
REMARK       I    between atoms: N_12  and  C_13 
REMARK    5  A    between atoms: C_13  and  C_14 
REMARK    6  A    between atoms: C_14  and  O_15 
REMARK    7  A    between atoms: O_15  and  C_16 
REMARK    8  A    between atoms: N_25  and  C_26 
ROOT
HETATM    1  N   UNL     1      20.164  47.133  48.723  1.00  0.00    -0.325 N 
HETATM    2  C   UNL     1      20.681  45.856  48.644  1.00  0.00     0.250 C 
HETATM    3  O   UNL     1      20.018  44.830  48.706  1.00  0.00    -0.270 OA
HETATM    4  C   UNL     1      22.212  45.959  48.478  1.00  0.00     0.118 C 
HETATM    5  C   UNL     1      22.554  45.518  47.049  1.00  0.00     0.061 C 
HETATM    6  C   UNL     1      22.510  44.002  46.881  1.00  0.00     0.129 C 
HETATM    7  N   UNL     1      23.247  43.314  47.937  1.00  0.00    -0.350 N 
HETATM    8  C   UNL     1      23.962  42.163  47.593  1.00  0.00     0.244 C 
HETATM    9  O   UNL     1      24.039  41.763  46.429  1.00  0.00    -0.271 OA
HETATM   10  C   UNL     1      22.823  43.624  49.299  1.00  0.00     0.129 C 
HETATM   11  C   UNL     1      22.863  45.120  49.586  1.00  0.00     0.061 C 
HETATM   12  N   UNL     1      22.443  47.419  48.676  1.00  0.00    -0.346 N 
HETATM   13  C   UNL     1      21.183  48.130  48.859  1.00  0.00     0.254 C 
ENDROOT
BRANCH  12  14
HETATM   14  C   UNL     1      23.641  48.109  48.727  1.00  0.00     0.032 A 
HETATM   15  C   UNL     1      23.857  49.331  48.070  1.00  0.00     0.029 A 
HETATM   16  C   UNL     1      25.083  50.012  48.119  1.00  0.00     0.002 A 
HETATM   17  C   UNL     1      26.146  49.488  48.837  1.00  0.00     0.000 A 
HETATM   18  C   UNL     1      25.976  48.288  49.509  1.00  0.00     0.002 A 
HETATM   19  C   UNL     1      24.746  47.620  49.455  1.00  0.00     0.029 A 
ENDBRANCH  12  14
BRANCH   1  20
HETATM   20  C   UNL     1      18.791  47.368  49.139  1.00  0.00     0.230 C 
BRANCH  20  21
HETATM   21  C   UNL     1      18.516  48.623  49.982  1.00  0.00     0.236 C 
HETATM   22  N   UNL     1      18.147  49.724  49.239  1.00  0.00    -0.351 N 
HETATM   23  H   UNL     1      18.139  49.672  48.229  1.00  0.00     0.163 HD
HETATM   24  O   UNL     1      18.548  48.634  51.210  1.00  0.00    -0.272 OA
BRANCH  22  25
HETATM   25  C   UNL     1      17.853  51.005  49.865  1.00  0.00     0.113 C 
HETATM   26  C   UNL     1      19.115  51.859  50.009  1.00  0.00     0.037 C 
BRANCH  25  27
HETATM   27  C   UNL     1      16.770  51.737  49.091  1.00  0.00    -0.036 A 
HETATM   28  C   UNL     1      15.907  52.618  49.763  1.00  0.00     0.009 A 
HETATM   29  C   UNL     1      14.915  53.311  49.068  1.00  0.00     0.001 A 
HETATM   30  C   UNL     1      14.766  53.129  47.695  1.00  0.00     0.000 A 
HETATM   31  C   UNL     1      15.610  52.254  47.015  1.00  0.00     0.001 A 
HETATM   32  C   UNL     1      16.607  51.563  47.707  1.00  0.00     0.009 A 
ENDBRANCH  25  27
ENDBRANCH  22  25
ENDBRANCH  20  21
ENDBRANCH   1  20
BRANCH   8  33
HETATM   33  C   UNL     1      24.657  41.383  48.711  1.00  0.00     0.278 C 
BRANCH  33  34
HETATM   34  O   UNL     1      26.042  41.719  48.737  1.00  0.00    -0.342 OA
BRANCH  34  35
HETATM   35  C   UNL     1      26.398  42.599  49.721  1.00  0.00     0.069 A 
HETATM   36  C   UNL     1      26.512  43.978  49.546  1.00  0.00     0.037 A 
HETATM   37  C   UNL     1      26.910  44.786  50.614  1.00  0.00     0.003 A 
HETATM   38  C   UNL     1      27.202  44.217  51.854  1.00  0.00     0.000 A 
HETATM   39  C   UNL     1      27.105  42.838  52.025  1.00  0.00     0.003 A 
HETATM   40  C   UNL     1      26.714  42.030  50.956  1.00  0.00     0.037 A 
ENDBRANCH  34  35
ENDBRANCH  33  34
ENDBRANCH   8  33
TORSDOF 8
ENDMDL
MODEL 9
REMARK VINA RESULT:      -8.9      2.567     10.596
REMARK  8 active torsions:
REMARK  status: ('A' for Active; 'I' for Inactive)
REMARK    1  A    between atoms: C_2  and  N_3 
REMARK    2  A    between atoms: C_2  and  C_34 
REMARK       I    between atoms: N_3  and  C_4 
REMARK    3  A    between atoms: C_4  and  C_5 
REMARK    4  A    between atoms: C_5  and  N_6 
REMARK       I    between atoms: N_12  and  C_13 
REMARK    5  A    between atoms: C_13  and  C_14 
REMARK    6  A    between atoms: C_14  and  O_15 
REMARK    7  A    between atoms: O_15  and  C_16 
REMARK    8  A    between atoms: N_25  and  C_26 
ROOT
HETATM    1  N   UNL     1      23.523  46.650  49.316  1.00  0.00    -0.325 N 
HETATM    2  C   UNL     1      22.696  46.029  48.404  1.00  0.00     0.250 C 
HETATM    3  O   UNL     1      22.944  44.970  47.844  1.00  0.00    -0.270 OA
HETATM    4  C   UNL     1      21.435  46.901  48.217  1.00  0.00     0.118 C 
HETATM    5  C   UNL     1      20.257  46.155  48.859  1.00  0.00     0.061 C 
HETATM    6  C   UNL     1      19.749  45.010  47.988  1.00  0.00     0.129 C 
HETATM    7  N   UNL     1      19.542  45.425  46.604  1.00  0.00    -0.350 N 
HETATM    8  C   UNL     1      18.452  44.887  45.915  1.00  0.00     0.244 C 
HETATM    9  O   UNL     1      17.638  44.137  46.459  1.00  0.00    -0.271 OA
HETATM   10  C   UNL     1      20.709  46.004  45.944  1.00  0.00     0.129 C 
HETATM   11  C   UNL     1      21.279  47.187  46.718  1.00  0.00     0.061 C 
HETATM   12  N   UNL     1      21.797  48.128  48.983  1.00  0.00    -0.346 N 
HETATM   13  C   UNL     1      23.095  47.980  49.630  1.00  0.00     0.254 C 
ENDROOT
BRANCH  12  14
HETATM   14  C   UNL     1      21.091  49.310  49.111  1.00  0.00     0.032 A 
HETATM   15  C   UNL     1      19.968  49.454  49.942  1.00  0.00     0.029 A 
HETATM   16  C   UNL     1      19.253  50.656  50.050  1.00  0.00     0.002 A 
HETATM   17  C   UNL     1      19.643  51.770  49.323  1.00  0.00     0.000 A 
HETATM   18  C   UNL     1      20.751  51.678  48.496  1.00  0.00     0.002 A 
HETATM   19  C   UNL     1      21.458  50.472  48.399  1.00  0.00     0.029 A 
ENDBRANCH  12  14
BRANCH   1  20
HETATM   20  C   UNL     1      24.897  46.214  49.509  1.00  0.00     0.230 C 
BRANCH  20  21
HETATM   21  C   UNL     1      25.545  46.510  50.870  1.00  0.00     0.236 C 
HETATM   22  N   UNL     1      25.789  45.385  51.629  1.00  0.00    -0.351 N 
HETATM   23  H   UNL     1      25.487  44.478  51.299  1.00  0.00     0.163 HD
HETATM   24  O   UNL     1      25.886  47.635  51.227  1.00  0.00    -0.272 OA
BRANCH  22  25
HETATM   25  C   UNL     1      26.394  45.470  52.951  1.00  0.00     0.113 C 
HETATM   26  C   UNL     1      25.368  45.190  54.052  1.00  0.00     0.037 C 
BRANCH  25  27
HETATM   27  C   UNL     1      27.587  44.537  53.049  1.00  0.00    -0.036 A 
HETATM   28  C   UNL     1      28.359  44.513  54.222  1.00  0.00     0.009 A 
HETATM   29  C   UNL     1      29.452  43.652  54.339  1.00  0.00     0.001 A 
HETATM   30  C   UNL     1      29.793  42.808  53.284  1.00  0.00     0.000 A 
HETATM   31  C   UNL     1      29.041  42.825  52.111  1.00  0.00     0.001 A 
HETATM   32  C   UNL     1      27.944  43.682  51.994  1.00  0.00     0.009 A 
ENDBRANCH  25  27
ENDBRANCH  22  25
ENDBRANCH  20  21
ENDBRANCH   1  20
BRANCH   8  33
HETATM   33  C   UNL     1      18.283  45.243  44.436  1.00  0.00     0.278 C 
BRANCH  33  34
HETATM   34  O   UNL     1      17.254  46.218  44.295  1.00  0.00    -0.342 OA
BRANCH  34  35
HETATM   35  C   UNL     1      17.416  47.336  45.065  1.00  0.00     0.069 A 
HETATM   36  C   UNL     1      16.725  47.588  46.250  1.00  0.00     0.037 A 
HETATM   37  C   UNL     1      16.947  48.779  46.948  1.00  0.00     0.003 A 
HETATM   38  C   UNL     1      17.852  49.720  46.458  1.00  0.00     0.000 A 
HETATM   39  C   UNL     1      18.530  49.477  45.266  1.00  0.00     0.003 A 
HETATM   40  C   UNL     1      18.303  48.292  44.566  1.00  0.00     0.037 A 
ENDBRANCH  34  35
ENDBRANCH  33  34
ENDBRANCH   8  33
TORSDOF 8
ENDMDL
MODEL 10
REMARK VINA RESULT:      -8.8      3.395     10.295
REMARK  8 active torsions:
REMARK  status: ('A' for Active; 'I' for Inactive)
REMARK    1  A    between atoms: C_2  and  N_3 
REMARK    2  A    between atoms: C_2  and  C_34 
REMARK       I    between atoms: N_3  and  C_4 
REMARK    3  A    between atoms: C_4  and  C_5 
REMARK    4  A    between atoms: C_5  and  N_6 
REMARK       I    between atoms: N_12  and  C_13 
REMARK    5  A    between atoms: C_13  and  C_14 
REMARK    6  A    between atoms: C_14  and  O_15 
REMARK    7  A    between atoms: O_15  and  C_16 
REMARK    8  A    between atoms: N_25  and  C_26 
ROOT
HETATM    1  N   UNL     1      21.794  45.076  48.669  1.00  0.00    -0.325 N 
HETATM    2  C   UNL     1      20.538  45.312  48.152  1.00  0.00     0.250 C 
HETATM    3  O   UNL     1      19.759  44.442  47.785  1.00  0.00    -0.270 OA
HETATM    4  C   UNL     1      20.305  46.837  48.112  1.00  0.00     0.118 C 
HETATM    5  C   UNL     1      19.251  47.173  49.176  1.00  0.00     0.061 C 
HETATM    6  C   UNL     1      17.837  46.818  48.728  1.00  0.00     0.129 C 
HETATM    7  N   UNL     1      17.547  47.316  47.387  1.00  0.00    -0.350 N 
HETATM    8  C   UNL     1      16.258  47.790  47.130  1.00  0.00     0.244 C 
HETATM    9  O   UNL     1      15.397  47.859  48.010  1.00  0.00    -0.271 OA
HETATM   10  C   UNL     1      18.468  46.877  46.344  1.00  0.00     0.129 C 
HETATM   11  C   UNL     1      19.916  47.217  46.677  1.00  0.00     0.061 C 
HETATM   12  N   UNL     1      21.651  47.361  48.482  1.00  0.00    -0.346 N 
HETATM   13  C   UNL     1      22.571  46.273  48.791  1.00  0.00     0.254 C 
ENDROOT
BRANCH  12  14
HETATM   14  C   UNL     1      22.088  48.672  48.531  1.00  0.00     0.032 A 
HETATM   15  C   UNL     1      23.317  49.097  48.000  1.00  0.00     0.029 A 
HETATM   16  C   UNL     1      23.754  50.429  48.072  1.00  0.00     0.002 A 
HETATM   17  C   UNL     1      22.965  51.393  48.682  1.00  0.00     0.000 A 
HETATM   18  C   UNL     1      21.740  51.020  49.212  1.00  0.00     0.002 A 
HETATM   19  C   UNL     1      21.315  49.687  49.132  1.00  0.00     0.029 A 
ENDBRANCH  12  14
BRANCH   1  20
HETATM   20  C   UNL     1      22.408  43.760  48.593  1.00  0.00     0.230 C 
BRANCH  20  21
HETATM   21  C   UNL     1      23.295  43.328  49.771  1.00  0.00     0.236 C 
HETATM   22  N   UNL     1      24.602  43.754  49.671  1.00  0.00    -0.351 N 
HETATM   23  H   UNL     1      24.911  44.248  48.843  1.00  0.00     0.163 HD
HETATM   24  O   UNL     1      22.871  42.721  50.751  1.00  0.00    -0.272 OA
BRANCH  22  25
HETATM   25  C   UNL     1      25.591  43.436  50.691  1.00  0.00     0.113 C 
HETATM   26  C   UNL     1      26.955  43.129  50.067  1.00  0.00     0.037 C 
BRANCH  25  27
HETATM   27  C   UNL     1      25.683  44.557  51.710  1.00  0.00    -0.036 A 
HETATM   28  C   UNL     1      25.454  44.286  53.068  1.00  0.00     0.009 A 
HETATM   29  C   UNL     1      25.548  45.299  54.024  1.00  0.00     0.001 A 
HETATM   30  C   UNL     1      25.864  46.599  53.635  1.00  0.00     0.000 A 
HETATM   31  C   UNL     1      26.088  46.886  52.290  1.00  0.00     0.001 A 
HETATM   32  C   UNL     1      25.999  45.873  51.333  1.00  0.00     0.009 A 
ENDBRANCH  25  27
ENDBRANCH  22  25
ENDBRANCH  20  21
ENDBRANCH   1  20
BRANCH   8  33
HETATM   33  C   UNL     1      15.918  48.225  45.702  1.00  0.00     0.278 C 
BRANCH  33  34
HETATM   34  O   UNL     1      15.666  49.628  45.679  1.00  0.00    -0.342 OA
BRANCH  34  35
HETATM   35  C   UNL     1      16.637  50.393  46.262  1.00  0.00     0.069 A 
HETATM   36  C   UNL     1      17.978  50.397  45.876  1.00  0.00     0.037 A 
HETATM   37  C   UNL     1      18.898  51.199  46.559  1.00  0.00     0.003 A 
HETATM   38  C   UNL     1      18.480  51.988  47.630  1.00  0.00     0.000 A 
HETATM   39  C   UNL     1      17.145  51.972  48.026  1.00  0.00     0.003 A 
HETATM   40  C   UNL     1      16.228  51.166  47.349  1.00  0.00     0.037 A 
ENDBRANCH  34  35
ENDBRANCH  33  34
ENDBRANCH   8  33
TORSDOF 8
ENDMDL
