MODEL 1
REMARK VINA RESULT:      -7.0      0.000      0.000
REMARK  5 active torsions:
REMARK  status: ('A' for Active; 'I' for Inactive)
REMARK    1  A    between atoms: C_2  and  C_3 
REMARK    2  A    between atoms: C_3  and  C_4 
REMARK    3  A    between atoms: C_10  and  C_11 
REMARK    4  A    between atoms: C_12  and  O_13 
REMARK    5  A    between atoms: C_22  and  N_23 
ROOT
HETATM    1  C   UNL     1      27.322  42.718  51.723  1.00  0.00     0.066 A 
HETATM    2  N   UNL     1      28.468  42.016  51.739  1.00  0.00    -0.177 NA
HETATM    3  N   UNL     1      29.224  42.623  52.673  1.00  0.00    -0.256 N 
HETATM    4  H   UNL     1      30.149  42.258  52.869  1.00  0.00     0.191 HD
HETATM    5  C   UNL     1      28.605  43.692  53.231  1.00  0.00     0.175 A 
HETATM    6  C   UNL     1      27.368  43.798  52.644  1.00  0.00     0.035 A 
HETATM    7  C   UNL     1      26.442  44.888  53.076  1.00  0.00     0.107 A 
HETATM    8  C   UNL     1      27.144  45.814  54.075  1.00  0.00     0.067 A 
HETATM    9  C   UNL     1      26.411  47.088  54.465  1.00  0.00     0.020 C 
HETATM   10  N   UNL     1      25.803  48.144  54.789  1.00  0.00    -0.096 N 
HETATM   11  C   UNL     1      28.392  45.584  54.563  1.00  0.00     0.139 A 
HETATM   12  O   UNL     1      29.146  44.467  54.163  1.00  0.00    -0.279 OA
ENDROOT
BRANCH   7  13
HETATM   13  C   UNL     1      25.979  45.604  51.816  1.00  0.00    -0.010 A 
HETATM   14  C   UNL     1      24.683  45.422  51.308  1.00  0.00     0.073 A 
HETATM   15  C   UNL     1      24.216  46.155  50.217  1.00  0.00     0.038 A 
HETATM   16  C   UNL     1      25.050  47.075  49.588  1.00  0.00     0.022 A 
HETATM   17  C   UNL     1      26.344  47.262  50.062  1.00  0.00     0.011 A 
HETATM   18 BR   UNL     1      27.481  48.514  49.217  1.00  0.00    -0.051 Br
HETATM   19  C   UNL     1      26.808  46.543  51.166  1.00  0.00     0.030 A 
BRANCH  14  20
HETATM   20  O   UNL     1      23.801  44.534  51.851  1.00  0.00    -0.360 OA
HETATM   21  H   UNL     1      23.442  43.976  51.140  1.00  0.00     0.217 HD
ENDBRANCH  14  20
ENDBRANCH   7  13
BRANCH  11  22
HETATM   22  N   UNL     1      29.065  46.388  55.453  1.00  0.00    -0.282 NA
HETATM   23  H   UNL     1      29.191  47.358  55.171  1.00  0.00     0.126 HD
HETATM   24  H   UNL     1      29.922  45.958  55.790  1.00  0.00     0.126 HD
ENDBRANCH  11  22
BRANCH   1  25
HETATM   25  C   UNL     1      26.235  42.315  50.778  1.00  0.00     0.061 C 
BRANCH  25  26
HETATM   26  C   UNL     1      26.470  42.757  49.331  1.00  0.00     0.002 C 
HETATM   27  C   UNL     1      26.998  41.636  48.447  1.00  0.00     0.005 C 
ENDBRANCH  25  26
ENDBRANCH   1  25
TORSDOF 5
ENDMDL
MODEL 2
REMARK VINA RESULT:      -6.9      2.772      4.683
REMARK  5 active torsions:
REMARK  status: ('A' for Active; 'I' for Inactive)
REMARK    1  A    between atoms: C_2  and  C_3 
REMARK    2  A    between atoms: C_3  and  C_4 
REMARK    3  A    between atoms: C_10  and  C_11 
REMARK    4  A    between atoms: C_12  and  O_13 
REMARK    5  A    between atoms: C_22  and  N_23 
ROOT
HETATM    1  C   UNL     1      28.294  42.389  51.421  1.00  0.00     0.066 A 
HETATM    2  N   UNL     1      28.373  41.096  51.063  1.00  0.00    -0.177 NA
HETATM    3  N   UNL     1      27.452  40.956  50.093  1.00  0.00    -0.256 N 
HETATM    4  H   UNL     1      27.332  40.049  49.656  1.00  0.00     0.191 HD
HETATM    5  C   UNL     1      26.781  42.106  49.840  1.00  0.00     0.175 A 
HETATM    6  C   UNL     1      27.288  43.066  50.681  1.00  0.00     0.035 A 
HETATM    7  C   UNL     1      26.748  44.458  50.618  1.00  0.00     0.107 A 
HETATM    8  C   UNL     1      25.568  44.522  49.642  1.00  0.00     0.067 A 
HETATM    9  C   UNL     1      24.775  45.820  49.607  1.00  0.00     0.020 C 
HETATM   10  N   UNL     1      24.119  46.896  49.577  1.00  0.00    -0.096 N 
HETATM   11  C   UNL     1      25.167  43.473  48.877  1.00  0.00     0.139 A 
HETATM   12  O   UNL     1      25.811  42.225  48.941  1.00  0.00    -0.279 OA
ENDROOT
BRANCH   7  13
HETATM   13  C   UNL     1      26.377  44.855  52.038  1.00  0.00    -0.010 A 
HETATM   14  C   UNL     1      25.412  44.142  52.767  1.00  0.00     0.073 A 
HETATM   15  C   UNL     1      25.144  44.432  54.105  1.00  0.00     0.038 A 
HETATM   16  C   UNL     1      25.821  45.469  54.741  1.00  0.00     0.022 A 
HETATM   17  C   UNL     1      26.769  46.202  54.036  1.00  0.00     0.011 A 
HETATM   18 BR   UNL     1      27.697  47.607  54.895  1.00  0.00    -0.051 Br
HETATM   19  C   UNL     1      27.054  45.900  52.702  1.00  0.00     0.030 A 
BRANCH  14  20
HETATM   20  O   UNL     1      24.691  43.120  52.223  1.00  0.00    -0.360 OA
HETATM   21  H   UNL     1      24.532  43.315  51.284  1.00  0.00     0.217 HD
ENDBRANCH  14  20
ENDBRANCH   7  13
BRANCH  11  22
HETATM   22  N   UNL     1      24.112  43.481  47.995  1.00  0.00    -0.282 NA
HETATM   23  H   UNL     1      23.278  42.978  48.293  1.00  0.00     0.126 HD
HETATM   24  H   UNL     1      24.399  43.250  47.048  1.00  0.00     0.126 HD
ENDBRANCH  11  22
BRANCH   1  25
HETATM   25  C   UNL     1      29.192  42.902  52.501  1.00  0.00     0.061 C 
BRANCH  25  26
HETATM   26  C   UNL     1      28.651  42.687  53.917  1.00  0.00     0.002 C 
HETATM   27  C   UNL     1      29.285  43.618  54.942  1.00  0.00     0.005 C 
ENDBRANCH  25  26
ENDBRANCH   1  25
TORSDOF 5
ENDMDL
MODEL 3
REMARK VINA RESULT:      -6.9      6.447      9.165
REMARK  5 active torsions:
REMARK  status: ('A' for Active; 'I' for Inactive)
REMARK    1  A    between atoms: C_2  and  C_3 
REMARK    2  A    between atoms: C_3  and  C_4 
REMARK    3  A    between atoms: C_10  and  C_11 
REMARK    4  A    between atoms: C_12  and  O_13 
REMARK    5  A    between atoms: C_22  and  N_23 
ROOT
HETATM    1  C   UNL     1      22.337  49.247  48.678  1.00  0.00     0.066 A 
HETATM    2  N   UNL     1      23.287  49.196  49.628  1.00  0.00    -0.177 NA
HETATM    3  N   UNL     1      23.520  47.882  49.803  1.00  0.00    -0.256 N 
HETATM    4  H   UNL     1      24.217  47.594  50.480  1.00  0.00     0.191 HD
HETATM    5  C   UNL     1      22.738  47.104  49.015  1.00  0.00     0.175 A 
HETATM    6  C   UNL     1      21.948  47.943  48.269  1.00  0.00     0.035 A 
HETATM    7  C   UNL     1      20.986  47.363  47.285  1.00  0.00     0.107 A 
HETATM    8  C   UNL     1      20.979  45.834  47.390  1.00  0.00     0.067 A 
HETATM    9  C   UNL     1      19.912  45.095  46.598  1.00  0.00     0.020 C 
HETATM   10  N   UNL     1      19.028  44.482  45.941  1.00  0.00    -0.096 N 
HETATM   11  C   UNL     1      21.822  45.133  48.194  1.00  0.00     0.139 A 
HETATM   12  O   UNL     1      22.765  45.776  49.014  1.00  0.00    -0.279 OA
ENDROOT
BRANCH   7  13
HETATM   13  C   UNL     1      19.630  47.991  47.567  1.00  0.00    -0.010 A 
HETATM   14  C   UNL     1      18.999  47.837  48.812  1.00  0.00     0.073 A 
HETATM   15  C   UNL     1      17.808  48.498  49.116  1.00  0.00     0.038 A 
HETATM   16  C   UNL     1      17.203  49.312  48.163  1.00  0.00     0.022 A 
HETATM   17  C   UNL     1      17.798  49.468  46.916  1.00  0.00     0.011 A 
HETATM   18 BR   UNL     1      16.984  50.577  45.620  1.00  0.00    -0.051 Br
HETATM   19  C   UNL     1      19.001  48.823  46.617  1.00  0.00     0.030 A 
BRANCH  14  20
HETATM   20  O   UNL     1      19.513  47.049  49.801  1.00  0.00    -0.360 OA
HETATM   21  H   UNL     1      20.464  46.931  49.643  1.00  0.00     0.217 HD
ENDBRANCH  14  20
ENDBRANCH   7  13
BRANCH  11  22
HETATM   22  N   UNL     1      21.848  43.764  48.328  1.00  0.00    -0.282 NA
HETATM   23  H   UNL     1      21.357  43.237  47.609  1.00  0.00     0.126 HD
HETATM   24  H   UNL     1      21.615  43.464  49.271  1.00  0.00     0.126 HD
ENDBRANCH  11  22
BRANCH   1  25
HETATM   25  C   UNL     1      21.825  50.579  48.232  1.00  0.00     0.061 C 
BRANCH  25  26
HETATM   26  C   UNL     1      20.822  51.218  49.196  1.00  0.00     0.002 C 
HETATM   27  C   UNL     1      19.755  52.039  48.485  1.00  0.00     0.005 C 
ENDBRANCH  25  26
ENDBRANCH   1  25
TORSDOF 5
ENDMDL
MODEL 4
REMARK VINA RESULT:      -6.9      5.282      7.665
REMARK  5 active torsions:
REMARK  status: ('A' for Active; 'I' for Inactive)
REMARK    1  A    between atoms: C_2  and  C_3 
REMARK    2  A    between atoms: C_3  and  C_4 
REMARK    3  A    between atoms: C_10  and  C_11 
REMARK    4  A    between atoms: C_12  and  O_13 
REMARK    5  A    between atoms: C_22  and  N_23 
ROOT
HETATM    1  C   UNL     1      24.186  46.750  49.862  1.00  0.00     0.066 A 
HETATM    2  N   UNL     1      24.455  45.733  50.699  1.00  0.00    -0.177 NA
HETATM    3  N   UNL     1      23.621  44.749  50.316  1.00  0.00    -0.256 N 
HETATM    4  H   UNL     1      23.648  43.864  50.809  1.00  0.00     0.191 HD
HETATM    5  C   UNL     1      22.823  45.114  49.283  1.00  0.00     0.175 A 
HETATM    6  C   UNL     1      23.149  46.408  48.955  1.00  0.00     0.035 A 
HETATM    7  C   UNL     1      22.437  47.079  47.826  1.00  0.00     0.107 A 
HETATM    8  C   UNL     1      21.321  46.175  47.291  1.00  0.00     0.067 A 
HETATM    9  C   UNL     1      20.370  46.785  46.273  1.00  0.00     0.020 C 
HETATM   10  N   UNL     1      19.582  47.289  45.428  1.00  0.00    -0.096 N 
HETATM   11  C   UNL     1      21.109  44.905  47.729  1.00  0.00     0.139 A 
HETATM   12  O   UNL     1      21.904  44.329  48.734  1.00  0.00    -0.279 OA
ENDROOT
BRANCH   7  13
HETATM   13  C   UNL     1      21.930  48.413  48.351  1.00  0.00    -0.010 A 
HETATM   14  C   UNL     1      22.557  49.620  48.004  1.00  0.00     0.073 A 
HETATM   15  C   UNL     1      22.035  50.854  48.393  1.00  0.00     0.038 A 
HETATM   16  C   UNL     1      20.880  50.908  49.168  1.00  0.00     0.022 A 
HETATM   17  C   UNL     1      20.249  49.726  49.540  1.00  0.00     0.011 A 
HETATM   18 BR   UNL     1      18.677  49.791  50.587  1.00  0.00    -0.051 Br
HETATM   19  C   UNL     1      20.759  48.489  49.135  1.00  0.00     0.030 A 
BRANCH  14  20
HETATM   20  O   UNL     1      23.699  49.664  47.259  1.00  0.00    -0.360 OA
HETATM   21  H   UNL     1      24.444  49.885  47.843  1.00  0.00     0.217 HD
ENDBRANCH  14  20
ENDBRANCH   7  13
BRANCH  11  22
HETATM   22  N   UNL     1      20.117  44.061  47.286  1.00  0.00    -0.282 NA
HETATM   23  H   UNL     1      19.196  44.477  47.170  1.00  0.00     0.126 HD
HETATM   24  H   UNL     1      20.097  43.186  47.804  1.00  0.00     0.126 HD
ENDBRANCH  11  22
BRANCH   1  25
HETATM   25  C   UNL     1      24.941  48.032  50.008  1.00  0.00     0.061 C 
BRANCH  25  26
HETATM   26  C   UNL     1      26.425  47.929  49.642  1.00  0.00     0.002 C 
HETATM   27  C   UNL     1      26.930  49.137  48.868  1.00  0.00     0.005 C 
ENDBRANCH  25  26
ENDBRANCH   1  25
TORSDOF 5
ENDMDL
MODEL 5
REMARK VINA RESULT:      -6.7      3.325      5.166
REMARK  5 active torsions:
REMARK  status: ('A' for Active; 'I' for Inactive)
REMARK    1  A    between atoms: C_2  and  C_3 
REMARK    2  A    between atoms: C_3  and  C_4 
REMARK    3  A    between atoms: C_10  and  C_11 
REMARK    4  A    between atoms: C_12  and  O_13 
REMARK    5  A    between atoms: C_22  and  N_23 
ROOT
HETATM    1  C   UNL     1      28.712  41.984  51.815  1.00  0.00     0.066 A 
HETATM    2  N   UNL     1      28.950  40.708  52.166  1.00  0.00    -0.177 NA
HETATM    3  N   UNL     1      28.041  39.992  51.478  1.00  0.00    -0.256 N 
HETATM    4  H   UNL     1      28.032  38.984  51.579  1.00  0.00     0.191 HD
HETATM    5  C   UNL     1      27.227  40.770  50.723  1.00  0.00     0.175 A 
HETATM    6  C   UNL     1      27.620  42.073  50.911  1.00  0.00     0.035 A 
HETATM    7  C   UNL     1      26.907  43.166  50.184  1.00  0.00     0.107 A 
HETATM    8  C   UNL     1      25.716  42.595  49.406  1.00  0.00     0.067 A 
HETATM    9  C   UNL     1      24.766  43.598  48.770  1.00  0.00     0.020 C 
HETATM   10  N   UNL     1      23.978  44.428  48.242  1.00  0.00    -0.096 N 
HETATM   11  C   UNL     1      25.443  41.266  49.320  1.00  0.00     0.139 A 
HETATM   12  O   UNL     1      26.240  40.305  49.967  1.00  0.00    -0.279 OA
ENDROOT
BRANCH   7  13
HETATM   13  C   UNL     1      26.506  44.202  51.222  1.00  0.00    -0.010 A 
HETATM   14  C   UNL     1      26.511  45.574  50.924  1.00  0.00     0.073 A 
HETATM   15  C   UNL     1      26.042  46.522  51.833  1.00  0.00     0.038 A 
HETATM   16  C   UNL     1      25.579  46.119  53.082  1.00  0.00     0.022 A 
HETATM   17  C   UNL     1      25.579  44.767  53.409  1.00  0.00     0.011 A 
HETATM   18 BR   UNL     1      24.946  44.210  55.101  1.00  0.00    -0.051 Br
HETATM   19  C   UNL     1      26.030  43.813  52.492  1.00  0.00     0.030 A 
BRANCH  14  20
HETATM   20  O   UNL     1      26.959  46.063  49.731  1.00  0.00    -0.360 OA
HETATM   21  H   UNL     1      26.518  45.581  49.011  1.00  0.00     0.217 HD
ENDBRANCH  14  20
ENDBRANCH   7  13
BRANCH  11  22
HETATM   22  N   UNL     1      24.384  40.708  48.643  1.00  0.00    -0.282 NA
HETATM   23  H   UNL     1      23.471  40.810  49.080  1.00  0.00     0.126 HD
HETATM   24  H   UNL     1      24.577  39.757  48.341  1.00  0.00     0.126 HD
ENDBRANCH  11  22
BRANCH   1  25
HETATM   25  C   UNL     1      29.551  43.070  52.407  1.00  0.00     0.061 C 
BRANCH  25  26
HETATM   26  C   UNL     1      29.685  42.996  53.930  1.00  0.00     0.002 C 
HETATM   27  C   UNL     1      29.092  44.207  54.638  1.00  0.00     0.005 C 
ENDBRANCH  25  26
ENDBRANCH   1  25
TORSDOF 5
ENDMDL
MODEL 6
REMARK VINA RESULT:      -6.6     16.613     17.732
REMARK  5 active torsions:
REMARK  status: ('A' for Active; 'I' for Inactive)
REMARK    1  A    between atoms: C_2  and  C_3 
REMARK    2  A    between atoms: C_3  and  C_4 
REMARK    3  A    between atoms: C_10  and  C_11 
REMARK    4  A    between atoms: C_12  and  O_13 
REMARK    5  A    between atoms: C_22  and  N_23 
ROOT
HETATM    1  C   UNL     1      37.707  43.509  63.772  1.00  0.00     0.066 A 
HETATM    2  N   UNL     1      37.586  42.170  63.802  1.00  0.00    -0.177 NA
HETATM    3  N   UNL     1      36.730  41.930  64.812  1.00  0.00    -0.256 N 
HETATM    4  H   UNL     1      36.477  40.971  65.023  1.00  0.00     0.191 HD
HETATM    5  C   UNL     1      36.323  43.065  65.432  1.00  0.00     0.175 A 
HETATM    6  C   UNL     1      36.934  44.118  64.796  1.00  0.00     0.035 A 
HETATM    7  C   UNL     1      36.658  45.512  65.255  1.00  0.00     0.107 A 
HETATM    8  C   UNL     1      35.778  45.491  66.510  1.00  0.00     0.067 A 
HETATM    9  C   UNL     1      35.567  46.818  67.223  1.00  0.00     0.020 C 
HETATM   10  N   UNL     1      35.389  47.917  67.814  1.00  0.00    -0.096 N 
HETATM   11  C   UNL     1      35.250  44.355  67.039  1.00  0.00     0.139 A 
HETATM   12  O   UNL     1      35.493  43.094  66.468  1.00  0.00    -0.279 OA
ENDROOT
BRANCH   7  13
HETATM   13  C   UNL     1      38.005  46.182  65.476  1.00  0.00    -0.010 A 
HETATM   14  C   UNL     1      38.336  47.384  64.831  1.00  0.00     0.073 A 
HETATM   15  C   UNL     1      39.524  48.060  65.110  1.00  0.00     0.038 A 
HETATM   16  C   UNL     1      40.427  47.531  66.028  1.00  0.00     0.022 A 
HETATM   17  C   UNL     1      40.130  46.332  66.667  1.00  0.00     0.011 A 
HETATM   18 BR   UNL     1      41.349  45.611  67.920  1.00  0.00    -0.051 Br
HETATM   19  C   UNL     1      38.932  45.663  66.405  1.00  0.00     0.030 A 
BRANCH  14  20
HETATM   20  O   UNL     1      37.520  47.970  63.908  1.00  0.00    -0.360 OA
HETATM   21  H   UNL     1      37.909  48.820  63.642  1.00  0.00     0.217 HD
ENDBRANCH  14  20
ENDBRANCH   7  13
BRANCH  11  22
HETATM   22  N   UNL     1      34.464  44.286  68.165  1.00  0.00    -0.282 NA
HETATM   23  H   UNL     1      33.766  43.545  68.178  1.00  0.00     0.126 HD
HETATM   24  H   UNL     1      34.087  45.192  68.428  1.00  0.00     0.126 HD
ENDBRANCH  11  22
BRANCH   1  25
HETATM   25  C   UNL     1      38.604  44.136  62.753  1.00  0.00     0.061 C 
BRANCH  25  26
HETATM   26  C   UNL     1      40.039  43.603  62.773  1.00  0.00     0.002 C 
HETATM   27  C   UNL     1      40.962  44.416  63.670  1.00  0.00     0.005 C 
ENDBRANCH  25  26
ENDBRANCH   1  25
TORSDOF 5
ENDMDL
MODEL 7
REMARK VINA RESULT:      -6.6      6.203      8.607
REMARK  5 active torsions:
REMARK  status: ('A' for Active; 'I' for Inactive)
REMARK    1  A    between atoms: C_2  and  C_3 
REMARK    2  A    between atoms: C_3  and  C_4 
REMARK    3  A    between atoms: C_10  and  C_11 
REMARK    4  A    between atoms: C_12  and  O_13 
REMARK    5  A    between atoms: C_22  and  N_23 
ROOT
HETATM    1  C   UNL     1      23.085  48.199  49.234  1.00  0.00     0.066 A 
HETATM    2  N   UNL     1      23.988  47.437  49.877  1.00  0.00    -0.177 NA
HETATM    3  N   UNL     1      23.688  46.177  49.514  1.00  0.00    -0.256 N 
HETATM    4  H   UNL     1      24.249  45.415  49.877  1.00  0.00     0.191 HD
HETATM    5  C   UNL     1      22.618  46.114  48.684  1.00  0.00     0.175 A 
HETATM    6  C   UNL     1      22.188  47.401  48.475  1.00  0.00     0.035 A 
HETATM    7  C   UNL     1      21.020  47.648  47.577  1.00  0.00     0.107 A 
HETATM    8  C   UNL     1      20.412  46.317  47.123  1.00  0.00     0.067 A 
HETATM    9  C   UNL     1      19.095  46.386  46.364  1.00  0.00     0.020 C 
HETATM   10  N   UNL     1      18.005  46.443  45.734  1.00  0.00    -0.096 N 
HETATM   11  C   UNL     1      20.948  45.104  47.422  1.00  0.00     0.139 A 
HETATM   12  O   UNL     1      22.114  44.985  48.199  1.00  0.00    -0.279 OA
ENDROOT
BRANCH   7  13
HETATM   13  C   UNL     1      20.045  48.524  48.346  1.00  0.00    -0.010 A 
HETATM   14  C   UNL     1      19.382  48.049  49.489  1.00  0.00     0.073 A 
HETATM   15  C   UNL     1      18.569  48.879  50.262  1.00  0.00     0.038 A 
HETATM   16  C   UNL     1      18.379  50.207  49.892  1.00  0.00     0.022 A 
HETATM   17  C   UNL     1      19.011  50.698  48.754  1.00  0.00     0.011 A 
HETATM   18 BR   UNL     1      18.763  52.502  48.249  1.00  0.00    -0.051 Br
HETATM   19  C   UNL     1      19.841  49.874  47.990  1.00  0.00     0.030 A 
BRANCH  14  20
HETATM   20  O   UNL     1      19.498  46.759  49.920  1.00  0.00    -0.360 OA
HETATM   21  H   UNL     1      20.440  46.558  50.052  1.00  0.00     0.217 HD
ENDBRANCH  14  20
ENDBRANCH   7  13
BRANCH  11  22
HETATM   22  N   UNL     1      20.434  43.886  47.046  1.00  0.00    -0.282 NA
HETATM   23  H   UNL     1      19.895  43.391  47.753  1.00  0.00     0.126 HD
HETATM   24  H   UNL     1      21.128  43.298  46.591  1.00  0.00     0.126 HD
ENDBRANCH  11  22
BRANCH   1  25
HETATM   25  C   UNL     1      23.123  49.682  49.417  1.00  0.00     0.061 C 
BRANCH  25  26
HETATM   26  C   UNL     1      23.667  50.447  48.207  1.00  0.00     0.002 C 
HETATM   27  C   UNL     1      25.109  50.088  47.878  1.00  0.00     0.005 C 
ENDBRANCH  25  26
ENDBRANCH   1  25
TORSDOF 5
ENDMDL
MODEL 8
REMARK VINA RESULT:      -6.4      9.320     11.768
REMARK  5 active torsions:
REMARK  status: ('A' for Active; 'I' for Inactive)
REMARK    1  A    between atoms: C_2  and  C_3 
REMARK    2  A    between atoms: C_3  and  C_4 
REMARK    3  A    between atoms: C_10  and  C_11 
REMARK    4  A    between atoms: C_12  and  O_13 
REMARK    5  A    between atoms: C_22  and  N_23 
ROOT
HETATM    1  C   UNL     1      19.928  49.975  48.550  1.00  0.00     0.066 A 
HETATM    2  N   UNL     1      20.406  49.581  49.743  1.00  0.00    -0.177 NA
HETATM    3  N   UNL     1      19.999  48.305  49.867  1.00  0.00    -0.256 N 
HETATM    4  H   UNL     1      20.252  47.787  50.701  1.00  0.00     0.191 HD
HETATM    5  C   UNL     1      19.266  47.885  48.807  1.00  0.00     0.175 A 
HETATM    6  C   UNL     1      19.187  48.936  47.926  1.00  0.00     0.035 A 
HETATM    7  C   UNL     1      18.445  48.762  46.641  1.00  0.00     0.107 A 
HETATM    8  C   UNL     1      17.768  47.387  46.603  1.00  0.00     0.067 A 
HETATM    9  C   UNL     1      16.809  47.125  45.453  1.00  0.00     0.020 C 
HETATM   10  N   UNL     1      16.014  46.906  44.498  1.00  0.00    -0.096 N 
HETATM   11  C   UNL     1      17.931  46.443  47.568  1.00  0.00     0.139 A 
HETATM   12  O   UNL     1      18.735  46.673  48.697  1.00  0.00    -0.279 OA
ENDROOT
BRANCH   7  13
HETATM   13  C   UNL     1      17.464  49.918  46.534  1.00  0.00    -0.010 A 
HETATM   14  C   UNL     1      16.452  50.108  47.488  1.00  0.00     0.073 A 
HETATM   15  C   UNL     1      15.617  51.225  47.457  1.00  0.00     0.038 A 
HETATM   16  C   UNL     1      15.760  52.173  46.448  1.00  0.00     0.022 A 
HETATM   17  C   UNL     1      16.744  52.000  45.480  1.00  0.00     0.011 A 
HETATM   18 BR   UNL     1      16.948  53.285  44.109  1.00  0.00    -0.051 Br
HETATM   19  C   UNL     1      17.594  50.892  45.520  1.00  0.00     0.030 A 
BRANCH  14  20
HETATM   20  O   UNL     1      16.230  49.226  48.505  1.00  0.00    -0.360 OA
HETATM   21  H   UNL     1      16.256  49.708  49.348  1.00  0.00     0.217 HD
ENDBRANCH  14  20
ENDBRANCH   7  13
BRANCH  11  22
HETATM   22  N   UNL     1      17.339  45.202  47.581  1.00  0.00    -0.282 NA
HETATM   23  H   UNL     1      16.355  45.174  47.323  1.00  0.00     0.126 HD
HETATM   24  H   UNL     1      17.540  44.688  48.435  1.00  0.00     0.126 HD
ENDBRANCH  11  22
BRANCH   1  25
HETATM   25  C   UNL     1      20.193  51.370  48.084  1.00  0.00     0.061 C 
BRANCH  25  26
HETATM   26  C   UNL     1      19.130  52.385  48.512  1.00  0.00     0.002 C 
HETATM   27  C   UNL     1      18.480  52.036  49.844  1.00  0.00     0.005 C 
ENDBRANCH  25  26
ENDBRANCH   1  25
TORSDOF 5
ENDMDL
MODEL 9
REMARK VINA RESULT:      -6.3      8.997     11.479
REMARK  5 active torsions:
REMARK  status: ('A' for Active; 'I' for Inactive)
REMARK    1  A    between atoms: C_2  and  C_3 
REMARK    2  A    between atoms: C_3  and  C_4 
REMARK    3  A    between atoms: C_10  and  C_11 
REMARK    4  A    between atoms: C_12  and  O_13 
REMARK    5  A    between atoms: C_22  and  N_23 
ROOT
HETATM    1  C   UNL     1      18.236  49.700  49.827  1.00  0.00     0.066 A 
HETATM    2  N   UNL     1      18.451  49.187  51.051  1.00  0.00    -0.177 NA
HETATM    3  N   UNL     1      19.041  48.000  50.822  1.00  0.00    -0.256 N 
HETATM    4  H   UNL     1      19.308  47.424  51.612  1.00  0.00     0.191 HD
HETATM    5  C   UNL     1      19.187  47.736  49.500  1.00  0.00     0.175 A 
HETATM    6  C   UNL     1      18.675  48.808  48.812  1.00  0.00     0.035 A 
HETATM    7  C   UNL     1      18.715  48.808  47.318  1.00  0.00     0.107 A 
HETATM    8  C   UNL     1      19.248  47.467  46.804  1.00  0.00     0.067 A 
HETATM    9  C   UNL     1      19.167  47.225  45.304  1.00  0.00     0.020 C 
HETATM   10  N   UNL     1      19.102  47.024  44.062  1.00  0.00    -0.096 N 
HETATM   11  C   UNL     1      19.715  46.482  47.617  1.00  0.00     0.139 A 
HETATM   12  O   UNL     1      19.725  46.623  49.015  1.00  0.00    -0.279 OA
ENDROOT
BRANCH   7  13
HETATM   13  C   UNL     1      17.307  49.120  46.837  1.00  0.00    -0.010 A 
HETATM   14  C   UNL     1      16.232  48.261  47.117  1.00  0.00     0.073 A 
HETATM   15  C   UNL     1      14.921  48.592  46.774  1.00  0.00     0.038 A 
HETATM   16  C   UNL     1      14.657  49.788  46.112  1.00  0.00     0.022 A 
HETATM   17  C   UNL     1      15.706  50.649  45.807  1.00  0.00     0.011 A 
HETATM   18 BR   UNL     1      15.353  52.277  44.914  1.00  0.00    -0.051 Br
HETATM   19  C   UNL     1      17.017  50.328  46.168  1.00  0.00     0.030 A 
BRANCH  14  20
HETATM   20  O   UNL     1      16.398  47.064  47.750  1.00  0.00    -0.360 OA
HETATM   21  H   UNL     1      16.195  46.349  47.124  1.00  0.00     0.217 HD
ENDBRANCH  14  20
ENDBRANCH   7  13
BRANCH  11  22
HETATM   22  N   UNL     1      20.194  45.262  47.202  1.00  0.00    -0.282 NA
HETATM   23  H   UNL     1      19.527  44.493  47.213  1.00  0.00     0.126 HD
HETATM   24  H   UNL     1      21.080  45.026  47.642  1.00  0.00     0.126 HD
ENDBRANCH  11  22
BRANCH   1  25
HETATM   25  C   UNL     1      17.577  51.036  49.703  1.00  0.00     0.061 C 
BRANCH  25  26
HETATM   26  C   UNL     1      18.553  52.216  49.710  1.00  0.00     0.002 C 
HETATM   27  C   UNL     1      19.261  52.408  48.376  1.00  0.00     0.005 C 
ENDBRANCH  25  26
ENDBRANCH   1  25
TORSDOF 5
ENDMDL
MODEL 10
REMARK VINA RESULT:      -6.2      3.309      5.052
REMARK  5 active torsions:
REMARK  status: ('A' for Active; 'I' for Inactive)
REMARK    1  A    between atoms: C_2  and  C_3 
REMARK    2  A    between atoms: C_3  and  C_4 
REMARK    3  A    between atoms: C_10  and  C_11 
REMARK    4  A    between atoms: C_12  and  O_13 
REMARK    5  A    between atoms: C_22  and  N_23 
ROOT
HETATM    1  C   UNL     1      24.690  42.038  49.413  1.00  0.00     0.066 A 
HETATM    2  N   UNL     1      23.496  41.576  49.004  1.00  0.00    -0.177 NA
HETATM    3  N   UNL     1      22.795  42.680  48.688  1.00  0.00    -0.256 N 
HETATM    4  H   UNL     1      21.848  42.578  48.342  1.00  0.00     0.191 HD
HETATM    5  C   UNL     1      23.495  43.821  48.901  1.00  0.00     0.175 A 
HETATM    6  C   UNL     1      24.731  43.457  49.377  1.00  0.00     0.035 A 
HETATM    7  C   UNL     1      25.738  44.516  49.689  1.00  0.00     0.107 A 
HETATM    8  C   UNL     1      25.114  45.905  49.518  1.00  0.00     0.067 A 
HETATM    9  C   UNL     1      25.942  47.092  49.987  1.00  0.00     0.020 C 
HETATM   10  N   UNL     1      26.628  48.077  50.374  1.00  0.00    -0.096 N 
HETATM   11  C   UNL     1      23.857  46.112  49.043  1.00  0.00     0.139 A 
HETATM   12  O   UNL     1      23.020  45.042  48.682  1.00  0.00    -0.279 OA
ENDROOT
BRANCH   7  13
HETATM   13  C   UNL     1      26.239  44.250  51.099  1.00  0.00    -0.010 A 
HETATM   14  C   UNL     1      25.375  44.309  52.204  1.00  0.00     0.073 A 
HETATM   15  C   UNL     1      25.801  43.961  53.486  1.00  0.00     0.038 A 
HETATM   16  C   UNL     1      27.120  43.570  53.698  1.00  0.00     0.022 A 
HETATM   17  C   UNL     1      28.001  43.521  52.623  1.00  0.00     0.011 A 
HETATM   18 BR   UNL     1      29.792  42.984  52.903  1.00  0.00    -0.051 Br
HETATM   19  C   UNL     1      27.571  43.849  51.335  1.00  0.00     0.030 A 
BRANCH  14  20
HETATM   20  O   UNL     1      24.070  44.693  52.094  1.00  0.00    -0.360 OA
HETATM   21  H   UNL     1      23.529  44.129  52.671  1.00  0.00     0.217 HD
ENDBRANCH  14  20
ENDBRANCH   7  13
BRANCH  11  22
HETATM   22  N   UNL     1      23.253  47.336  48.881  1.00  0.00    -0.282 NA
HETATM   23  H   UNL     1      22.266  47.318  48.635  1.00  0.00     0.126 HD
HETATM   24  H   UNL     1      23.798  47.960  48.292  1.00  0.00     0.126 HD
ENDBRANCH  11  22
BRANCH   1  25
HETATM   25  C   UNL     1      25.736  41.064  49.853  1.00  0.00     0.061 C 
BRANCH  25  26
HETATM   26  C   UNL     1      26.994  41.062  48.981  1.00  0.00     0.002 C 
HETATM   27  C   UNL     1      28.220  40.530  49.710  1.00  0.00     0.005 C 
ENDBRANCH  25  26
ENDBRANCH   1  25
TORSDOF 5
ENDMDL
