MODEL 1
REMARK VINA RESULT:      -8.9      0.000      0.000
REMARK  11 active torsions:
REMARK  status: ('A' for Active; 'I' for Inactive)
REMARK    1  A    between atoms: C_4  and  C_5 
REMARK    2  A    between atoms: C_7  and  O_8 
REMARK    3  A    between atoms: C_10  and  O_11 
REMARK    4  A    between atoms: C_16  and  C_17 
REMARK    5  A    between atoms: C_20  and  C_21 
REMARK    6  A    between atoms: C_21  and  N_22 
REMARK    7  A    between atoms: N_22  and  C_23 
REMARK    8  A    between atoms: C_23  and  N_24 
REMARK    9  A    between atoms: N_24  and  C_25 
REMARK   10  A    between atoms: C_27  and  O_28 
REMARK   11  A    between atoms: C_31  and  O_32 
ROOT
HETATM    1  C   UNL     1      19.347  51.255  49.391  1.00  0.00     0.067 C 
HETATM    2  C   UNL     1      20.218  51.091  48.129  1.00  0.00     0.001 C 
HETATM    3  C   UNL     1      20.075  49.670  47.540  1.00  0.00     0.040 C 
HETATM    4  C   UNL     1      20.629  48.610  48.508  1.00  0.00     0.206 C 
HETATM    5  N   UNL     1      20.855  49.309  49.851  1.00  0.00    -0.065 N 
HETATM    6  H   UNL     1      21.114  48.598  50.551  1.00  0.00     0.280 HD
HETATM    7  C   UNL     1      19.612  50.048  50.331  1.00  0.00     0.246 C 
HETATM    8  C   UNL     1      21.695  51.247  48.577  1.00  0.00     0.033 C 
HETATM    9  C   UNL     1      22.018  50.278  49.719  1.00  0.00     0.236 C 
ENDROOT
BRANCH   4  10
HETATM   10  C   UNL     1      19.720  47.370  48.657  1.00  0.00     0.155 C 
BRANCH  10  11
HETATM   11  N   UNL     1      20.401  46.201  49.200  1.00  0.00    -0.365 N 
HETATM   12  H   UNL     1      20.035  45.802  50.059  1.00  0.00     0.161 HD
BRANCH  11  13
HETATM   13  C   UNL     1      21.460  45.532  48.655  1.00  0.00     0.172 C 
HETATM   14  S   UNL     1      21.511  44.951  47.089  1.00  0.00    -0.041 SA
BRANCH  13  15
HETATM   15  N   UNL     1      22.512  45.261  49.481  1.00  0.00    -0.333 N 
HETATM   16  H   UNL     1      22.343  44.475  50.105  1.00  0.00     0.168 HD
BRANCH  15  17
HETATM   17  C   UNL     1      23.833  45.766  49.504  1.00  0.00     0.039 A 
HETATM   18  C   UNL     1      24.970  44.956  49.563  1.00  0.00     0.066 A 
HETATM   19  C   UNL     1      26.252  45.512  49.582  1.00  0.00     0.073 A 
HETATM   20  C   UNL     1      26.396  46.897  49.573  1.00  0.00     0.073 A 
HETATM   21  C   UNL     1      25.269  47.724  49.569  1.00  0.00     0.073 A 
HETATM   22  C   UNL     1      23.992  47.157  49.536  1.00  0.00     0.066 A 
BRANCH  19  23
HETATM   23  O   UNL     1      27.267  44.594  49.612  1.00  0.00    -0.356 OA
HETATM   24  C   UNL     1      27.122  43.508  50.521  1.00  0.00     0.210 C 
ENDBRANCH  19  23
BRANCH  21  25
HETATM   25  O   UNL     1      25.552  49.062  49.586  1.00  0.00    -0.356 OA
HETATM   26  C   UNL     1      25.470  49.761  48.349  1.00  0.00     0.210 C 
ENDBRANCH  21  25
ENDBRANCH  15  17
ENDBRANCH  13  15
ENDBRANCH  11  13
ENDBRANCH  10  11
ENDBRANCH   4  10
BRANCH   1  27
HETATM   27  C   UNL     1      17.869  51.537  49.287  1.00  0.00     0.038 C 
HETATM   28  N   UNL     1      16.811  50.757  48.868  1.00  0.00    -0.277 N 
HETATM   29  C   UNL     1      16.757  49.463  48.230  1.00  0.00     0.179 C 
HETATM   30  N   UNL     1      15.618  51.327  49.104  1.00  0.00    -0.172 NA
HETATM   31  C   UNL     1      15.878  52.589  49.454  1.00  0.00     0.089 C 
HETATM   32  C   UNL     1      17.274  52.757  49.595  1.00  0.00     0.061 C 
BRANCH  31  33
HETATM   33  C   UNL     1      14.817  53.572  49.668  1.00  0.00    -0.003 A 
HETATM   34  C   UNL     1      14.428  53.925  50.969  1.00  0.00     0.053 A 
HETATM   35  C   UNL     1      13.414  54.866  51.187  1.00  0.00     0.102 A 
HETATM   36  C   UNL     1      12.763  55.457  50.086  1.00  0.00     0.101 A 
HETATM   37  C   UNL     1      13.145  55.103  48.789  1.00  0.00     0.040 A 
HETATM   38  C   UNL     1      14.165  54.169  48.582  1.00  0.00     0.017 A 
BRANCH  35  39
HETATM   39  O   UNL     1      12.987  55.274  52.426  1.00  0.00    -0.353 OA
HETATM   40  C   UNL     1      13.955  55.806  53.319  1.00  0.00     0.210 C 
ENDBRANCH  35  39
BRANCH  36  41
HETATM   41  O   UNL     1      11.782  56.369  50.381  1.00  0.00    -0.353 OA
HETATM   42  C   UNL     1      11.588  57.449  49.478  1.00  0.00     0.210 C 
ENDBRANCH  36  41
ENDBRANCH  31  33
ENDBRANCH   1  27
TORSDOF 11
ENDMDL
MODEL 2
REMARK VINA RESULT:      -8.8      6.376     13.073
REMARK  11 active torsions:
REMARK  status: ('A' for Active; 'I' for Inactive)
REMARK    1  A    between atoms: C_4  and  C_5 
REMARK    2  A    between atoms: C_7  and  O_8 
REMARK    3  A    between atoms: C_10  and  O_11 
REMARK    4  A    between atoms: C_16  and  C_17 
REMARK    5  A    between atoms: C_20  and  C_21 
REMARK    6  A    between atoms: C_21  and  N_22 
REMARK    7  A    between atoms: N_22  and  C_23 
REMARK    8  A    between atoms: C_23  and  N_24 
REMARK    9  A    between atoms: N_24  and  C_25 
REMARK   10  A    between atoms: C_27  and  O_28 
REMARK   11  A    between atoms: C_31  and  O_32 
ROOT
HETATM    1  C   UNL     1      27.583  40.488  50.348  1.00  0.00     0.067 C 
HETATM    2  C   UNL     1      28.195  40.697  48.948  1.00  0.00     0.001 C 
HETATM    3  C   UNL     1      27.174  41.356  47.992  1.00  0.00     0.040 C 
HETATM    4  C   UNL     1      25.976  40.427  47.733  1.00  0.00     0.206 C 
HETATM    5  N   UNL     1      26.066  39.291  48.755  1.00  0.00    -0.065 N 
HETATM    6  H   UNL     1      25.212  38.717  48.684  1.00  0.00     0.280 HD
HETATM    7  C   UNL     1      26.197  39.809  50.182  1.00  0.00     0.246 C 
HETATM    8  C   UNL     1      28.503  39.288  48.375  1.00  0.00     0.033 C 
HETATM    9  C   UNL     1      27.251  38.404  48.412  1.00  0.00     0.236 C 
ENDROOT
BRANCH   4  10
HETATM   10  C   UNL     1      24.609  41.144  47.798  1.00  0.00     0.155 C 
BRANCH  10  11
HETATM   11  N   UNL     1      24.663  42.551  47.419  1.00  0.00    -0.365 N 
HETATM   12  H   UNL     1      25.579  42.962  47.269  1.00  0.00     0.161 HD
BRANCH  11  13
HETATM   13  C   UNL     1      23.608  43.386  47.186  1.00  0.00     0.172 C 
HETATM   14  S   UNL     1      22.960  43.698  45.677  1.00  0.00    -0.041 SA
BRANCH  13  15
HETATM   15  N   UNL     1      23.105  44.065  48.259  1.00  0.00    -0.333 N 
HETATM   16  H   UNL     1      22.718  43.455  48.975  1.00  0.00     0.168 HD
BRANCH  15  17
HETATM   17  C   UNL     1      23.181  45.432  48.615  1.00  0.00     0.039 A 
HETATM   18  C   UNL     1      22.387  46.426  48.037  1.00  0.00     0.066 A 
HETATM   19  C   UNL     1      22.505  47.762  48.430  1.00  0.00     0.073 A 
HETATM   20  C   UNL     1      23.451  48.110  49.391  1.00  0.00     0.073 A 
HETATM   21  C   UNL     1      24.291  47.138  49.940  1.00  0.00     0.073 A 
HETATM   22  C   UNL     1      24.155  45.802  49.551  1.00  0.00     0.066 A 
BRANCH  19  23
HETATM   23  O   UNL     1      21.643  48.616  47.798  1.00  0.00    -0.356 OA
HETATM   24  C   UNL     1      20.276  48.222  47.743  1.00  0.00     0.210 C 
ENDBRANCH  19  23
BRANCH  21  25
HETATM   25  O   UNL     1      25.189  47.619  50.853  1.00  0.00    -0.356 OA
HETATM   26  C   UNL     1      25.373  46.866  52.046  1.00  0.00     0.210 C 
ENDBRANCH  21  25
ENDBRANCH  15  17
ENDBRANCH  13  15
ENDBRANCH  11  13
ENDBRANCH  10  11
ENDBRANCH   4  10
BRANCH   1  27
HETATM   27  C   UNL     1      27.508  41.619  51.343  1.00  0.00     0.038 C 
HETATM   28  N   UNL     1      26.511  42.529  51.627  1.00  0.00    -0.277 N 
HETATM   29  C   UNL     1      25.260  42.830  50.971  1.00  0.00     0.179 C 
HETATM   30  N   UNL     1      26.774  43.266  52.719  1.00  0.00    -0.172 NA
HETATM   31  C   UNL     1      28.051  43.024  53.025  1.00  0.00     0.089 C 
HETATM   32  C   UNL     1      28.542  41.989  52.197  1.00  0.00     0.061 C 
BRANCH  31  33
HETATM   33  C   UNL     1      28.747  43.746  54.089  1.00  0.00    -0.003 A 
HETATM   34  C   UNL     1      28.186  44.907  54.643  1.00  0.00     0.053 A 
HETATM   35  C   UNL     1      28.841  45.607  55.663  1.00  0.00     0.102 A 
HETATM   36  C   UNL     1      30.089  45.150  56.132  1.00  0.00     0.101 A 
HETATM   37  C   UNL     1      30.652  43.997  55.579  1.00  0.00     0.040 A 
HETATM   38  C   UNL     1      29.985  43.300  54.566  1.00  0.00     0.017 A 
BRANCH  35  39
HETATM   39  O   UNL     1      28.352  46.740  56.265  1.00  0.00    -0.353 OA
HETATM   40  C   UNL     1      27.338  47.467  55.586  1.00  0.00     0.210 C 
ENDBRANCH  35  39
BRANCH  36  41
HETATM   41  O   UNL     1      30.667  45.889  57.133  1.00  0.00    -0.353 OA
HETATM   42  C   UNL     1      30.716  45.320  58.433  1.00  0.00     0.210 C 
ENDBRANCH  36  41
ENDBRANCH  31  33
ENDBRANCH   1  27
TORSDOF 11
ENDMDL
MODEL 3
REMARK VINA RESULT:      -8.8      4.280     13.010
REMARK  11 active torsions:
REMARK  status: ('A' for Active; 'I' for Inactive)
REMARK    1  A    between atoms: C_4  and  C_5 
REMARK    2  A    between atoms: C_7  and  O_8 
REMARK    3  A    between atoms: C_10  and  O_11 
REMARK    4  A    between atoms: C_16  and  C_17 
REMARK    5  A    between atoms: C_20  and  C_21 
REMARK    6  A    between atoms: C_21  and  N_22 
REMARK    7  A    between atoms: N_22  and  C_23 
REMARK    8  A    between atoms: C_23  and  N_24 
REMARK    9  A    between atoms: N_24  and  C_25 
REMARK   10  A    between atoms: C_27  and  O_28 
REMARK   11  A    between atoms: C_31  and  O_32 
ROOT
HETATM    1  C   UNL     1      24.879  42.819  50.576  1.00  0.00     0.067 C 
HETATM    2  C   UNL     1      24.890  43.149  49.070  1.00  0.00     0.001 C 
HETATM    3  C   UNL     1      25.126  44.658  48.836  1.00  0.00     0.040 C 
HETATM    4  C   UNL     1      23.957  45.494  49.386  1.00  0.00     0.206 C 
HETATM    5  N   UNL     1      23.106  44.557  50.246  1.00  0.00    -0.065 N 
HETATM    6  H   UNL     1      22.382  45.116  50.723  1.00  0.00     0.280 HD
HETATM    7  C   UNL     1      23.935  43.823  51.292  1.00  0.00     0.246 C 
HETATM    8  C   UNL     1      23.472  42.826  48.527  1.00  0.00     0.033 C 
HETATM    9  C   UNL     1      22.401  43.557  49.345  1.00  0.00     0.236 C 
ENDROOT
BRANCH   4  10
HETATM   10  C   UNL     1      24.407  46.743  50.178  1.00  0.00     0.155 C 
BRANCH  10  11
HETATM   11  N   UNL     1      23.545  47.903  49.989  1.00  0.00    -0.365 N 
HETATM   12  H   UNL     1      22.966  48.190  50.772  1.00  0.00     0.161 HD
BRANCH  11  13
HETATM   13  C   UNL     1      23.457  48.698  48.882  1.00  0.00     0.172 C 
HETATM   14  S   UNL     1      24.609  49.820  48.426  1.00  0.00    -0.041 SA
BRANCH  13  15
HETATM   15  N   UNL     1      22.309  48.613  48.147  1.00  0.00    -0.333 N 
HETATM   16  H   UNL     1      22.411  48.054  47.303  1.00  0.00     0.168 HD
BRANCH  15  17
HETATM   17  C   UNL     1      20.986  49.021  48.436  1.00  0.00     0.039 A 
HETATM   18  C   UNL     1      20.605  50.356  48.594  1.00  0.00     0.066 A 
HETATM   19  C   UNL     1      19.281  50.700  48.879  1.00  0.00     0.073 A 
HETATM   20  C   UNL     1      18.333  49.692  49.038  1.00  0.00     0.073 A 
HETATM   21  C   UNL     1      18.707  48.349  48.939  1.00  0.00     0.073 A 
HETATM   22  C   UNL     1      20.031  48.017  48.639  1.00  0.00     0.066 A 
BRANCH  19  23
HETATM   23  O   UNL     1      19.054  52.046  48.976  1.00  0.00    -0.356 OA
HETATM   24  C   UNL     1      17.886  52.449  49.684  1.00  0.00     0.210 C 
ENDBRANCH  19  23
BRANCH  21  25
HETATM   25  O   UNL     1      17.683  47.464  49.141  1.00  0.00    -0.356 OA
HETATM   26  C   UNL     1      16.440  47.751  48.514  1.00  0.00     0.210 C 
ENDBRANCH  21  25
ENDBRANCH  15  17
ENDBRANCH  13  15
ENDBRANCH  11  13
ENDBRANCH  10  11
ENDBRANCH   4  10
BRANCH   1  27
HETATM   27  C   UNL     1      26.165  42.653  51.347  1.00  0.00     0.038 C 
HETATM   28  N   UNL     1      27.181  41.725  51.251  1.00  0.00    -0.277 N 
HETATM   29  C   UNL     1      27.303  40.498  50.501  1.00  0.00     0.179 C 
HETATM   30  N   UNL     1      28.246  42.039  52.008  1.00  0.00    -0.172 NA
HETATM   31  C   UNL     1      27.851  43.042  52.797  1.00  0.00     0.089 C 
HETATM   32  C   UNL     1      26.561  43.465  52.406  1.00  0.00     0.061 C 
BRANCH  31  33
HETATM   33  C   UNL     1      28.702  43.577  53.859  1.00  0.00    -0.003 A 
HETATM   34  C   UNL     1      28.374  44.788  54.489  1.00  0.00     0.053 A 
HETATM   35  C   UNL     1      29.179  45.310  55.508  1.00  0.00     0.102 A 
HETATM   36  C   UNL     1      30.344  44.620  55.900  1.00  0.00     0.101 A 
HETATM   37  C   UNL     1      30.675  43.417  55.270  1.00  0.00     0.040 A 
HETATM   38  C   UNL     1      29.859  42.899  54.259  1.00  0.00     0.017 A 
BRANCH  35  39
HETATM   39  O   UNL     1      28.919  46.478  56.181  1.00  0.00    -0.353 OA
HETATM   40  C   UNL     1      27.747  47.200  55.829  1.00  0.00     0.210 C 
ENDBRANCH  35  39
BRANCH  36  41
HETATM   41  O   UNL     1      31.079  45.195  56.905  1.00  0.00    -0.353 OA
HETATM   42  C   UNL     1      31.109  44.537  58.163  1.00  0.00     0.210 C 
ENDBRANCH  36  41
ENDBRANCH  31  33
ENDBRANCH   1  27
TORSDOF 11
ENDMDL
MODEL 4
REMARK VINA RESULT:      -8.7      0.740      2.147
REMARK  11 active torsions:
REMARK  status: ('A' for Active; 'I' for Inactive)
REMARK    1  A    between atoms: C_4  and  C_5 
REMARK    2  A    between atoms: C_7  and  O_8 
REMARK    3  A    between atoms: C_10  and  O_11 
REMARK    4  A    between atoms: C_16  and  C_17 
REMARK    5  A    between atoms: C_20  and  C_21 
REMARK    6  A    between atoms: C_21  and  N_22 
REMARK    7  A    between atoms: N_22  and  C_23 
REMARK    8  A    between atoms: C_23  and  N_24 
REMARK    9  A    between atoms: N_24  and  C_25 
REMARK   10  A    between atoms: C_27  and  O_28 
REMARK   11  A    between atoms: C_31  and  O_32 
ROOT
HETATM    1  C   UNL     1      19.497  51.308  49.442  1.00  0.00     0.067 C 
HETATM    2  C   UNL     1      20.275  51.120  48.123  1.00  0.00     0.001 C 
HETATM    3  C   UNL     1      20.036  49.710  47.538  1.00  0.00     0.040 C 
HETATM    4  C   UNL     1      20.611  48.621  48.460  1.00  0.00     0.206 C 
HETATM    5  N   UNL     1      20.953  49.299  49.789  1.00  0.00    -0.065 N 
HETATM    6  H   UNL     1      21.229  48.573  50.467  1.00  0.00     0.280 HD
HETATM    7  C   UNL     1      19.775  50.083  50.355  1.00  0.00     0.246 C 
HETATM    8  C   UNL     1      21.784  51.212  48.473  1.00  0.00     0.033 C 
HETATM    9  C   UNL     1      22.143  50.222  49.586  1.00  0.00     0.236 C 
ENDROOT
BRANCH   4  10
HETATM   10  C   UNL     1      19.664  47.416  48.663  1.00  0.00     0.155 C 
BRANCH  10  11
HETATM   11  N   UNL     1      20.328  46.223  49.173  1.00  0.00    -0.365 N 
HETATM   12  H   UNL     1      19.962  45.811  50.025  1.00  0.00     0.161 HD
BRANCH  11  13
HETATM   13  C   UNL     1      21.371  45.549  48.604  1.00  0.00     0.172 C 
HETATM   14  S   UNL     1      21.416  45.039  47.013  1.00  0.00    -0.041 SA
BRANCH  13  15
HETATM   15  N   UNL     1      22.409  45.209  49.423  1.00  0.00    -0.333 N 
HETATM   16  H   UNL     1      22.228  44.374  49.977  1.00  0.00     0.168 HD
BRANCH  15  17
HETATM   17  C   UNL     1      23.730  45.708  49.509  1.00  0.00     0.039 A 
HETATM   18  C   UNL     1      24.044  47.069  49.491  1.00  0.00     0.066 A 
HETATM   19  C   UNL     1      25.369  47.504  49.581  1.00  0.00     0.073 A 
HETATM   20  C   UNL     1      26.393  46.564  49.657  1.00  0.00     0.073 A 
HETATM   21  C   UNL     1      26.102  45.198  49.621  1.00  0.00     0.073 A 
HETATM   22  C   UNL     1      24.772  44.773  49.546  1.00  0.00     0.066 A 
BRANCH  19  23
HETATM   23  O   UNL     1      25.519  48.865  49.580  1.00  0.00    -0.356 OA
HETATM   24  C   UNL     1      26.583  49.392  48.795  1.00  0.00     0.210 C 
ENDBRANCH  19  23
BRANCH  21  25
HETATM   25  O   UNL     1      27.201  44.385  49.679  1.00  0.00    -0.356 OA
HETATM   26  C   UNL     1      27.108  43.222  50.492  1.00  0.00     0.210 C 
ENDBRANCH  21  25
ENDBRANCH  15  17
ENDBRANCH  13  15
ENDBRANCH  11  13
ENDBRANCH  10  11
ENDBRANCH   4  10
BRANCH   1  27
HETATM   27  C   UNL     1      18.028  51.648  49.439  1.00  0.00     0.038 C 
HETATM   28  N   UNL     1      16.927  50.967  48.964  1.00  0.00    -0.277 N 
HETATM   29  C   UNL     1      16.799  49.774  48.162  1.00  0.00     0.179 C 
HETATM   30  N   UNL     1      15.766  51.539  49.324  1.00  0.00    -0.172 NA
HETATM   31  C   UNL     1      16.086  52.733  49.828  1.00  0.00     0.089 C 
HETATM   32  C   UNL     1      17.492  52.835  49.931  1.00  0.00     0.061 C 
BRANCH  31  33
HETATM   33  C   UNL     1      15.072  53.713  50.215  1.00  0.00    -0.003 A 
HETATM   34  C   UNL     1      15.435  54.870  50.921  1.00  0.00     0.053 A 
HETATM   35  C   UNL     1      14.473  55.816  51.296  1.00  0.00     0.102 A 
HETATM   36  C   UNL     1      13.118  55.598  50.975  1.00  0.00     0.101 A 
HETATM   37  C   UNL     1      12.753  54.443  50.278  1.00  0.00     0.040 A 
HETATM   38  C   UNL     1      13.723  53.508  49.899  1.00  0.00     0.017 A 
BRANCH  35  39
HETATM   39  O   UNL     1      14.750  56.977  51.973  1.00  0.00    -0.353 OA
HETATM   40  C   UNL     1      15.218  56.870  53.310  1.00  0.00     0.210 C 
ENDBRANCH  35  39
BRANCH  36  41
HETATM   41  O   UNL     1      12.237  56.570  51.376  1.00  0.00    -0.353 OA
HETATM   42  C   UNL     1      11.673  57.405  50.376  1.00  0.00     0.210 C 
ENDBRANCH  36  41
ENDBRANCH  31  33
ENDBRANCH   1  27
TORSDOF 11
ENDMDL
MODEL 5
REMARK VINA RESULT:      -8.7      5.458      9.894
REMARK  11 active torsions:
REMARK  status: ('A' for Active; 'I' for Inactive)
REMARK    1  A    between atoms: C_4  and  C_5 
REMARK    2  A    between atoms: C_7  and  O_8 
REMARK    3  A    between atoms: C_10  and  O_11 
REMARK    4  A    between atoms: C_16  and  C_17 
REMARK    5  A    between atoms: C_20  and  C_21 
REMARK    6  A    between atoms: C_21  and  N_22 
REMARK    7  A    between atoms: N_22  and  C_23 
REMARK    8  A    between atoms: C_23  and  N_24 
REMARK    9  A    between atoms: N_24  and  C_25 
REMARK   10  A    between atoms: C_27  and  O_28 
REMARK   11  A    between atoms: C_31  and  O_32 
ROOT
HETATM    1  C   UNL     1      22.003  50.017  48.282  1.00  0.00     0.067 C 
HETATM    2  C   UNL     1      21.288  51.026  49.204  1.00  0.00     0.001 C 
HETATM    3  C   UNL     1      20.414  50.296  50.248  1.00  0.00     0.040 C 
HETATM    4  C   UNL     1      19.260  49.536  49.573  1.00  0.00     0.206 C 
HETATM    5  N   UNL     1      19.557  49.519  48.071  1.00  0.00    -0.065 N 
HETATM    6  H   UNL     1      18.864  48.915  47.606  1.00  0.00     0.280 HD
HETATM    7  C   UNL     1      20.955  48.993  47.767  1.00  0.00     0.246 C 
HETATM    8  C   UNL     1      20.325  51.850  48.308  1.00  0.00     0.033 C 
HETATM    9  C   UNL     1      19.397  50.924  47.515  1.00  0.00     0.236 C 
ENDROOT
BRANCH   4  10
HETATM   10  C   UNL     1      19.048  48.109  50.128  1.00  0.00     0.155 C 
BRANCH  10  11
HETATM   11  N   UNL     1      17.871  47.436  49.591  1.00  0.00    -0.365 N 
HETATM   12  H   UNL     1      17.017  47.478  50.138  1.00  0.00     0.161 HD
BRANCH  11  13
HETATM   13  C   UNL     1      17.762  46.787  48.395  1.00  0.00     0.172 C 
HETATM   14  S   UNL     1      16.753  47.258  47.149  1.00  0.00    -0.041 SA
BRANCH  13  15
HETATM   15  N   UNL     1      18.476  45.632  48.249  1.00  0.00    -0.333 N 
HETATM   16  H   UNL     1      17.891  44.801  48.193  1.00  0.00     0.168 HD
BRANCH  15  17
HETATM   17  C   UNL     1      19.851  45.412  47.998  1.00  0.00     0.039 A 
HETATM   18  C   UNL     1      20.447  45.593  46.747  1.00  0.00     0.066 A 
HETATM   19  C   UNL     1      21.812  45.360  46.558  1.00  0.00     0.073 A 
HETATM   20  C   UNL     1      22.582  44.913  47.628  1.00  0.00     0.073 A 
HETATM   21  C   UNL     1      21.993  44.674  48.872  1.00  0.00     0.073 A 
HETATM   22  C   UNL     1      20.630  44.924  49.054  1.00  0.00     0.066 A 
BRANCH  19  23
HETATM   23  O   UNL     1      22.258  45.607  45.288  1.00  0.00    -0.356 OA
HETATM   24  C   UNL     1      23.001  44.570  44.657  1.00  0.00     0.210 C 
ENDBRANCH  19  23
BRANCH  21  25
HETATM   25  O   UNL     1      22.858  44.214  49.827  1.00  0.00    -0.356 OA
HETATM   26  C   UNL     1      22.958  42.804  49.990  1.00  0.00     0.210 C 
ENDBRANCH  21  25
ENDBRANCH  15  17
ENDBRANCH  13  15
ENDBRANCH  11  13
ENDBRANCH  10  11
ENDBRANCH   4  10
BRANCH   1  27
HETATM   27  C   UNL     1      23.263  49.315  48.724  1.00  0.00     0.038 C 
HETATM   28  N   UNL     1      24.596  49.635  48.571  1.00  0.00    -0.277 N 
HETATM   29  C   UNL     1      25.263  50.657  47.802  1.00  0.00     0.179 C 
HETATM   30  N   UNL     1      25.408  48.830  49.277  1.00  0.00    -0.172 NA
HETATM   31  C   UNL     1      24.644  47.822  49.705  1.00  0.00     0.089 C 
HETATM   32  C   UNL     1      23.293  48.095  49.392  1.00  0.00     0.061 C 
BRANCH  31  33
HETATM   33  C   UNL     1      25.201  46.667  50.407  1.00  0.00    -0.003 A 
HETATM   34  C   UNL     1      25.924  45.691  49.705  1.00  0.00     0.053 A 
HETATM   35  C   UNL     1      26.464  44.581  50.366  1.00  0.00     0.102 A 
HETATM   36  C   UNL     1      26.267  44.431  51.753  1.00  0.00     0.101 A 
HETATM   37  C   UNL     1      25.542  45.399  52.454  1.00  0.00     0.040 A 
HETATM   38  C   UNL     1      25.015  46.509  51.786  1.00  0.00     0.017 A 
BRANCH  35  39
HETATM   39  O   UNL     1      27.194  43.592  49.754  1.00  0.00    -0.353 OA
HETATM   40  C   UNL     1      26.485  42.602  49.022  1.00  0.00     0.210 C 
ENDBRANCH  35  39
BRANCH  36  41
HETATM   41  O   UNL     1      26.827  43.318  52.328  1.00  0.00    -0.353 OA
HETATM   42  C   UNL     1      27.087  43.354  53.724  1.00  0.00     0.210 C 
ENDBRANCH  36  41
ENDBRANCH  31  33
ENDBRANCH   1  27
TORSDOF 11
ENDMDL
MODEL 6
REMARK VINA RESULT:      -8.5      3.119     10.946
REMARK  11 active torsions:
REMARK  status: ('A' for Active; 'I' for Inactive)
REMARK    1  A    between atoms: C_4  and  C_5 
REMARK    2  A    between atoms: C_7  and  O_8 
REMARK    3  A    between atoms: C_10  and  O_11 
REMARK    4  A    between atoms: C_16  and  C_17 
REMARK    5  A    between atoms: C_20  and  C_21 
REMARK    6  A    between atoms: C_21  and  N_22 
REMARK    7  A    between atoms: N_22  and  C_23 
REMARK    8  A    between atoms: C_23  and  N_24 
REMARK    9  A    between atoms: N_24  and  C_25 
REMARK   10  A    between atoms: C_27  and  O_28 
REMARK   11  A    between atoms: C_31  and  O_32 
ROOT
HETATM    1  C   UNL     1      22.002  49.907  48.297  1.00  0.00     0.067 C 
HETATM    2  C   UNL     1      21.252  50.959  49.139  1.00  0.00     0.001 C 
HETATM    3  C   UNL     1      20.297  50.281  50.147  1.00  0.00     0.040 C 
HETATM    4  C   UNL     1      19.171  49.523  49.421  1.00  0.00     0.206 C 
HETATM    5  N   UNL     1      19.564  49.453  47.943  1.00  0.00    -0.065 N 
HETATM    6  H   UNL     1      18.888  48.849  47.452  1.00  0.00     0.280 HD
HETATM    7  C   UNL     1      20.966  48.889  47.746  1.00  0.00     0.246 C 
HETATM    8  C   UNL     1      20.368  51.775  48.159  1.00  0.00     0.033 C 
HETATM    9  C   UNL     1      19.472  50.842  47.336  1.00  0.00     0.236 C 
ENDROOT
BRANCH   4  10
HETATM   10  C   UNL     1      18.893  48.120  50.004  1.00  0.00     0.155 C 
BRANCH  10  11
HETATM   11  N   UNL     1      17.535  47.643  49.771  1.00  0.00    -0.365 N 
HETATM   12  H   UNL     1      16.910  47.597  50.570  1.00  0.00     0.161 HD
BRANCH  11  13
HETATM   13  C   UNL     1      16.975  47.292  48.576  1.00  0.00     0.172 C 
HETATM   14  S   UNL     1      17.506  46.034  47.612  1.00  0.00    -0.041 SA
BRANCH  13  15
HETATM   15  N   UNL     1      15.958  48.078  48.113  1.00  0.00    -0.333 N 
HETATM   16  H   UNL     1      15.036  47.674  48.265  1.00  0.00     0.168 HD
BRANCH  15  17
HETATM   17  C   UNL     1      15.956  49.404  47.621  1.00  0.00     0.039 A 
HETATM   18  C   UNL     1      15.779  50.529  48.430  1.00  0.00     0.066 A 
HETATM   19  C   UNL     1      15.786  51.816  47.887  1.00  0.00     0.073 A 
HETATM   20  C   UNL     1      15.943  51.977  46.513  1.00  0.00     0.073 A 
HETATM   21  C   UNL     1      16.067  50.861  45.681  1.00  0.00     0.073 A 
HETATM   22  C   UNL     1      16.073  49.578  46.236  1.00  0.00     0.066 A 
BRANCH  19  23
HETATM   23  O   UNL     1      15.630  52.819  48.806  1.00  0.00    -0.356 OA
HETATM   24  C   UNL     1      16.512  52.806  49.924  1.00  0.00     0.210 C 
ENDBRANCH  19  23
BRANCH  21  25
HETATM   25  O   UNL     1      16.189  51.160  44.352  1.00  0.00    -0.356 OA
HETATM   26  C   UNL     1      17.071  52.221  44.001  1.00  0.00     0.210 C 
ENDBRANCH  21  25
ENDBRANCH  15  17
ENDBRANCH  13  15
ENDBRANCH  11  13
ENDBRANCH  10  11
ENDBRANCH   4  10
BRANCH   1  27
HETATM   27  C   UNL     1      23.215  49.193  48.840  1.00  0.00     0.038 C 
HETATM   28  N   UNL     1      24.565  49.399  48.649  1.00  0.00    -0.277 N 
HETATM   29  C   UNL     1      25.295  50.255  47.744  1.00  0.00     0.179 C 
HETATM   30  N   UNL     1      25.326  48.652  49.466  1.00  0.00    -0.172 NA
HETATM   31  C   UNL     1      24.499  47.768  50.030  1.00  0.00     0.089 C 
HETATM   32  C   UNL     1      23.167  48.082  49.676  1.00  0.00     0.061 C 
BRANCH  31  33
HETATM   33  C   UNL     1      24.982  46.691  50.893  1.00  0.00    -0.003 A 
HETATM   34  C   UNL     1      24.455  45.396  50.774  1.00  0.00     0.053 A 
HETATM   35  C   UNL     1      24.910  44.355  51.592  1.00  0.00     0.102 A 
HETATM   36  C   UNL     1      25.901  44.613  52.561  1.00  0.00     0.101 A 
HETATM   37  C   UNL     1      26.423  45.903  52.686  1.00  0.00     0.040 A 
HETATM   38  C   UNL     1      25.968  46.934  51.857  1.00  0.00     0.017 A 
BRANCH  35  39
HETATM   39  O   UNL     1      24.456  43.061  51.528  1.00  0.00    -0.353 OA
HETATM   40  C   UNL     1      24.788  42.299  50.377  1.00  0.00     0.210 C 
ENDBRANCH  35  39
BRANCH  36  41
HETATM   41  O   UNL     1      26.294  43.543  53.324  1.00  0.00    -0.353 OA
HETATM   42  C   UNL     1      27.638  43.515  53.783  1.00  0.00     0.210 C 
ENDBRANCH  36  41
ENDBRANCH  31  33
ENDBRANCH   1  27
TORSDOF 11
ENDMDL
MODEL 7
REMARK VINA RESULT:      -8.5      6.608     13.118
REMARK  11 active torsions:
REMARK  status: ('A' for Active; 'I' for Inactive)
REMARK    1  A    between atoms: C_4  and  C_5 
REMARK    2  A    between atoms: C_7  and  O_8 
REMARK    3  A    between atoms: C_10  and  O_11 
REMARK    4  A    between atoms: C_16  and  C_17 
REMARK    5  A    between atoms: C_20  and  C_21 
REMARK    6  A    between atoms: C_21  and  N_22 
REMARK    7  A    between atoms: N_22  and  C_23 
REMARK    8  A    between atoms: C_23  and  N_24 
REMARK    9  A    between atoms: N_24  and  C_25 
REMARK   10  A    between atoms: C_27  and  O_28 
REMARK   11  A    between atoms: C_31  and  O_32 
ROOT
HETATM    1  C   UNL     1      27.771  40.343  50.416  1.00  0.00     0.067 C 
HETATM    2  C   UNL     1      28.376  40.549  49.013  1.00  0.00     0.001 C 
HETATM    3  C   UNL     1      27.341  41.175  48.051  1.00  0.00     0.040 C 
HETATM    4  C   UNL     1      26.163  40.218  47.804  1.00  0.00     0.206 C 
HETATM    5  N   UNL     1      26.277  39.095  48.838  1.00  0.00    -0.065 N 
HETATM    6  H   UNL     1      25.436  38.503  48.775  1.00  0.00     0.280 HD
HETATM    7  C   UNL     1      26.398  39.632  50.259  1.00  0.00     0.246 C 
HETATM    8  C   UNL     1      28.713  39.140  48.456  1.00  0.00     0.033 C 
HETATM    9  C   UNL     1      27.481  38.230  48.504  1.00  0.00     0.236 C 
ENDROOT
BRANCH   4  10
HETATM   10  C   UNL     1      24.781  40.907  47.862  1.00  0.00     0.155 C 
BRANCH  10  11
HETATM   11  N   UNL     1      24.679  42.096  47.025  1.00  0.00    -0.365 N 
HETATM   12  H   UNL     1      25.499  42.366  46.492  1.00  0.00     0.161 HD
BRANCH  11  13
HETATM   13  C   UNL     1      23.577  42.878  46.828  1.00  0.00     0.172 C 
HETATM   14  S   UNL     1      22.865  43.156  45.341  1.00  0.00    -0.041 SA
BRANCH  13  15
HETATM   15  N   UNL     1      23.077  43.531  47.917  1.00  0.00    -0.333 N 
HETATM   16  H   UNL     1      22.542  42.927  48.538  1.00  0.00     0.168 HD
BRANCH  15  17
HETATM   17  C   UNL     1      23.309  44.837  48.409  1.00  0.00     0.039 A 
HETATM   18  C   UNL     1      24.470  45.211  49.091  1.00  0.00     0.066 A 
HETATM   19  C   UNL     1      24.644  46.518  49.554  1.00  0.00     0.073 A 
HETATM   20  C   UNL     1      23.632  47.453  49.357  1.00  0.00     0.073 A 
HETATM   21  C   UNL     1      22.441  47.083  48.726  1.00  0.00     0.073 A 
HETATM   22  C   UNL     1      22.282  45.777  48.254  1.00  0.00     0.066 A 
BRANCH  19  23
HETATM   23  O   UNL     1      25.842  46.742  50.177  1.00  0.00    -0.356 OA
HETATM   24  C   UNL     1      26.472  47.994  49.922  1.00  0.00     0.210 C 
ENDBRANCH  19  23
BRANCH  21  25
HETATM   25  O   UNL     1      21.522  48.091  48.620  1.00  0.00    -0.356 OA
HETATM   26  C   UNL     1      20.627  48.043  47.516  1.00  0.00     0.210 C 
ENDBRANCH  21  25
ENDBRANCH  15  17
ENDBRANCH  13  15
ENDBRANCH  11  13
ENDBRANCH  10  11
ENDBRANCH   4  10
BRANCH   1  27
HETATM   27  C   UNL     1      27.672  41.484  51.398  1.00  0.00     0.038 C 
HETATM   28  N   UNL     1      26.660  42.382  51.665  1.00  0.00    -0.277 N 
HETATM   29  C   UNL     1      25.411  42.658  50.997  1.00  0.00     0.179 C 
HETATM   30  N   UNL     1      26.905  43.134  52.751  1.00  0.00    -0.172 NA
HETATM   31  C   UNL     1      28.183  42.913  53.069  1.00  0.00     0.089 C 
HETATM   32  C   UNL     1      28.695  41.877  52.255  1.00  0.00     0.061 C 
BRANCH  31  33
HETATM   33  C   UNL     1      28.861  43.657  54.130  1.00  0.00    -0.003 A 
HETATM   34  C   UNL     1      28.304  44.843  54.632  1.00  0.00     0.053 A 
HETATM   35  C   UNL     1      28.942  45.563  55.649  1.00  0.00     0.102 A 
HETATM   36  C   UNL     1      30.169  45.101  56.167  1.00  0.00     0.101 A 
HETATM   37  C   UNL     1      30.728  43.923  55.664  1.00  0.00     0.040 A 
HETATM   38  C   UNL     1      30.078  43.206  54.655  1.00  0.00     0.017 A 
BRANCH  35  39
HETATM   39  O   UNL     1      28.457  46.722  56.202  1.00  0.00    -0.353 OA
HETATM   40  C   UNL     1      27.396  47.384  55.528  1.00  0.00     0.210 C 
ENDBRANCH  35  39
BRANCH  36  41
HETATM   41  O   UNL     1      30.731  45.861  57.161  1.00  0.00    -0.353 OA
HETATM   42  C   UNL     1      30.790  45.305  58.466  1.00  0.00     0.210 C 
ENDBRANCH  36  41
ENDBRANCH  31  33
ENDBRANCH   1  27
TORSDOF 11
ENDMDL
MODEL 8
REMARK VINA RESULT:      -8.4      3.050     10.996
REMARK  11 active torsions:
REMARK  status: ('A' for Active; 'I' for Inactive)
REMARK    1  A    between atoms: C_4  and  C_5 
REMARK    2  A    between atoms: C_7  and  O_8 
REMARK    3  A    between atoms: C_10  and  O_11 
REMARK    4  A    between atoms: C_16  and  C_17 
REMARK    5  A    between atoms: C_20  and  C_21 
REMARK    6  A    between atoms: C_21  and  N_22 
REMARK    7  A    between atoms: N_22  and  C_23 
REMARK    8  A    between atoms: C_23  and  N_24 
REMARK    9  A    between atoms: N_24  and  C_25 
REMARK   10  A    between atoms: C_27  and  O_28 
REMARK   11  A    between atoms: C_31  and  O_32 
ROOT
HETATM    1  C   UNL     1      21.955  49.934  48.284  1.00  0.00     0.067 C 
HETATM    2  C   UNL     1      21.182  50.950  49.148  1.00  0.00     0.001 C 
HETATM    3  C   UNL     1      20.225  50.229  50.126  1.00  0.00     0.040 C 
HETATM    4  C   UNL     1      19.119  49.478  49.366  1.00  0.00     0.206 C 
HETATM    5  N   UNL     1      19.528  49.455  47.891  1.00  0.00    -0.065 N 
HETATM    6  H   UNL     1      18.866  48.856  47.375  1.00  0.00     0.280 HD
HETATM    7  C   UNL     1      20.940  48.917  47.694  1.00  0.00     0.246 C 
HETATM    8  C   UNL     1      20.296  51.781  48.183  1.00  0.00     0.033 C 
HETATM    9  C   UNL     1      19.422  50.861  47.323  1.00  0.00     0.236 C 
ENDROOT
BRANCH   4  10
HETATM   10  C   UNL     1      18.854  48.054  49.905  1.00  0.00     0.155 C 
BRANCH  10  11
HETATM   11  N   UNL     1      17.510  47.560  49.633  1.00  0.00    -0.365 N 
HETATM   12  H   UNL     1      16.906  47.379  50.429  1.00  0.00     0.161 HD
BRANCH  11  13
HETATM   13  C   UNL     1      16.933  47.357  48.411  1.00  0.00     0.172 C 
HETATM   14  S   UNL     1      17.478  46.257  47.277  1.00  0.00    -0.041 SA
BRANCH  13  15
HETATM   15  N   UNL     1      15.887  48.168  48.077  1.00  0.00    -0.333 N 
HETATM   16  H   UNL     1      14.986  47.810  48.384  1.00  0.00     0.168 HD
BRANCH  15  17
HETATM   17  C   UNL     1      15.858  49.475  47.536  1.00  0.00     0.039 A 
HETATM   18  C   UNL     1      15.985  49.751  46.172  1.00  0.00     0.066 A 
HETATM   19  C   UNL     1      15.947  51.063  45.695  1.00  0.00     0.073 A 
HETATM   20  C   UNL     1      15.812  52.114  46.598  1.00  0.00     0.073 A 
HETATM   21  C   UNL     1      15.738  51.862  47.970  1.00  0.00     0.073 A 
HETATM   22  C   UNL     1      15.762  50.544  48.436  1.00  0.00     0.066 A 
BRANCH  19  23
HETATM   23  O   UNL     1      16.055  51.174  44.335  1.00  0.00    -0.356 OA
HETATM   24  C   UNL     1      15.886  52.476  43.783  1.00  0.00     0.210 C 
ENDBRANCH  19  23
BRANCH  21  25
HETATM   25  O   UNL     1      15.632  52.984  48.745  1.00  0.00    -0.356 OA
HETATM   26  C   UNL     1      16.274  52.963  50.014  1.00  0.00     0.210 C 
ENDBRANCH  21  25
ENDBRANCH  15  17
ENDBRANCH  13  15
ENDBRANCH  11  13
ENDBRANCH  10  11
ENDBRANCH   4  10
BRANCH   1  27
HETATM   27  C   UNL     1      23.172  49.221  48.820  1.00  0.00     0.038 C 
HETATM   28  N   UNL     1      24.521  49.431  48.623  1.00  0.00    -0.277 N 
HETATM   29  C   UNL     1      25.245  50.290  47.716  1.00  0.00     0.179 C 
HETATM   30  N   UNL     1      25.288  48.683  49.435  1.00  0.00    -0.172 NA
HETATM   31  C   UNL     1      24.465  47.797  50.002  1.00  0.00     0.089 C 
HETATM   32  C   UNL     1      23.131  48.108  49.654  1.00  0.00     0.061 C 
BRANCH  31  33
HETATM   33  C   UNL     1      24.955  46.719  50.860  1.00  0.00    -0.003 A 
HETATM   34  C   UNL     1      24.425  45.425  50.746  1.00  0.00     0.053 A 
HETATM   35  C   UNL     1      24.887  44.384  51.560  1.00  0.00     0.102 A 
HETATM   36  C   UNL     1      25.887  44.640  52.519  1.00  0.00     0.101 A 
HETATM   37  C   UNL     1      26.412  45.929  52.638  1.00  0.00     0.040 A 
HETATM   38  C   UNL     1      25.951  46.960  51.814  1.00  0.00     0.017 A 
BRANCH  35  39
HETATM   39  O   UNL     1      24.430  43.090  51.501  1.00  0.00    -0.353 OA
HETATM   40  C   UNL     1      24.758  42.323  50.351  1.00  0.00     0.210 C 
ENDBRANCH  35  39
BRANCH  36  41
HETATM   41  O   UNL     1      26.286  43.569  53.279  1.00  0.00    -0.353 OA
HETATM   42  C   UNL     1      27.619  43.105  53.119  1.00  0.00     0.210 C 
ENDBRANCH  36  41
ENDBRANCH  31  33
ENDBRANCH   1  27
TORSDOF 11
ENDMDL
MODEL 9
REMARK VINA RESULT:      -8.3      5.571     10.285
REMARK  11 active torsions:
REMARK  status: ('A' for Active; 'I' for Inactive)
REMARK    1  A    between atoms: C_4  and  C_5 
REMARK    2  A    between atoms: C_7  and  O_8 
REMARK    3  A    between atoms: C_10  and  O_11 
REMARK    4  A    between atoms: C_16  and  C_17 
REMARK    5  A    between atoms: C_20  and  C_21 
REMARK    6  A    between atoms: C_21  and  N_22 
REMARK    7  A    between atoms: N_22  and  C_23 
REMARK    8  A    between atoms: C_23  and  N_24 
REMARK    9  A    between atoms: N_24  and  C_25 
REMARK   10  A    between atoms: C_27  and  O_28 
REMARK   11  A    between atoms: C_31  and  O_32 
ROOT
HETATM    1  C   UNL     1      22.087  49.813  48.225  1.00  0.00     0.067 C 
HETATM    2  C   UNL     1      21.330  50.873  49.050  1.00  0.00     0.001 C 
HETATM    3  C   UNL     1      20.387  50.205  50.076  1.00  0.00     0.040 C 
HETATM    4  C   UNL     1      19.266  49.421  49.370  1.00  0.00     0.206 C 
HETATM    5  N   UNL     1      19.653  49.326  47.892  1.00  0.00    -0.065 N 
HETATM    6  H   UNL     1      18.981  48.706  47.416  1.00  0.00     0.280 HD
HETATM    7  C   UNL     1      21.059  48.774  47.700  1.00  0.00     0.246 C 
HETATM    8  C   UNL     1      20.432  51.660  48.059  1.00  0.00     0.033 C 
HETATM    9  C   UNL     1      19.543  50.703  47.259  1.00  0.00     0.236 C 
ENDROOT
BRANCH   4  10
HETATM   10  C   UNL     1      19.005  48.026  49.982  1.00  0.00     0.155 C 
BRANCH  10  11
HETATM   11  N   UNL     1      17.628  47.569  49.842  1.00  0.00    -0.365 N 
HETATM   12  H   UNL     1      17.036  47.603  50.666  1.00  0.00     0.161 HD
BRANCH  11  13
HETATM   13  C   UNL     1      17.009  47.141  48.702  1.00  0.00     0.172 C 
HETATM   14  S   UNL     1      16.023  48.092  47.743  1.00  0.00    -0.041 SA
BRANCH  13  15
HETATM   15  N   UNL     1      17.153  45.824  48.375  1.00  0.00    -0.333 N 
HETATM   16  H   UNL     1      16.404  45.236  48.734  1.00  0.00     0.168 HD
BRANCH  15  17
HETATM   17  C   UNL     1      18.057  45.174  47.502  1.00  0.00     0.039 A 
HETATM   18  C   UNL     1      19.416  45.005  47.781  1.00  0.00     0.066 A 
HETATM   19  C   UNL     1      20.261  44.354  46.879  1.00  0.00     0.073 A 
HETATM   20  C   UNL     1      19.746  43.893  45.671  1.00  0.00     0.073 A 
HETATM   21  C   UNL     1      18.401  44.100  45.351  1.00  0.00     0.073 A 
HETATM   22  C   UNL     1      17.561  44.741  46.266  1.00  0.00     0.066 A 
BRANCH  19  23
HETATM   23  O   UNL     1      21.558  44.239  47.302  1.00  0.00    -0.356 OA
HETATM   24  C   UNL     1      21.858  44.753  48.595  1.00  0.00     0.210 C 
ENDBRANCH  19  23
BRANCH  21  25
HETATM   25  O   UNL     1      18.033  43.619  44.124  1.00  0.00    -0.356 OA
HETATM   26  C   UNL     1      18.220  44.478  43.005  1.00  0.00     0.210 C 
ENDBRANCH  21  25
ENDBRANCH  15  17
ENDBRANCH  13  15
ENDBRANCH  11  13
ENDBRANCH  10  11
ENDBRANCH   4  10
BRANCH   1  27
HETATM   27  C   UNL     1      23.310  49.123  48.776  1.00  0.00     0.038 C 
HETATM   28  N   UNL     1      24.657  49.375  48.620  1.00  0.00    -0.277 N 
HETATM   29  C   UNL     1      25.378  50.275  47.753  1.00  0.00     0.179 C 
HETATM   30  N   UNL     1      25.423  48.630  49.434  1.00  0.00    -0.172 NA
HETATM   31  C   UNL     1      24.612  47.707  49.958  1.00  0.00     0.089 C 
HETATM   32  C   UNL     1      23.279  47.989  49.583  1.00  0.00     0.061 C 
BRANCH  31  33
HETATM   33  C   UNL     1      25.111  46.623  50.803  1.00  0.00    -0.003 A 
HETATM   34  C   UNL     1      25.213  45.318  50.297  1.00  0.00     0.053 A 
HETATM   35  C   UNL     1      25.690  44.272  51.096  1.00  0.00     0.102 A 
HETATM   36  C   UNL     1      26.059  44.527  52.432  1.00  0.00     0.101 A 
HETATM   37  C   UNL     1      25.952  45.824  52.940  1.00  0.00     0.040 A 
HETATM   38  C   UNL     1      25.483  46.865  52.131  1.00  0.00     0.017 A 
BRANCH  35  39
HETATM   39  O   UNL     1      25.833  42.974  50.672  1.00  0.00    -0.353 OA
HETATM   40  C   UNL     1      26.857  42.693  49.729  1.00  0.00     0.210 C 
ENDBRANCH  35  39
BRANCH  36  41
HETATM   41  O   UNL     1      26.517  43.451  53.150  1.00  0.00    -0.353 OA
HETATM   42  C   UNL     1      27.875  43.461  53.564  1.00  0.00     0.210 C 
ENDBRANCH  36  41
ENDBRANCH  31  33
ENDBRANCH   1  27
TORSDOF 11
ENDMDL
MODEL 10
REMARK VINA RESULT:      -8.2      5.572      9.878
REMARK  11 active torsions:
REMARK  status: ('A' for Active; 'I' for Inactive)
REMARK    1  A    between atoms: C_4  and  C_5 
REMARK    2  A    between atoms: C_7  and  O_8 
REMARK    3  A    between atoms: C_10  and  O_11 
REMARK    4  A    between atoms: C_16  and  C_17 
REMARK    5  A    between atoms: C_20  and  C_21 
REMARK    6  A    between atoms: C_21  and  N_22 
REMARK    7  A    between atoms: N_22  and  C_23 
REMARK    8  A    between atoms: C_23  and  N_24 
REMARK    9  A    between atoms: N_24  and  C_25 
REMARK   10  A    between atoms: C_27  and  O_28 
REMARK   11  A    between atoms: C_31  and  O_32 
ROOT
HETATM    1  C   UNL     1      22.133  49.852  48.235  1.00  0.00     0.067 C 
HETATM    2  C   UNL     1      21.392  50.927  49.056  1.00  0.00     0.001 C 
HETATM    3  C   UNL     1      20.489  50.277  50.129  1.00  0.00     0.040 C 
HETATM    4  C   UNL     1      19.354  49.465  49.481  1.00  0.00     0.206 C 
HETATM    5  N   UNL     1      19.694  49.334  47.994  1.00  0.00    -0.065 N 
HETATM    6  H   UNL     1      19.014  48.694  47.557  1.00  0.00     0.280 HD
HETATM    7  C   UNL     1      21.100  48.789  47.771  1.00  0.00     0.246 C 
HETATM    8  C   UNL     1      20.455  51.678  48.074  1.00  0.00     0.033 C 
HETATM    9  C   UNL     1      19.550  50.692  47.328  1.00  0.00     0.236 C 
ENDROOT
BRANCH   4  10
HETATM   10  C   UNL     1      19.127  48.084  50.137  1.00  0.00     0.155 C 
BRANCH  10  11
HETATM   11  N   UNL     1      17.795  47.537  49.914  1.00  0.00    -0.365 N 
HETATM   12  H   UNL     1      17.144  47.556  50.693  1.00  0.00     0.161 HD
BRANCH  11  13
HETATM   13  C   UNL     1      17.289  47.039  48.748  1.00  0.00     0.172 C 
HETATM   14  S   UNL     1      16.270  47.877  47.722  1.00  0.00    -0.041 SA
BRANCH  13  15
HETATM   15  N   UNL     1      17.583  45.739  48.450  1.00  0.00    -0.333 N 
HETATM   16  H   UNL     1      16.803  45.104  48.606  1.00  0.00     0.168 HD
BRANCH  15  17
HETATM   17  C   UNL     1      18.707  45.160  47.816  1.00  0.00     0.039 A 
HETATM   18  C   UNL     1      20.010  45.259  48.311  1.00  0.00     0.066 A 
HETATM   19  C   UNL     1      21.083  44.665  47.641  1.00  0.00     0.073 A 
HETATM   20  C   UNL     1      20.853  43.991  46.445  1.00  0.00     0.073 A 
HETATM   21  C   UNL     1      19.565  43.929  45.906  1.00  0.00     0.073 A 
HETATM   22  C   UNL     1      18.496  44.514  46.591  1.00  0.00     0.066 A 
BRANCH  19  23
HETATM   23  O   UNL     1      22.293  44.821  48.262  1.00  0.00    -0.356 OA
HETATM   24  C   UNL     1      23.395  44.112  47.704  1.00  0.00     0.210 C 
ENDBRANCH  19  23
BRANCH  21  25
HETATM   25  O   UNL     1      19.484  43.259  44.716  1.00  0.00    -0.356 OA
HETATM   26  C   UNL     1      20.333  43.698  43.662  1.00  0.00     0.210 C 
ENDBRANCH  21  25
ENDBRANCH  15  17
ENDBRANCH  13  15
ENDBRANCH  11  13
ENDBRANCH  10  11
ENDBRANCH   4  10
BRANCH   1  27
HETATM   27  C   UNL     1      23.380  49.188  48.764  1.00  0.00     0.038 C 
HETATM   28  N   UNL     1      24.718  49.467  48.582  1.00  0.00    -0.277 N 
HETATM   29  C   UNL     1      25.405  50.380  47.699  1.00  0.00     0.179 C 
HETATM   30  N   UNL     1      25.515  48.740  49.382  1.00  0.00    -0.172 NA
HETATM   31  C   UNL     1      24.733  47.802  49.924  1.00  0.00     0.089 C 
HETATM   32  C   UNL     1      23.388  48.056  49.574  1.00  0.00     0.061 C 
BRANCH  31  33
HETATM   33  C   UNL     1      25.270  46.731  50.762  1.00  0.00    -0.003 A 
HETATM   34  C   UNL     1      25.393  46.908  52.148  1.00  0.00     0.053 A 
HETATM   35  C   UNL     1      25.903  45.889  52.962  1.00  0.00     0.102 A 
HETATM   36  C   UNL     1      26.314  44.673  52.381  1.00  0.00     0.101 A 
HETATM   37  C   UNL     1      26.198  44.496  50.999  1.00  0.00     0.040 A 
HETATM   38  C   UNL     1      25.678  45.517  50.197  1.00  0.00     0.017 A 
BRANCH  35  39
HETATM   39  O   UNL     1      26.042  45.980  54.325  1.00  0.00    -0.353 OA
HETATM   40  C   UNL     1      26.738  47.103  54.847  1.00  0.00     0.210 C 
ENDBRANCH  35  39
BRANCH  36  41
HETATM   41  O   UNL     1      26.803  43.725  53.243  1.00  0.00    -0.353 OA
HETATM   42  C   UNL     1      27.291  42.513  52.687  1.00  0.00     0.210 C 
ENDBRANCH  36  41
ENDBRANCH  31  33
ENDBRANCH   1  27
TORSDOF 11
ENDMDL
