MODEL 1
REMARK VINA RESULT:      -9.7      0.000      0.000
REMARK  9 active torsions:
REMARK  status: ('A' for Active; 'I' for Inactive)
REMARK    1  A    between atoms: C_2  and  O_3 
REMARK    2  A    between atoms: O_3  and  C_4 
REMARK    3  A    between atoms: C_4  and  C_5 
REMARK    4  A    between atoms: C_7  and  C_8 
REMARK       I    between atoms: C_8  and  N_9 
REMARK    5  A    between atoms: N_9  and  N_10 
REMARK    6  A    between atoms: N_10  and  C_11 
REMARK    7  A    between atoms: C_11  and  N_12 
REMARK    8  A    between atoms: N_12  and  C_13 
REMARK    9  A    between atoms: C_13  and  C_14 
ROOT
HETATM    1  C   UNL     1      26.030  46.580  51.977  1.00  0.00     0.078 A 
HETATM    2  O   UNL     1      25.127  47.538  51.624  1.00  0.00    -0.307 OA
HETATM    3  C   UNL     1      24.764  47.314  50.321  1.00  0.00     0.145 A 
HETATM    4  C   UNL     1      25.470  46.225  49.840  1.00  0.00     0.045 A 
HETATM    5  C   UNL     1      26.277  45.752  50.905  1.00  0.00     0.038 A 
ENDROOT
BRANCH   3   6
HETATM    6  C   UNL     1      23.762  48.189  49.744  1.00  0.00     0.293 C 
HETATM    7  N   UNL     1      22.507  47.624  49.581  1.00  0.00    -0.262 N 
HETATM    8  H   UNL     1      22.277  46.664  49.811  1.00  0.00     0.190 HD
HETATM    9  O   UNL     1      23.961  49.362  49.423  1.00  0.00    -0.264 OA
BRANCH   7  10
HETATM   10  N   UNL     1      21.461  48.446  49.131  1.00  0.00    -0.274 N 
HETATM   11  H   UNL     1      21.751  49.117  48.421  1.00  0.00     0.189 HD
BRANCH  10  12
HETATM   12  C   UNL     1      20.160  48.017  49.154  1.00  0.00     0.186 C 
HETATM   13  S   UNL     1      19.407  47.164  47.928  1.00  0.00    -0.040 SA
BRANCH  12  14
HETATM   14  N   UNL     1      19.466  48.271  50.302  1.00  0.00    -0.364 N 
HETATM   15  H   UNL     1      19.583  47.554  51.015  1.00  0.00     0.162 HD
BRANCH  14  16
HETATM   16  C   UNL     1      19.108  49.586  50.824  1.00  0.00     0.154 C 
BRANCH  16  17
HETATM   17  C   UNL     1      18.579  50.504  49.723  1.00  0.00     0.139 C 
HETATM   18  O   UNL     1      17.438  51.251  50.192  1.00  0.00    -0.384 OA
HETATM   19  C   UNL     1      17.459  52.541  49.561  1.00  0.00     0.168 C 
HETATM   20  C   UNL     1      18.690  52.598  48.677  1.00  0.00     0.029 C 
HETATM   21  C   UNL     1      19.587  51.549  49.284  1.00  0.00     0.035 C 
ENDBRANCH  16  17
ENDBRANCH  14  16
ENDBRANCH  12  14
ENDBRANCH  10  12
ENDBRANCH   7  10
ENDBRANCH   3   6
BRANCH   1  22
HETATM   22  C   UNL     1      26.526  46.618  53.377  1.00  0.00     0.240 C 
BRANCH  22  23
HETATM   23  O   UNL     1      27.246  45.406  53.579  1.00  0.00    -0.345 OA
BRANCH  23  24
HETATM   24  C   UNL     1      28.109  45.368  54.642  1.00  0.00     0.069 A 
HETATM   25  C   UNL     1      28.118  46.265  55.722  1.00  0.00     0.037 A 
HETATM   26  C   UNL     1      29.069  46.146  56.744  1.00  0.00     0.010 A 
HETATM   27  C   UNL     1      29.991  45.116  56.673  1.00  0.00    -0.052 A 
HETATM   28  C   UNL     1      29.984  44.219  55.602  1.00  0.00    -0.049 A 
HETATM   29  C   UNL     1      31.117  44.816  57.610  1.00  0.00     0.039 C 
HETATM   30  C   UNL     1      29.058  44.342  54.578  1.00  0.00     0.044 A 
HETATM   31  C   UNL     1      31.098  43.229  55.725  1.00  0.00     0.039 C 
HETATM   32  C   UNL     1      31.462  43.374  57.211  1.00  0.00     0.009 C 
ENDBRANCH  23  24
ENDBRANCH  22  23
ENDBRANCH   1  22
TORSDOF 9
ENDMDL
MODEL 2
REMARK VINA RESULT:      -9.5      1.369      2.080
REMARK  9 active torsions:
REMARK  status: ('A' for Active; 'I' for Inactive)
REMARK    1  A    between atoms: C_2  and  O_3 
REMARK    2  A    between atoms: O_3  and  C_4 
REMARK    3  A    between atoms: C_4  and  C_5 
REMARK    4  A    between atoms: C_7  and  C_8 
REMARK       I    between atoms: C_8  and  N_9 
REMARK    5  A    between atoms: N_9  and  N_10 
REMARK    6  A    between atoms: N_10  and  C_11 
REMARK    7  A    between atoms: C_11  and  N_12 
REMARK    8  A    between atoms: N_12  and  C_13 
REMARK    9  A    between atoms: C_13  and  C_14 
ROOT
HETATM    1  C   UNL     1      25.311  46.441  50.984  1.00  0.00     0.078 A 
HETATM    2  O   UNL     1      24.108  46.534  50.348  1.00  0.00    -0.307 OA
HETATM    3  C   UNL     1      24.170  47.599  49.487  1.00  0.00     0.145 A 
HETATM    4  C   UNL     1      25.411  48.201  49.606  1.00  0.00     0.045 A 
HETATM    5  C   UNL     1      26.143  47.454  50.562  1.00  0.00     0.038 A 
ENDROOT
BRANCH   3   6
HETATM    6  C   UNL     1      23.010  47.859  48.657  1.00  0.00     0.293 C 
HETATM    7  N   UNL     1      21.838  47.243  49.069  1.00  0.00    -0.262 N 
HETATM    8  H   UNL     1      21.767  46.626  49.871  1.00  0.00     0.190 HD
HETATM    9  O   UNL     1      23.013  48.582  47.659  1.00  0.00    -0.264 OA
BRANCH   7  10
HETATM   10  N   UNL     1      20.653  47.538  48.376  1.00  0.00    -0.274 N 
HETATM   11  H   UNL     1      20.706  47.335  47.379  1.00  0.00     0.189 HD
BRANCH  10  12
HETATM   12  C   UNL     1      19.435  47.497  49.004  1.00  0.00     0.186 C 
HETATM   13  S   UNL     1      18.026  46.897  48.330  1.00  0.00    -0.040 SA
BRANCH  12  14
HETATM   14  N   UNL     1      19.412  47.935  50.296  1.00  0.00    -0.364 N 
HETATM   15  H   UNL     1      20.259  47.714  50.815  1.00  0.00     0.162 HD
BRANCH  14  16
HETATM   16  C   UNL     1      18.677  49.088  50.806  1.00  0.00     0.154 C 
BRANCH  16  17
HETATM   17  C   UNL     1      19.330  50.404  50.386  1.00  0.00     0.139 C 
HETATM   18  O   UNL     1      20.666  50.172  49.893  1.00  0.00    -0.384 OA
HETATM   19  C   UNL     1      20.931  51.127  48.855  1.00  0.00     0.168 C 
HETATM   20  C   UNL     1      19.685  51.975  48.684  1.00  0.00     0.029 C 
HETATM   21  C   UNL     1      18.600  51.093  49.249  1.00  0.00     0.035 C 
ENDBRANCH  16  17
ENDBRANCH  14  16
ENDBRANCH  12  14
ENDBRANCH  10  12
ENDBRANCH   7  10
ENDBRANCH   3   6
BRANCH   1  22
HETATM   22  C   UNL     1      25.470  45.316  51.942  1.00  0.00     0.240 C 
BRANCH  22  23
HETATM   23  O   UNL     1      26.198  45.836  53.051  1.00  0.00    -0.345 OA
BRANCH  23  24
HETATM   24  C   UNL     1      27.263  45.097  53.493  1.00  0.00     0.069 A 
HETATM   25  C   UNL     1      27.693  43.875  52.952  1.00  0.00     0.037 A 
HETATM   26  C   UNL     1      28.783  43.191  53.506  1.00  0.00     0.010 A 
HETATM   27  C   UNL     1      29.437  43.754  54.588  1.00  0.00    -0.052 A 
HETATM   28  C   UNL     1      29.015  44.971  55.127  1.00  0.00    -0.049 A 
HETATM   29  C   UNL     1      30.585  43.196  55.368  1.00  0.00     0.039 C 
HETATM   30  C   UNL     1      27.926  45.645  54.597  1.00  0.00     0.044 A 
HETATM   31  C   UNL     1      29.846  45.348  56.312  1.00  0.00     0.039 C 
HETATM   32  C   UNL     1      31.073  44.446  56.115  1.00  0.00     0.009 C 
ENDBRANCH  23  24
ENDBRANCH  22  23
ENDBRANCH   1  22
TORSDOF 9
ENDMDL
MODEL 3
REMARK VINA RESULT:      -9.4      2.999      4.111
REMARK  9 active torsions:
REMARK  status: ('A' for Active; 'I' for Inactive)
REMARK    1  A    between atoms: C_2  and  O_3 
REMARK    2  A    between atoms: O_3  and  C_4 
REMARK    3  A    between atoms: C_4  and  C_5 
REMARK    4  A    between atoms: C_7  and  C_8 
REMARK       I    between atoms: C_8  and  N_9 
REMARK    5  A    between atoms: N_9  and  N_10 
REMARK    6  A    between atoms: N_10  and  C_11 
REMARK    7  A    between atoms: C_11  and  N_12 
REMARK    8  A    between atoms: N_12  and  C_13 
REMARK    9  A    between atoms: C_13  and  C_14 
ROOT
HETATM    1  C   UNL     1      26.738  43.485  51.537  1.00  0.00     0.078 A 
HETATM    2  O   UNL     1      25.381  43.614  51.511  1.00  0.00    -0.307 OA
HETATM    3  C   UNL     1      25.051  44.362  50.410  1.00  0.00     0.145 A 
HETATM    4  C   UNL     1      26.213  44.735  49.757  1.00  0.00     0.045 A 
HETATM    5  C   UNL     1      27.294  44.168  50.478  1.00  0.00     0.038 A 
ENDROOT
BRANCH   3   6
HETATM    6  C   UNL     1      23.643  44.585  50.148  1.00  0.00     0.293 C 
HETATM    7  N   UNL     1      23.339  45.786  49.529  1.00  0.00    -0.262 N 
HETATM    8  H   UNL     1      24.023  46.495  49.288  1.00  0.00     0.190 HD
HETATM    9  O   UNL     1      22.747  43.784  50.423  1.00  0.00    -0.264 OA
BRANCH   7  10
HETATM   10  N   UNL     1      22.008  46.020  49.146  1.00  0.00    -0.274 N 
HETATM   11  H   UNL     1      21.363  45.300  49.467  1.00  0.00     0.189 HD
BRANCH  10  12
HETATM   12  C   UNL     1      21.542  47.292  48.938  1.00  0.00     0.186 C 
HETATM   13  S   UNL     1      20.025  47.674  48.346  1.00  0.00    -0.040 SA
BRANCH  12  14
HETATM   14  N   UNL     1      22.381  48.304  49.303  1.00  0.00    -0.364 N 
HETATM   15  H   UNL     1      22.823  48.160  50.208  1.00  0.00     0.162 HD
BRANCH  14  16
HETATM   16  C   UNL     1      23.125  49.179  48.402  1.00  0.00     0.154 C 
BRANCH  16  17
HETATM   17  C   UNL     1      24.497  49.537  48.971  1.00  0.00     0.139 C 
HETATM   18  O   UNL     1      25.098  48.389  49.605  1.00  0.00    -0.384 OA
HETATM   19  C   UNL     1      26.519  48.465  49.412  1.00  0.00     0.168 C 
HETATM   20  C   UNL     1      26.804  49.712  48.597  1.00  0.00     0.029 C 
HETATM   21  C   UNL     1      25.488  49.968  47.907  1.00  0.00     0.035 C 
ENDBRANCH  16  17
ENDBRANCH  14  16
ENDBRANCH  12  14
ENDBRANCH  10  12
ENDBRANCH   7  10
ENDBRANCH   3   6
BRANCH   1  22
HETATM   22  C   UNL     1      27.306  42.668  52.641  1.00  0.00     0.240 C 
BRANCH  22  23
HETATM   23  O   UNL     1      28.668  43.067  52.773  1.00  0.00    -0.345 OA
BRANCH  23  24
HETATM   24  C   UNL     1      28.998  43.782  53.894  1.00  0.00     0.069 A 
HETATM   25  C   UNL     1      28.381  44.969  54.319  1.00  0.00     0.037 A 
HETATM   26  C   UNL     1      28.822  45.632  55.471  1.00  0.00     0.010 A 
HETATM   27  C   UNL     1      29.869  45.083  56.191  1.00  0.00    -0.052 A 
HETATM   28  C   UNL     1      30.483  43.900  55.774  1.00  0.00    -0.049 A 
HETATM   29  C   UNL     1      30.535  45.625  57.415  1.00  0.00     0.039 C 
HETATM   30  C   UNL     1      30.066  43.248  54.624  1.00  0.00     0.044 A 
HETATM   31  C   UNL     1      31.612  43.533  56.683  1.00  0.00     0.039 C 
HETATM   32  C   UNL     1      31.286  44.385  57.920  1.00  0.00     0.009 C 
ENDBRANCH  23  24
ENDBRANCH  22  23
ENDBRANCH   1  22
TORSDOF 9
ENDMDL
MODEL 4
REMARK VINA RESULT:      -9.3      1.432      1.901
REMARK  9 active torsions:
REMARK  status: ('A' for Active; 'I' for Inactive)
REMARK    1  A    between atoms: C_2  and  O_3 
REMARK    2  A    between atoms: O_3  and  C_4 
REMARK    3  A    between atoms: C_4  and  C_5 
REMARK    4  A    between atoms: C_7  and  C_8 
REMARK       I    between atoms: C_8  and  N_9 
REMARK    5  A    between atoms: N_9  and  N_10 
REMARK    6  A    between atoms: N_10  and  C_11 
REMARK    7  A    between atoms: C_11  and  N_12 
REMARK    8  A    between atoms: N_12  and  C_13 
REMARK    9  A    between atoms: C_13  and  C_14 
ROOT
HETATM    1  C   UNL     1      26.732  43.821  51.578  1.00  0.00     0.078 A 
HETATM    2  O   UNL     1      26.210  45.068  51.763  1.00  0.00    -0.307 OA
HETATM    3  C   UNL     1      25.848  45.559  50.536  1.00  0.00     0.145 A 
HETATM    4  C   UNL     1      26.175  44.627  49.566  1.00  0.00     0.045 A 
HETATM    5  C   UNL     1      26.736  43.512  50.236  1.00  0.00     0.038 A 
ENDROOT
BRANCH   3   6
HETATM    6  C   UNL     1      25.216  46.863  50.496  1.00  0.00     0.293 C 
HETATM    7  N   UNL     1      23.978  46.901  49.873  1.00  0.00    -0.262 N 
HETATM    8  H   UNL     1      23.530  46.100  49.442  1.00  0.00     0.190 HD
HETATM    9  O   UNL     1      25.698  47.888  50.981  1.00  0.00    -0.264 OA
BRANCH   7  10
HETATM   10  N   UNL     1      23.260  48.107  49.895  1.00  0.00    -0.274 N 
HETATM   11  H   UNL     1      23.840  48.920  50.093  1.00  0.00     0.189 HD
BRANCH  10  12
HETATM   12  C   UNL     1      22.115  48.266  49.157  1.00  0.00     0.186 C 
HETATM   13  S   UNL     1      21.828  47.565  47.666  1.00  0.00    -0.040 SA
BRANCH  12  14
HETATM   14  N   UNL     1      21.130  49.013  49.734  1.00  0.00    -0.364 N 
HETATM   15  H   UNL     1      20.771  48.614  50.599  1.00  0.00     0.162 HD
BRANCH  14  16
HETATM   16  C   UNL     1      20.962  50.459  49.623  1.00  0.00     0.154 C 
BRANCH  16  17
HETATM   17  C   UNL     1      19.581  50.826  49.084  1.00  0.00     0.139 C 
HETATM   18  O   UNL     1      18.600  50.797  50.141  1.00  0.00    -0.384 OA
HETATM   19  C   UNL     1      17.624  51.816  49.872  1.00  0.00     0.168 C 
HETATM   20  C   UNL     1      18.039  52.522  48.596  1.00  0.00     0.029 C 
HETATM   21  C   UNL     1      19.518  52.232  48.519  1.00  0.00     0.035 C 
ENDBRANCH  16  17
ENDBRANCH  14  16
ENDBRANCH  12  14
ENDBRANCH  10  12
ENDBRANCH   7  10
ENDBRANCH   3   6
BRANCH   1  22
HETATM   22  C   UNL     1      27.154  43.090  52.800  1.00  0.00     0.240 C 
BRANCH  22  23
HETATM   23  O   UNL     1      28.546  43.348  52.959  1.00  0.00    -0.345 OA
BRANCH  23  24
HETATM   24  C   UNL     1      28.924  44.033  54.083  1.00  0.00     0.069 A 
HETATM   25  C   UNL     1      28.358  45.234  54.539  1.00  0.00     0.037 A 
HETATM   26  C   UNL     1      28.845  45.863  55.692  1.00  0.00     0.010 A 
HETATM   27  C   UNL     1      29.889  45.268  56.380  1.00  0.00    -0.052 A 
HETATM   28  C   UNL     1      30.453  44.072  55.931  1.00  0.00    -0.049 A 
HETATM   29  C   UNL     1      30.600  45.769  57.596  1.00  0.00     0.039 C 
HETATM   30  C   UNL     1      29.989  43.453  54.781  1.00  0.00     0.044 A 
HETATM   31  C   UNL     1      31.589  43.653  56.810  1.00  0.00     0.039 C 
HETATM   32  C   UNL     1      31.319  44.495  58.066  1.00  0.00     0.009 C 
ENDBRANCH  23  24
ENDBRANCH  22  23
ENDBRANCH   1  22
TORSDOF 9
ENDMDL
MODEL 5
REMARK VINA RESULT:      -9.2      2.794     10.622
REMARK  9 active torsions:
REMARK  status: ('A' for Active; 'I' for Inactive)
REMARK    1  A    between atoms: C_2  and  O_3 
REMARK    2  A    between atoms: O_3  and  C_4 
REMARK    3  A    between atoms: C_4  and  C_5 
REMARK    4  A    between atoms: C_7  and  C_8 
REMARK       I    between atoms: C_8  and  N_9 
REMARK    5  A    between atoms: N_9  and  N_10 
REMARK    6  A    between atoms: N_10  and  C_11 
REMARK    7  A    between atoms: C_11  and  N_12 
REMARK    8  A    between atoms: N_12  and  C_13 
REMARK    9  A    between atoms: C_13  and  C_14 
ROOT
HETATM    1  C   UNL     1      25.196  49.437  48.728  1.00  0.00     0.078 A 
HETATM    2  O   UNL     1      24.749  48.540  49.651  1.00  0.00    -0.307 OA
HETATM    3  C   UNL     1      25.838  47.878  50.158  1.00  0.00     0.145 A 
HETATM    4  C   UNL     1      26.978  48.340  49.522  1.00  0.00     0.045 A 
HETATM    5  C   UNL     1      26.565  49.343  48.610  1.00  0.00     0.038 A 
ENDROOT
BRANCH   3   6
HETATM    6  C   UNL     1      25.604  46.904  51.205  1.00  0.00     0.293 C 
HETATM    7  N   UNL     1      24.717  45.890  50.882  1.00  0.00    -0.262 N 
HETATM    8  H   UNL     1      24.226  45.818  49.997  1.00  0.00     0.190 HD
HETATM    9  O   UNL     1      26.146  46.925  52.312  1.00  0.00    -0.264 OA
BRANCH   7  10
HETATM   10  N   UNL     1      24.527  44.852  51.809  1.00  0.00    -0.274 N 
HETATM   11  H   UNL     1      23.583  44.818  52.191  1.00  0.00     0.189 HD
BRANCH  10  12
HETATM   12  C   UNL     1      25.264  43.698  51.744  1.00  0.00     0.186 C 
HETATM   13  S   UNL     1      25.062  42.490  50.605  1.00  0.00    -0.040 SA
BRANCH  12  14
HETATM   14  N   UNL     1      26.270  43.579  52.659  1.00  0.00    -0.364 N 
HETATM   15  H   UNL     1      25.960  43.691  53.622  1.00  0.00     0.162 HD
BRANCH  14  16
HETATM   16  C   UNL     1      27.490  42.791  52.507  1.00  0.00     0.154 C 
BRANCH  16  17
HETATM   17  C   UNL     1      28.689  43.479  53.157  1.00  0.00     0.139 C 
HETATM   18  O   UNL     1      28.262  44.622  53.926  1.00  0.00    -0.384 OA
HETATM   19  C   UNL     1      29.132  44.746  55.062  1.00  0.00     0.168 C 
HETATM   20  C   UNL     1      30.131  43.606  55.000  1.00  0.00     0.029 C 
HETATM   21  C   UNL     1      29.424  42.588  54.140  1.00  0.00     0.035 C 
ENDBRANCH  16  17
ENDBRANCH  14  16
ENDBRANCH  12  14
ENDBRANCH  10  12
ENDBRANCH   7  10
ENDBRANCH   3   6
BRANCH   1  22
HETATM   22  C   UNL     1      24.169  50.293  48.081  1.00  0.00     0.240 C 
BRANCH  22  23
HETATM   23  O   UNL     1      23.118  49.420  47.678  1.00  0.00    -0.345 OA
BRANCH  23  24
HETATM   24  C   UNL     1      21.899  49.599  48.278  1.00  0.00     0.069 A 
HETATM   25  C   UNL     1      21.204  48.634  49.023  1.00  0.00     0.037 A 
HETATM   26  C   UNL     1      19.946  48.921  49.570  1.00  0.00     0.010 A 
HETATM   27  C   UNL     1      19.410  50.181  49.371  1.00  0.00    -0.052 A 
HETATM   28  C   UNL     1      20.100  51.145  48.632  1.00  0.00    -0.049 A 
HETATM   29  C   UNL     1      18.079  50.701  49.813  1.00  0.00     0.039 C 
HETATM   30  C   UNL     1      21.336  50.863  48.073  1.00  0.00     0.044 A 
HETATM   31  C   UNL     1      19.301  52.405  48.518  1.00  0.00     0.039 C 
HETATM   32  C   UNL     1      18.283  52.215  49.653  1.00  0.00     0.009 C 
ENDBRANCH  23  24
ENDBRANCH  22  23
ENDBRANCH   1  22
TORSDOF 9
ENDMDL
MODEL 6
REMARK VINA RESULT:      -9.1      2.912      3.998
REMARK  9 active torsions:
REMARK  status: ('A' for Active; 'I' for Inactive)
REMARK    1  A    between atoms: C_2  and  O_3 
REMARK    2  A    between atoms: O_3  and  C_4 
REMARK    3  A    between atoms: C_4  and  C_5 
REMARK    4  A    between atoms: C_7  and  C_8 
REMARK       I    between atoms: C_8  and  N_9 
REMARK    5  A    between atoms: N_9  and  N_10 
REMARK    6  A    between atoms: N_10  and  C_11 
REMARK    7  A    between atoms: C_11  and  N_12 
REMARK    8  A    between atoms: N_12  and  C_13 
REMARK    9  A    between atoms: C_13  and  C_14 
ROOT
HETATM    1  C   UNL     1      27.584  41.476  51.844  1.00  0.00     0.078 A 
HETATM    2  O   UNL     1      26.696  42.503  51.967  1.00  0.00    -0.307 OA
HETATM    3  C   UNL     1      25.810  42.421  50.923  1.00  0.00     0.145 A 
HETATM    4  C   UNL     1      26.165  41.352  50.118  1.00  0.00     0.045 A 
HETATM    5  C   UNL     1      27.299  40.744  50.713  1.00  0.00     0.038 A 
ENDROOT
BRANCH   3   6
HETATM    6  C   UNL     1      24.734  43.391  50.879  1.00  0.00     0.293 C 
HETATM    7  N   UNL     1      25.065  44.618  50.328  1.00  0.00    -0.262 N 
HETATM    8  H   UNL     1      25.991  44.865  49.995  1.00  0.00     0.190 HD
HETATM    9  O   UNL     1      23.586  43.178  51.275  1.00  0.00    -0.264 OA
BRANCH   7  10
HETATM   10  N   UNL     1      24.045  45.566  50.153  1.00  0.00    -0.274 N 
HETATM   11  H   UNL     1      23.147  45.268  50.531  1.00  0.00     0.189 HD
BRANCH  10  12
HETATM   12  C   UNL     1      24.325  46.905  50.070  1.00  0.00     0.186 C 
HETATM   13  S   UNL     1      25.826  47.592  50.344  1.00  0.00    -0.040 SA
BRANCH  12  14
HETATM   14  N   UNL     1      23.295  47.709  49.678  1.00  0.00    -0.364 N 
HETATM   15  H   UNL     1      22.420  47.515  50.161  1.00  0.00     0.162 HD
BRANCH  14  16
HETATM   16  C   UNL     1      23.407  49.070  49.159  1.00  0.00     0.154 C 
BRANCH  16  17
HETATM   17  C   UNL     1      22.066  49.587  48.642  1.00  0.00     0.139 C 
HETATM   18  O   UNL     1      20.997  49.200  49.529  1.00  0.00    -0.384 OA
HETATM   19  C   UNL     1      20.010  50.243  49.522  1.00  0.00     0.168 C 
HETATM   20  C   UNL     1      20.510  51.339  48.601  1.00  0.00     0.029 C 
HETATM   21  C   UNL     1      21.999  51.101  48.575  1.00  0.00     0.035 C 
ENDBRANCH  16  17
ENDBRANCH  14  16
ENDBRANCH  12  14
ENDBRANCH  10  12
ENDBRANCH   7  10
ENDBRANCH   3   6
BRANCH   1  22
HETATM   22  C   UNL     1      28.614  41.359  52.908  1.00  0.00     0.240 C 
BRANCH  22  23
HETATM   23  O   UNL     1      29.462  42.495  52.769  1.00  0.00    -0.345 OA
BRANCH  23  24
HETATM   24  C   UNL     1      29.528  43.352  53.836  1.00  0.00     0.069 A 
HETATM   25  C   UNL     1      28.717  44.482  54.029  1.00  0.00     0.037 A 
HETATM   26  C   UNL     1      28.893  45.306  55.148  1.00  0.00     0.010 A 
HETATM   27  C   UNL     1      29.874  44.974  56.067  1.00  0.00    -0.052 A 
HETATM   28  C   UNL     1      30.681  43.850  55.880  1.00  0.00    -0.049 A 
HETATM   29  C   UNL     1      30.274  45.717  57.302  1.00  0.00     0.039 C 
HETATM   30  C   UNL     1      30.526  43.040  54.766  1.00  0.00     0.044 A 
HETATM   31  C   UNL     1      31.691  43.727  56.976  1.00  0.00     0.039 C 
HETATM   32  C   UNL     1      31.080  44.642  58.048  1.00  0.00     0.009 C 
ENDBRANCH  23  24
ENDBRANCH  22  23
ENDBRANCH   1  22
TORSDOF 9
ENDMDL
MODEL 7
REMARK VINA RESULT:      -8.8      3.927      5.332
REMARK  9 active torsions:
REMARK  status: ('A' for Active; 'I' for Inactive)
REMARK    1  A    between atoms: C_2  and  O_3 
REMARK    2  A    between atoms: O_3  and  C_4 
REMARK    3  A    between atoms: C_4  and  C_5 
REMARK    4  A    between atoms: C_7  and  C_8 
REMARK       I    between atoms: C_8  and  N_9 
REMARK    5  A    between atoms: N_9  and  N_10 
REMARK    6  A    between atoms: N_10  and  C_11 
REMARK    7  A    between atoms: C_11  and  N_12 
REMARK    8  A    between atoms: N_12  and  C_13 
REMARK    9  A    between atoms: C_13  and  C_14 
ROOT
HETATM    1  C   UNL     1      28.071  41.523  51.759  1.00  0.00     0.078 A 
HETATM    2  O   UNL     1      27.060  42.268  51.231  1.00  0.00    -0.307 OA
HETATM    3  C   UNL     1      26.672  41.679  50.055  1.00  0.00     0.145 A 
HETATM    4  C   UNL     1      27.470  40.571  49.825  1.00  0.00     0.045 A 
HETATM    5  C   UNL     1      28.363  40.470  50.921  1.00  0.00     0.038 A 
ENDROOT
BRANCH   3   6
HETATM    6  C   UNL     1      25.563  42.277  49.339  1.00  0.00     0.293 C 
HETATM    7  N   UNL     1      25.680  43.636  49.094  1.00  0.00    -0.262 N 
HETATM    8  H   UNL     1      26.457  44.208  49.404  1.00  0.00     0.190 HD
HETATM    9  O   UNL     1      24.574  41.658  48.940  1.00  0.00    -0.264 OA
BRANCH   7  10
HETATM   10  N   UNL     1      24.695  44.258  48.310  1.00  0.00    -0.274 N 
HETATM   11  H   UNL     1      24.476  43.748  47.456  1.00  0.00     0.189 HD
BRANCH  10  12
HETATM   12  C   UNL     1      23.736  45.057  48.876  1.00  0.00     0.186 C 
HETATM   13  S   UNL     1      22.090  44.765  48.829  1.00  0.00    -0.040 SA
BRANCH  12  14
HETATM   14  N   UNL     1      24.193  46.138  49.573  1.00  0.00    -0.364 N 
HETATM   15  H   UNL     1      25.097  45.985  50.015  1.00  0.00     0.162 HD
BRANCH  14  16
HETATM   16  C   UNL     1      23.889  47.539  49.295  1.00  0.00     0.154 C 
BRANCH  16  17
HETATM   17  C   UNL     1      25.100  48.437  49.540  1.00  0.00     0.139 C 
HETATM   18  O   UNL     1      26.312  47.655  49.578  1.00  0.00    -0.384 OA
HETATM   19  C   UNL     1      27.374  48.451  49.030  1.00  0.00     0.168 C 
HETATM   20  C   UNL     1      26.780  49.782  48.612  1.00  0.00     0.029 C 
HETATM   21  C   UNL     1      25.318  49.456  48.438  1.00  0.00     0.035 C 
ENDBRANCH  16  17
ENDBRANCH  14  16
ENDBRANCH  12  14
ENDBRANCH  10  12
ENDBRANCH   7  10
ENDBRANCH   3   6
BRANCH   1  22
HETATM   22  C   UNL     1      28.613  41.972  53.068  1.00  0.00     0.240 C 
BRANCH  22  23
HETATM   23  O   UNL     1      28.849  43.371  52.943  1.00  0.00    -0.345 OA
BRANCH  23  24
HETATM   24  C   UNL     1      29.143  44.054  54.094  1.00  0.00     0.069 A 
HETATM   25  C   UNL     1      28.524  45.239  54.524  1.00  0.00     0.037 A 
HETATM   26  C   UNL     1      28.927  45.868  55.708  1.00  0.00     0.010 A 
HETATM   27  C   UNL     1      29.939  45.289  56.454  1.00  0.00    -0.052 A 
HETATM   28  C   UNL     1      30.556  44.109  56.031  1.00  0.00    -0.049 A 
HETATM   29  C   UNL     1      30.564  45.793  57.715  1.00  0.00     0.039 C 
HETATM   30  C   UNL     1      30.176  43.490  54.851  1.00  0.00     0.044 A 
HETATM   31  C   UNL     1      31.645  43.707  56.974  1.00  0.00     0.039 C 
HETATM   32  C   UNL     1      31.281  44.532  58.218  1.00  0.00     0.009 C 
ENDBRANCH  23  24
ENDBRANCH  22  23
ENDBRANCH   1  22
TORSDOF 9
ENDMDL
MODEL 8
REMARK VINA RESULT:      -8.7      1.745      2.069
REMARK  9 active torsions:
REMARK  status: ('A' for Active; 'I' for Inactive)
REMARK    1  A    between atoms: C_2  and  O_3 
REMARK    2  A    between atoms: O_3  and  C_4 
REMARK    3  A    between atoms: C_4  and  C_5 
REMARK    4  A    between atoms: C_7  and  C_8 
REMARK       I    between atoms: C_8  and  N_9 
REMARK    5  A    between atoms: N_9  and  N_10 
REMARK    6  A    between atoms: N_10  and  C_11 
REMARK    7  A    between atoms: C_11  and  N_12 
REMARK    8  A    between atoms: N_12  and  C_13 
REMARK    9  A    between atoms: C_13  and  C_14 
ROOT
HETATM    1  C   UNL     1      25.767  46.003  51.329  1.00  0.00     0.078 A 
HETATM    2  O   UNL     1      24.536  45.973  50.743  1.00  0.00    -0.307 OA
HETATM    3  C   UNL     1      24.627  45.204  49.612  1.00  0.00     0.145 A 
HETATM    4  C   UNL     1      25.934  44.773  49.467  1.00  0.00     0.045 A 
HETATM    5  C   UNL     1      26.663  45.282  50.571  1.00  0.00     0.038 A 
ENDROOT
BRANCH   3   6
HETATM    6  C   UNL     1      23.413  44.986  48.850  1.00  0.00     0.293 C 
HETATM    7  N   UNL     1      22.234  45.271  49.520  1.00  0.00    -0.262 N 
HETATM    8  H   UNL     1      22.185  45.583  50.483  1.00  0.00     0.190 HD
HETATM    9  O   UNL     1      23.384  44.594  47.681  1.00  0.00    -0.264 OA
BRANCH   7  10
HETATM   10  N   UNL     1      21.027  45.188  48.807  1.00  0.00    -0.274 N 
HETATM   11  H   UNL     1      20.583  44.273  48.871  1.00  0.00     0.189 HD
BRANCH  10  12
HETATM   12  C   UNL     1      20.250  46.296  48.594  1.00  0.00     0.186 C 
HETATM   13  S   UNL     1      18.798  46.307  47.764  1.00  0.00    -0.040 SA
BRANCH  12  14
HETATM   14  N   UNL     1      20.694  47.456  49.161  1.00  0.00    -0.364 N 
HETATM   15  H   UNL     1      21.040  47.338  50.111  1.00  0.00     0.162 HD
BRANCH  14  16
HETATM   16  C   UNL     1      21.250  48.607  48.457  1.00  0.00     0.154 C 
BRANCH  16  17
HETATM   17  C   UNL     1      20.227  49.733  48.321  1.00  0.00     0.139 C 
HETATM   18  O   UNL     1      19.272  49.683  49.400  1.00  0.00    -0.384 OA
HETATM   19  C   UNL     1      18.886  51.029  49.718  1.00  0.00     0.168 C 
HETATM   20  C   UNL     1      19.662  51.956  48.802  1.00  0.00     0.029 C 
HETATM   21  C   UNL     1      20.848  51.114  48.401  1.00  0.00     0.035 C 
ENDBRANCH  16  17
ENDBRANCH  14  16
ENDBRANCH  12  14
ENDBRANCH  10  12
ENDBRANCH   7  10
ENDBRANCH   3   6
BRANCH   1  22
HETATM   22  C   UNL     1      25.878  46.760  52.603  1.00  0.00     0.240 C 
BRANCH  22  23
HETATM   23  O   UNL     1      25.896  45.787  53.644  1.00  0.00    -0.345 OA
BRANCH  23  24
HETATM   24  C   UNL     1      27.071  45.639  54.333  1.00  0.00     0.069 A 
HETATM   25  C   UNL     1      27.603  46.559  55.250  1.00  0.00     0.037 A 
HETATM   26  C   UNL     1      28.831  46.315  55.878  1.00  0.00     0.010 A 
HETATM   27  C   UNL     1      29.502  45.140  55.585  1.00  0.00    -0.052 A 
HETATM   28  C   UNL     1      28.975  44.221  54.674  1.00  0.00    -0.049 A 
HETATM   29  C   UNL     1      30.835  44.685  56.088  1.00  0.00     0.039 C 
HETATM   30  C   UNL     1      27.769  44.464  54.035  1.00  0.00     0.044 A 
HETATM   31  C   UNL     1      29.899  43.059  54.490  1.00  0.00     0.039 C 
HETATM   32  C   UNL     1      30.794  43.191  55.732  1.00  0.00     0.009 C 
ENDBRANCH  23  24
ENDBRANCH  22  23
ENDBRANCH   1  22
TORSDOF 9
ENDMDL
MODEL 9
REMARK VINA RESULT:      -8.6      2.163      2.952
REMARK  9 active torsions:
REMARK  status: ('A' for Active; 'I' for Inactive)
REMARK    1  A    between atoms: C_2  and  O_3 
REMARK    2  A    between atoms: O_3  and  C_4 
REMARK    3  A    between atoms: C_4  and  C_5 
REMARK    4  A    between atoms: C_7  and  C_8 
REMARK       I    between atoms: C_8  and  N_9 
REMARK    5  A    between atoms: N_9  and  N_10 
REMARK    6  A    between atoms: N_10  and  C_11 
REMARK    7  A    between atoms: C_11  and  N_12 
REMARK    8  A    between atoms: N_12  and  C_13 
REMARK    9  A    between atoms: C_13  and  C_14 
ROOT
HETATM    1  C   UNL     1      26.365  43.715  51.158  1.00  0.00     0.078 A 
HETATM    2  O   UNL     1      25.023  43.472  51.154  1.00  0.00    -0.307 OA
HETATM    3  C   UNL     1      24.471  44.177  50.115  1.00  0.00     0.145 A 
HETATM    4  C   UNL     1      25.470  44.895  49.480  1.00  0.00     0.045 A 
HETATM    5  C   UNL     1      26.684  44.593  50.147  1.00  0.00     0.038 A 
ENDROOT
BRANCH   3   6
HETATM    6  C   UNL     1      23.048  44.027  49.884  1.00  0.00     0.293 C 
HETATM    7  N   UNL     1      22.373  45.196  49.573  1.00  0.00    -0.262 N 
HETATM    8  H   UNL     1      22.805  46.112  49.529  1.00  0.00     0.190 HD
HETATM    9  O   UNL     1      22.442  42.954  49.932  1.00  0.00    -0.264 OA
BRANCH   7  10
HETATM   10  N   UNL     1      21.014  45.108  49.229  1.00  0.00    -0.274 N 
HETATM   11  H   UNL     1      20.482  44.492  49.841  1.00  0.00     0.189 HD
BRANCH  10  12
HETATM   12  C   UNL     1      20.373  46.142  48.597  1.00  0.00     0.186 C 
HETATM   13  S   UNL     1      19.078  45.974  47.552  1.00  0.00    -0.040 SA
BRANCH  12  14
HETATM   14  N   UNL     1      20.812  47.396  48.906  1.00  0.00    -0.364 N 
HETATM   15  H   UNL     1      21.372  47.434  49.755  1.00  0.00     0.162 HD
BRANCH  14  16
HETATM   16  C   UNL     1      21.075  48.478  47.963  1.00  0.00     0.154 C 
BRANCH  16  17
HETATM   17  C   UNL     1      20.102  49.640  48.151  1.00  0.00     0.139 C 
HETATM   18  O   UNL     1      19.370  49.493  49.385  1.00  0.00    -0.384 OA
HETATM   19  C   UNL     1      19.119  50.804  49.915  1.00  0.00     0.168 C 
HETATM   20  C   UNL     1      19.750  51.808  48.970  1.00  0.00     0.029 C 
HETATM   21  C   UNL     1      20.794  50.986  48.257  1.00  0.00     0.035 C 
ENDBRANCH  16  17
ENDBRANCH  14  16
ENDBRANCH  12  14
ENDBRANCH  10  12
ENDBRANCH   7  10
ENDBRANCH   3   6
BRANCH   1  22
HETATM   22  C   UNL     1      27.164  43.008  52.192  1.00  0.00     0.240 C 
BRANCH  22  23
HETATM   23  O   UNL     1      28.478  43.555  52.124  1.00  0.00    -0.345 OA
BRANCH  23  24
HETATM   24  C   UNL     1      29.142  43.720  53.311  1.00  0.00     0.069 A 
HETATM   25  C   UNL     1      30.254  42.976  53.737  1.00  0.00     0.037 A 
HETATM   26  C   UNL     1      30.838  43.215  54.987  1.00  0.00     0.010 A 
HETATM   27  C   UNL     1      30.305  44.210  55.788  1.00  0.00    -0.052 A 
HETATM   28  C   UNL     1      29.201  44.955  55.366  1.00  0.00    -0.049 A 
HETATM   29  C   UNL     1      30.724  44.614  57.166  1.00  0.00     0.039 C 
HETATM   30  C   UNL     1      28.605  44.712  54.139  1.00  0.00     0.044 A 
HETATM   31  C   UNL     1      28.783  45.934  56.417  1.00  0.00     0.039 C 
HETATM   32  C   UNL     1      30.042  45.984  57.296  1.00  0.00     0.009 C 
ENDBRANCH  23  24
ENDBRANCH  22  23
ENDBRANCH   1  22
TORSDOF 9
ENDMDL
MODEL 10
REMARK VINA RESULT:      -8.4      2.610      5.115
REMARK  9 active torsions:
REMARK  status: ('A' for Active; 'I' for Inactive)
REMARK    1  A    between atoms: C_2  and  O_3 
REMARK    2  A    between atoms: O_3  and  C_4 
REMARK    3  A    between atoms: C_4  and  C_5 
REMARK    4  A    between atoms: C_7  and  C_8 
REMARK       I    between atoms: C_8  and  N_9 
REMARK    5  A    between atoms: N_9  and  N_10 
REMARK    6  A    between atoms: N_10  and  C_11 
REMARK    7  A    between atoms: C_11  and  N_12 
REMARK    8  A    between atoms: N_12  and  C_13 
REMARK    9  A    between atoms: C_13  and  C_14 
ROOT
HETATM    1  C   UNL     1      25.469  48.907  49.111  1.00  0.00     0.078 A 
HETATM    2  O   UNL     1      24.172  48.825  49.522  1.00  0.00    -0.307 OA
HETATM    3  C   UNL     1      23.445  49.741  48.806  1.00  0.00     0.145 A 
HETATM    4  C   UNL     1      24.299  50.428  47.960  1.00  0.00     0.045 A 
HETATM    5  C   UNL     1      25.595  49.888  48.153  1.00  0.00     0.038 A 
ENDROOT
BRANCH   3   6
HETATM    6  C   UNL     1      22.015  49.794  49.041  1.00  0.00     0.293 C 
HETATM    7  N   UNL     1      21.452  48.626  49.528  1.00  0.00    -0.262 N 
HETATM    8  H   UNL     1      21.966  47.768  49.693  1.00  0.00     0.190 HD
HETATM    9  O   UNL     1      21.314  50.790  48.852  1.00  0.00    -0.264 OA
BRANCH   7  10
HETATM   10  N   UNL     1      20.093  48.640  49.881  1.00  0.00    -0.274 N 
HETATM   11  H   UNL     1      19.728  49.576  50.049  1.00  0.00     0.189 HD
BRANCH  10  12
HETATM   12  C   UNL     1      19.238  47.655  49.459  1.00  0.00     0.186 C 
HETATM   13  S   UNL     1      17.708  47.912  48.836  1.00  0.00    -0.040 SA
BRANCH  12  14
HETATM   14  N   UNL     1      19.723  46.380  49.512  1.00  0.00    -0.364 N 
HETATM   15  H   UNL     1      19.334  45.828  50.274  1.00  0.00     0.162 HD
BRANCH  14  16
HETATM   16  C   UNL     1      20.207  45.590  48.383  1.00  0.00     0.154 C 
BRANCH  16  17
HETATM   17  C   UNL     1      21.428  44.755  48.764  1.00  0.00     0.139 C 
HETATM   18  O   UNL     1      21.514  43.577  47.935  1.00  0.00    -0.384 OA
HETATM   19  C   UNL     1      22.903  43.278  47.727  1.00  0.00     0.168 C 
HETATM   20  C   UNL     1      23.713  44.340  48.445  1.00  0.00     0.029 C 
HETATM   21  C   UNL     1      22.739  45.488  48.552  1.00  0.00     0.035 C 
ENDBRANCH  16  17
ENDBRANCH  14  16
ENDBRANCH  12  14
ENDBRANCH  10  12
ENDBRANCH   7  10
ENDBRANCH   3   6
BRANCH   1  22
HETATM   22  C   UNL     1      26.426  47.961  49.741  1.00  0.00     0.240 C 
BRANCH  22  23
HETATM   23  O   UNL     1      25.649  46.868  50.223  1.00  0.00    -0.345 OA
BRANCH  23  24
HETATM   24  C   UNL     1      26.320  45.875  50.885  1.00  0.00     0.069 A 
HETATM   25  C   UNL     1      26.945  44.769  50.286  1.00  0.00     0.037 A 
HETATM   26  C   UNL     1      27.582  43.797  51.068  1.00  0.00     0.010 A 
HETATM   27  C   UNL     1      27.594  43.956  52.442  1.00  0.00    -0.052 A 
HETATM   28  C   UNL     1      26.976  45.056  53.042  1.00  0.00    -0.049 A 
HETATM   29  C   UNL     1      28.165  43.038  53.475  1.00  0.00     0.039 C 
HETATM   30  C   UNL     1      26.328  46.013  52.277  1.00  0.00     0.044 A 
HETATM   31  C   UNL     1      27.084  44.984  54.532  1.00  0.00     0.039 C 
HETATM   32  C   UNL     1      28.221  43.964  54.700  1.00  0.00     0.009 C 
ENDBRANCH  23  24
ENDBRANCH  22  23
ENDBRANCH   1  22
TORSDOF 9
ENDMDL
