MODEL 1
REMARK VINA RESULT:      -8.8      0.000      0.000
REMARK  4 active torsions:
REMARK  status: ('A' for Active; 'I' for Inactive)
REMARK    1  A    between atoms: N_2  and  C_3 
REMARK    2  A    between atoms: C_5  and  C_6 
REMARK    3  A    between atoms: C_6  and  C_7 
REMARK    4  A    between atoms: C_14  and  O_15 
ROOT
HETATM    1  C   UNL     1      23.901  47.754  49.684  1.00  0.00     0.113 A 
HETATM    2  N   UNL     1      24.464  46.860  50.521  1.00  0.00    -0.223 NA
HETATM    3  C   UNL     1      25.812  46.892  50.696  1.00  0.00     0.106 A 
HETATM    4  N   UNL     1      26.619  47.761  50.064  1.00  0.00    -0.347 N 
HETATM    5  H   UNL     1      27.630  47.704  50.198  1.00  0.00     0.167 HD
HETATM    6  C   UNL     1      26.063  48.652  49.249  1.00  0.00     0.020 A 
HETATM    7  C   UNL     1      24.695  48.678  49.042  1.00  0.00     0.005 A 
HETATM    8  C   UNL     1      24.332  49.757  48.073  1.00  0.00     0.044 C 
HETATM    9  C   UNL     1      25.611  50.616  48.086  1.00  0.00     0.011 C 
HETATM   10  C   UNL     1      26.779  49.680  48.433  1.00  0.00     0.058 C 
ENDROOT
BRANCH   3  11
HETATM   11  C   UNL     1      26.436  45.875  51.605  1.00  0.00     0.085 C 
BRANCH  11  12
HETATM   12  C   UNL     1      25.738  45.764  52.981  1.00  0.00     0.021 C 
HETATM   13  C   UNL     1      25.520  44.324  53.448  1.00  0.00     0.181 C 
HETATM   14  O   UNL     1      26.751  43.590  53.354  1.00  0.00    -0.350 OA
HETATM   15  C   UNL     1      27.744  44.164  54.121  1.00  0.00     0.077 A 
HETATM   16  C   UNL     1      27.737  45.526  54.465  1.00  0.00    -0.024 A 
HETATM   17  C   UNL     1      28.801  43.334  54.501  1.00  0.00     0.074 A 
HETATM   18  C   UNL     1      26.605  46.436  54.054  1.00  0.00     0.048 C 
HETATM   19  C   UNL     1      28.791  46.038  55.226  1.00  0.00     0.012 A 
HETATM   20  C   UNL     1      29.841  45.204  55.613  1.00  0.00     0.037 A 
HETATM   21  C   UNL     1      29.852  43.853  55.258  1.00  0.00     0.070 A 
BRANCH  21  22
HETATM   22  O   UNL     1      30.943  43.161  55.703  1.00  0.00    -0.356 OA
HETATM   23  C   UNL     1      31.430  43.475  57.001  1.00  0.00     0.210 C 
ENDBRANCH  21  22
ENDBRANCH  11  12
ENDBRANCH   3  11
BRANCH   1  24
HETATM   24  N   UNL     1      22.520  47.805  49.531  1.00  0.00    -0.281 NA
HETATM   25  C   UNL     1      21.960  47.003  48.453  1.00  0.00     0.114 C 
HETATM   26  H   UNL     1      22.170  48.760  49.513  1.00  0.00     0.128 HD
ENDBRANCH   1  24
TORSDOF 4
ENDMDL
MODEL 2
REMARK VINA RESULT:      -8.5      1.001      2.396
REMARK  4 active torsions:
REMARK  status: ('A' for Active; 'I' for Inactive)
REMARK    1  A    between atoms: N_2  and  C_3 
REMARK    2  A    between atoms: C_5  and  C_6 
REMARK    3  A    between atoms: C_6  and  C_7 
REMARK    4  A    between atoms: C_14  and  O_15 
ROOT
HETATM    1  C   UNL     1      23.958  48.143  49.734  1.00  0.00     0.113 A 
HETATM    2  N   UNL     1      24.888  47.862  50.667  1.00  0.00    -0.223 NA
HETATM    3  C   UNL     1      25.157  46.560  50.947  1.00  0.00     0.106 A 
HETATM    4  N   UNL     1      24.528  45.532  50.353  1.00  0.00    -0.347 N 
HETATM    5  H   UNL     1      24.737  44.574  50.641  1.00  0.00     0.167 HD
HETATM    6  C   UNL     1      23.619  45.807  49.422  1.00  0.00     0.020 A 
HETATM    7  C   UNL     1      23.315  47.114  49.084  1.00  0.00     0.005 A 
HETATM    8  C   UNL     1      22.254  47.148  48.031  1.00  0.00     0.044 C 
HETATM    9  C   UNL     1      22.302  45.700  47.507  1.00  0.00     0.011 C 
HETATM   10  C   UNL     1      22.791  44.818  48.667  1.00  0.00     0.058 C 
ENDROOT
BRANCH   3  11
HETATM   11  C   UNL     1      26.172  46.254  52.009  1.00  0.00     0.085 C 
BRANCH  11  12
HETATM   12  C   UNL     1      25.546  45.933  53.388  1.00  0.00     0.021 C 
HETATM   13  C   UNL     1      25.444  44.436  53.685  1.00  0.00     0.181 C 
HETATM   14  O   UNL     1      26.713  43.806  53.455  1.00  0.00    -0.350 OA
HETATM   15  C   UNL     1      27.701  44.353  54.248  1.00  0.00     0.077 A 
HETATM   16  C   UNL     1      27.623  45.661  54.754  1.00  0.00    -0.024 A 
HETATM   17  C   UNL     1      28.826  43.558  54.484  1.00  0.00     0.074 A 
HETATM   18  C   UNL     1      26.418  46.532  54.499  1.00  0.00     0.048 C 
HETATM   19  C   UNL     1      28.677  46.150  55.530  1.00  0.00     0.012 A 
HETATM   20  C   UNL     1      29.794  45.352  55.773  1.00  0.00     0.037 A 
HETATM   21  C   UNL     1      29.875  44.056  55.258  1.00  0.00     0.070 A 
BRANCH  21  22
HETATM   22  O   UNL     1      31.028  43.393  55.574  1.00  0.00    -0.356 OA
HETATM   23  C   UNL     1      31.401  43.350  56.944  1.00  0.00     0.210 C 
ENDBRANCH  21  22
ENDBRANCH  11  12
ENDBRANCH   3  11
BRANCH   1  24
HETATM   24  N   UNL     1      23.704  49.459  49.365  1.00  0.00    -0.281 NA
HETATM   25  C   UNL     1      24.592  50.032  48.364  1.00  0.00     0.114 C 
HETATM   26  H   UNL     1      23.599  50.071  50.171  1.00  0.00     0.128 HD
ENDBRANCH   1  24
TORSDOF 4
ENDMDL
MODEL 3
REMARK VINA RESULT:      -8.4      2.965      7.579
REMARK  4 active torsions:
REMARK  status: ('A' for Active; 'I' for Inactive)
REMARK    1  A    between atoms: N_2  and  C_3 
REMARK    2  A    between atoms: C_5  and  C_6 
REMARK    3  A    between atoms: C_6  and  C_7 
REMARK    4  A    between atoms: C_14  and  O_15 
ROOT
HETATM    1  C   UNL     1      27.849  45.888  54.799  1.00  0.00     0.113 A 
HETATM    2  N   UNL     1      26.829  45.546  53.987  1.00  0.00    -0.223 NA
HETATM    3  C   UNL     1      26.897  44.364  53.319  1.00  0.00     0.106 A 
HETATM    4  N   UNL     1      27.940  43.522  53.412  1.00  0.00    -0.347 N 
HETATM    5  H   UNL     1      27.957  42.670  52.847  1.00  0.00     0.167 HD
HETATM    6  C   UNL     1      28.941  43.851  54.223  1.00  0.00     0.020 A 
HETATM    7  C   UNL     1      28.920  45.035  54.940  1.00  0.00     0.005 A 
HETATM    8  C   UNL     1      30.165  45.173  55.756  1.00  0.00     0.044 C 
HETATM    9  C   UNL     1      30.695  43.727  55.746  1.00  0.00     0.011 C 
HETATM   10  C   UNL     1      30.198  43.074  54.447  1.00  0.00     0.058 C 
ENDROOT
BRANCH   3  11
HETATM   11  C   UNL     1      25.773  44.003  52.393  1.00  0.00     0.085 C 
BRANCH  11  12
HETATM   12  C   UNL     1      26.227  43.769  50.932  1.00  0.00     0.021 C 
HETATM   13  C   UNL     1      25.069  43.584  49.950  1.00  0.00     0.181 C 
HETATM   14  O   UNL     1      24.121  44.652  50.107  1.00  0.00    -0.350 OA
HETATM   15  C   UNL     1      24.704  45.883  49.885  1.00  0.00     0.077 A 
HETATM   16  C   UNL     1      26.080  46.106  50.053  1.00  0.00    -0.024 A 
HETATM   17  C   UNL     1      23.844  46.928  49.537  1.00  0.00     0.074 A 
HETATM   18  C   UNL     1      27.017  44.988  50.438  1.00  0.00     0.048 C 
HETATM   19  C   UNL     1      26.590  47.388  49.833  1.00  0.00     0.012 A 
HETATM   20  C   UNL     1      25.732  48.428  49.474  1.00  0.00     0.037 A 
HETATM   21  C   UNL     1      24.361  48.206  49.321  1.00  0.00     0.070 A 
BRANCH  21  22
HETATM   22  O   UNL     1      23.645  49.316  48.971  1.00  0.00    -0.356 OA
HETATM   23  C   UNL     1      24.202  50.167  47.979  1.00  0.00     0.210 C 
ENDBRANCH  21  22
ENDBRANCH  11  12
ENDBRANCH   3  11
BRANCH   1  24
HETATM   24  N   UNL     1      27.787  47.052  55.556  1.00  0.00    -0.281 NA
HETATM   25  C   UNL     1      26.626  47.902  55.341  1.00  0.00     0.114 C 
HETATM   26  H   UNL     1      28.655  47.582  55.518  1.00  0.00     0.128 HD
ENDBRANCH   1  24
TORSDOF 4
ENDMDL
MODEL 4
REMARK VINA RESULT:      -8.2      5.014      9.759
REMARK  4 active torsions:
REMARK  status: ('A' for Active; 'I' for Inactive)
REMARK    1  A    between atoms: N_2  and  C_3 
REMARK    2  A    between atoms: C_5  and  C_6 
REMARK    3  A    between atoms: C_6  and  C_7 
REMARK    4  A    between atoms: C_14  and  O_15 
ROOT
HETATM    1  C   UNL     1      26.079  47.939  49.558  1.00  0.00     0.113 A 
HETATM    2  N   UNL     1      24.979  48.716  49.503  1.00  0.00    -0.223 NA
HETATM    3  C   UNL     1      23.759  48.124  49.589  1.00  0.00     0.106 A 
HETATM    4  N   UNL     1      23.589  46.796  49.709  1.00  0.00    -0.347 N 
HETATM    5  H   UNL     1      22.645  46.404  49.719  1.00  0.00     0.167 HD
HETATM    6  C   UNL     1      24.673  46.030  49.776  1.00  0.00     0.020 A 
HETATM    7  C   UNL     1      25.942  46.578  49.710  1.00  0.00     0.005 A 
HETATM    8  C   UNL     1      26.980  45.505  49.790  1.00  0.00     0.044 C 
HETATM    9  C   UNL     1      26.154  44.327  50.342  1.00  0.00     0.011 C 
HETATM   10  C   UNL     1      24.703  44.539  49.881  1.00  0.00     0.058 C 
ENDROOT
BRANCH   3  11
HETATM   11  C   UNL     1      22.538  48.991  49.497  1.00  0.00     0.085 C 
BRANCH  11  12
HETATM   12  C   UNL     1      21.883  48.989  48.095  1.00  0.00     0.021 C 
HETATM   13  C   UNL     1      20.613  48.139  48.009  1.00  0.00     0.181 C 
HETATM   14  O   UNL     1      19.718  48.493  49.074  1.00  0.00    -0.350 OA
HETATM   15  C   UNL     1      19.369  49.827  49.021  1.00  0.00     0.077 A 
HETATM   16  C   UNL     1      20.181  50.794  48.407  1.00  0.00    -0.024 A 
HETATM   17  C   UNL     1      18.182  50.189  49.664  1.00  0.00     0.074 A 
HETATM   18  C   UNL     1      21.469  50.417  47.718  1.00  0.00     0.048 C 
HETATM   19  C   UNL     1      19.768  52.129  48.416  1.00  0.00     0.012 A 
HETATM   20  C   UNL     1      18.578  52.487  49.049  1.00  0.00     0.037 A 
HETATM   21  C   UNL     1      17.778  51.524  49.671  1.00  0.00     0.070 A 
BRANCH  21  22
HETATM   22  O   UNL     1      16.645  52.021  50.251  1.00  0.00    -0.356 OA
HETATM   23  C   UNL     1      15.466  52.054  49.459  1.00  0.00     0.210 C 
ENDBRANCH  21  22
ENDBRANCH  11  12
ENDBRANCH   3  11
BRANCH   1  24
HETATM   24  N   UNL     1      27.346  48.510  49.547  1.00  0.00    -0.281 NA
HETATM   25  C   UNL     1      27.490  49.752  48.802  1.00  0.00     0.114 C 
HETATM   26  H   UNL     1      28.069  47.836  49.301  1.00  0.00     0.128 HD
ENDBRANCH   1  24
TORSDOF 4
ENDMDL
MODEL 5
REMARK VINA RESULT:      -8.2      3.121      7.987
REMARK  4 active torsions:
REMARK  status: ('A' for Active; 'I' for Inactive)
REMARK    1  A    between atoms: N_2  and  C_3 
REMARK    2  A    between atoms: C_5  and  C_6 
REMARK    3  A    between atoms: C_6  and  C_7 
REMARK    4  A    between atoms: C_14  and  O_15 
ROOT
HETATM    1  C   UNL     1      28.792  43.384  53.456  1.00  0.00     0.113 A 
HETATM    2  N   UNL     1      27.759  43.750  52.672  1.00  0.00    -0.223 NA
HETATM    3  C   UNL     1      27.094  44.899  52.967  1.00  0.00     0.106 A 
HETATM    4  N   UNL     1      27.403  45.683  54.013  1.00  0.00    -0.347 N 
HETATM    5  H   UNL     1      26.835  46.509  54.213  1.00  0.00     0.167 HD
HETATM    6  C   UNL     1      28.430  45.330  54.779  1.00  0.00     0.020 A 
HETATM    7  C   UNL     1      29.154  44.179  54.519  1.00  0.00     0.005 A 
HETATM    8  C   UNL     1      30.238  44.003  55.534  1.00  0.00     0.044 C 
HETATM    9  C   UNL     1      30.313  45.416  56.144  1.00  0.00     0.011 C 
HETATM   10  C   UNL     1      28.917  46.043  55.999  1.00  0.00     0.058 C 
ENDROOT
BRANCH   3  11
HETATM   11  C   UNL     1      25.925  45.286  52.109  1.00  0.00     0.085 C 
BRANCH  11  12
HETATM   12  C   UNL     1      26.095  44.895  50.621  1.00  0.00     0.021 C 
HETATM   13  C   UNL     1      24.775  44.809  49.853  1.00  0.00     0.181 C 
HETATM   14  O   UNL     1      24.010  46.007  50.062  1.00  0.00    -0.350 OA
HETATM   15  C   UNL     1      24.700  47.127  49.645  1.00  0.00     0.077 A 
HETATM   16  C   UNL     1      26.102  47.166  49.574  1.00  0.00    -0.024 A 
HETATM   17  C   UNL     1      23.934  48.257  49.345  1.00  0.00     0.074 A 
HETATM   18  C   UNL     1      26.940  45.955  49.904  1.00  0.00     0.048 C 
HETATM   19  C   UNL     1      26.727  48.347  49.164  1.00  0.00     0.012 A 
HETATM   20  C   UNL     1      25.960  49.470  48.855  1.00  0.00     0.037 A 
HETATM   21  C   UNL     1      24.566  49.433  48.939  1.00  0.00     0.070 A 
BRANCH  21  22
HETATM   22  O   UNL     1      23.950  50.607  48.609  1.00  0.00    -0.356 OA
HETATM   23  C   UNL     1      22.628  50.528  48.094  1.00  0.00     0.210 C 
ENDBRANCH  21  22
ENDBRANCH  11  12
ENDBRANCH   3  11
BRANCH   1  24
HETATM   24  N   UNL     1      29.545  42.256  53.149  1.00  0.00    -0.281 NA
HETATM   25  C   UNL     1      28.811  41.007  53.011  1.00  0.00     0.114 C 
HETATM   26  H   UNL     1      30.352  42.154  53.760  1.00  0.00     0.128 HD
ENDBRANCH   1  24
TORSDOF 4
ENDMDL
MODEL 6
REMARK VINA RESULT:      -8.1      3.951      7.979
REMARK  4 active torsions:
REMARK  status: ('A' for Active; 'I' for Inactive)
REMARK    1  A    between atoms: N_2  and  C_3 
REMARK    2  A    between atoms: C_5  and  C_6 
REMARK    3  A    between atoms: C_6  and  C_7 
REMARK    4  A    between atoms: C_14  and  O_15 
ROOT
HETATM    1  C   UNL     1      29.110  45.635  55.482  1.00  0.00     0.113 A 
HETATM    2  N   UNL     1      28.999  44.870  54.378  1.00  0.00    -0.223 NA
HETATM    3  C   UNL     1      29.795  43.775  54.262  1.00  0.00     0.106 A 
HETATM    4  N   UNL     1      30.704  43.421  55.186  1.00  0.00    -0.347 N 
HETATM    5  H   UNL     1      31.309  42.614  55.020  1.00  0.00     0.167 HD
HETATM    6  C   UNL     1      30.806  44.167  56.282  1.00  0.00     0.020 A 
HETATM    7  C   UNL     1      30.011  45.285  56.463  1.00  0.00     0.005 A 
HETATM    8  C   UNL     1      30.334  45.953  57.761  1.00  0.00     0.044 C 
HETATM    9  C   UNL     1      31.105  44.836  58.490  1.00  0.00     0.011 C 
HETATM   10  C   UNL     1      31.765  43.965  57.410  1.00  0.00     0.058 C 
ENDROOT
BRANCH   3  11
HETATM   11  C   UNL     1      29.688  42.945  53.016  1.00  0.00     0.085 C 
BRANCH  11  12
HETATM   12  C   UNL     1      28.867  41.647  53.208  1.00  0.00     0.021 C 
HETATM   13  C   UNL     1      27.446  41.886  53.720  1.00  0.00     0.181 C 
HETATM   14  O   UNL     1      26.796  42.877  52.908  1.00  0.00    -0.350 OA
HETATM   15  C   UNL     1      26.736  42.489  51.585  1.00  0.00     0.077 A 
HETATM   16  C   UNL     1      27.648  41.578  51.026  1.00  0.00    -0.024 A 
HETATM   17  C   UNL     1      25.750  43.092  50.800  1.00  0.00     0.074 A 
HETATM   18  C   UNL     1      28.722  40.927  51.861  1.00  0.00     0.048 C 
HETATM   19  C   UNL     1      27.535  41.254  49.671  1.00  0.00     0.012 A 
HETATM   20  C   UNL     1      26.543  41.849  48.891  1.00  0.00     0.037 A 
HETATM   21  C   UNL     1      25.646  42.765  49.448  1.00  0.00     0.070 A 
BRANCH  21  22
HETATM   22  O   UNL     1      24.733  43.268  48.565  1.00  0.00    -0.356 OA
HETATM   23  C   UNL     1      24.247  44.581  48.805  1.00  0.00     0.210 C 
ENDBRANCH  21  22
ENDBRANCH  11  12
ENDBRANCH   3  11
BRANCH   1  24
HETATM   24  N   UNL     1      28.265  46.722  55.675  1.00  0.00    -0.281 NA
HETATM   25  C   UNL     1      27.312  46.997  54.611  1.00  0.00     0.114 C 
HETATM   26  H   UNL     1      28.774  47.559  55.952  1.00  0.00     0.128 HD
ENDBRANCH   1  24
TORSDOF 4
ENDMDL
MODEL 7
REMARK VINA RESULT:      -8.1      4.870      8.242
REMARK  4 active torsions:
REMARK  status: ('A' for Active; 'I' for Inactive)
REMARK    1  A    between atoms: N_2  and  C_3 
REMARK    2  A    between atoms: C_5  and  C_6 
REMARK    3  A    between atoms: C_6  and  C_7 
REMARK    4  A    between atoms: C_14  and  O_15 
ROOT
HETATM    1  C   UNL     1      29.119  45.392  55.208  1.00  0.00     0.113 A 
HETATM    2  N   UNL     1      28.978  44.550  54.166  1.00  0.00    -0.223 NA
HETATM    3  C   UNL     1      29.739  43.424  54.131  1.00  0.00     0.106 A 
HETATM    4  N   UNL     1      30.641  43.113  55.077  1.00  0.00    -0.347 N 
HETATM    5  H   UNL     1      31.219  42.277  54.971  1.00  0.00     0.167 HD
HETATM    6  C   UNL     1      30.772  43.936  56.113  1.00  0.00     0.020 A 
HETATM    7  C   UNL     1      30.013  45.090  56.210  1.00  0.00     0.005 A 
HETATM    8  C   UNL     1      30.364  45.843  57.453  1.00  0.00     0.044 C 
HETATM    9  C   UNL     1      31.103  44.761  58.263  1.00  0.00     0.011 C 
HETATM   10  C   UNL     1      31.730  43.790  57.250  1.00  0.00     0.058 C 
ENDROOT
BRANCH   3  11
HETATM   11  C   UNL     1      29.599  42.506  52.952  1.00  0.00     0.085 C 
BRANCH  11  12
HETATM   12  C   UNL     1      28.506  41.426  53.137  1.00  0.00     0.021 C 
HETATM   13  C   UNL     1      27.105  41.895  52.740  1.00  0.00     0.181 C 
HETATM   14  O   UNL     1      27.139  42.478  51.428  1.00  0.00    -0.350 OA
HETATM   15  C   UNL     1      27.594  41.578  50.485  1.00  0.00     0.077 A 
HETATM   16  C   UNL     1      28.422  40.493  50.818  1.00  0.00    -0.024 A 
HETATM   17  C   UNL     1      27.237  41.829  49.158  1.00  0.00     0.074 A 
HETATM   18  C   UNL     1      28.822  40.218  52.246  1.00  0.00     0.048 C 
HETATM   19  C   UNL     1      28.861  39.641  49.801  1.00  0.00     0.012 A 
HETATM   20  C   UNL     1      28.495  39.886  48.478  1.00  0.00     0.037 A 
HETATM   21  C   UNL     1      27.682  40.974  48.149  1.00  0.00     0.070 A 
BRANCH  21  22
HETATM   22  O   UNL     1      27.408  41.091  46.815  1.00  0.00    -0.356 OA
HETATM   23  C   UNL     1      26.361  40.287  46.290  1.00  0.00     0.210 C 
ENDBRANCH  21  22
ENDBRANCH  11  12
ENDBRANCH   3  11
BRANCH   1  24
HETATM   24  N   UNL     1      28.310  46.517  55.320  1.00  0.00    -0.281 NA
HETATM   25  C   UNL     1      27.015  46.450  54.660  1.00  0.00     0.114 C 
HETATM   26  H   UNL     1      28.808  47.374  55.087  1.00  0.00     0.128 HD
ENDBRANCH   1  24
TORSDOF 4
ENDMDL
MODEL 8
REMARK VINA RESULT:      -7.9      3.750      7.953
REMARK  4 active torsions:
REMARK  status: ('A' for Active; 'I' for Inactive)
REMARK    1  A    between atoms: N_2  and  C_3 
REMARK    2  A    between atoms: C_5  and  C_6 
REMARK    3  A    between atoms: C_6  and  C_7 
REMARK    4  A    between atoms: C_14  and  O_15 
ROOT
HETATM    1  C   UNL     1      28.517  45.514  55.446  1.00  0.00     0.113 A 
HETATM    2  N   UNL     1      27.797  44.802  54.556  1.00  0.00    -0.223 NA
HETATM    3  C   UNL     1      28.227  43.558  54.218  1.00  0.00     0.106 A 
HETATM    4  N   UNL     1      29.346  43.003  54.713  1.00  0.00    -0.347 N 
HETATM    5  H   UNL     1      29.645  42.083  54.384  1.00  0.00     0.167 HD
HETATM    6  C   UNL     1      30.050  43.698  55.601  1.00  0.00     0.020 A 
HETATM    7  C   UNL     1      29.653  44.965  55.995  1.00  0.00     0.005 A 
HETATM    8  C   UNL     1      30.622  45.533  56.982  1.00  0.00     0.044 C 
HETATM    9  C   UNL     1      31.381  44.267  57.423  1.00  0.00     0.011 C 
HETATM   10  C   UNL     1      31.331  43.279  56.247  1.00  0.00     0.058 C 
ENDROOT
BRANCH   3  11
HETATM   11  C   UNL     1      27.438  42.782  53.204  1.00  0.00     0.085 C 
BRANCH  11  12
HETATM   12  C   UNL     1      27.942  42.971  51.754  1.00  0.00     0.021 C 
HETATM   13  C   UNL     1      27.490  41.867  50.796  1.00  0.00     0.181 C 
HETATM   14  O   UNL     1      26.071  41.678  50.904  1.00  0.00    -0.350 OA
HETATM   15  C   UNL     1      25.382  42.837  50.609  1.00  0.00     0.077 A 
HETATM   16  C   UNL     1      25.956  44.111  50.749  1.00  0.00    -0.024 A 
HETATM   17  C   UNL     1      24.050  42.689  50.213  1.00  0.00     0.074 A 
HETATM   18  C   UNL     1      27.390  44.284  51.184  1.00  0.00     0.048 C 
HETATM   19  C   UNL     1      25.184  45.237  50.452  1.00  0.00     0.012 A 
HETATM   20  C   UNL     1      23.858  45.087  50.046  1.00  0.00     0.037 A 
HETATM   21  C   UNL     1      23.285  43.819  49.921  1.00  0.00     0.070 A 
BRANCH  21  22
HETATM   22  O   UNL     1      21.980  43.826  49.518  1.00  0.00    -0.356 OA
HETATM   23  C   UNL     1      21.609  44.766  48.520  1.00  0.00     0.210 C 
ENDBRANCH  21  22
ENDBRANCH  11  12
ENDBRANCH   3  11
BRANCH   1  24
HETATM   24  N   UNL     1      28.075  46.761  55.874  1.00  0.00    -0.281 NA
HETATM   25  C   UNL     1      27.683  47.700  54.833  1.00  0.00     0.114 C 
HETATM   26  H   UNL     1      28.712  47.185  56.545  1.00  0.00     0.128 HD
ENDBRANCH   1  24
TORSDOF 4
ENDMDL
MODEL 9
REMARK VINA RESULT:      -7.8      1.902      3.179
REMARK  4 active torsions:
REMARK  status: ('A' for Active; 'I' for Inactive)
REMARK    1  A    between atoms: N_2  and  C_3 
REMARK    2  A    between atoms: C_5  and  C_6 
REMARK    3  A    between atoms: C_6  and  C_7 
REMARK    4  A    between atoms: C_14  and  O_15 
ROOT
HETATM    1  C   UNL     1      25.949  47.116  49.929  1.00  0.00     0.113 A 
HETATM    2  N   UNL     1      26.677  45.988  50.043  1.00  0.00    -0.223 NA
HETATM    3  C   UNL     1      26.091  44.801  49.734  1.00  0.00     0.106 A 
HETATM    4  N   UNL     1      24.813  44.690  49.334  1.00  0.00    -0.347 N 
HETATM    5  H   UNL     1      24.412  43.766  49.163  1.00  0.00     0.167 HD
HETATM    6  C   UNL     1      24.097  45.803  49.207  1.00  0.00     0.020 A 
HETATM    7  C   UNL     1      24.645  47.042  49.494  1.00  0.00     0.005 A 
HETATM    8  C   UNL     1      23.631  48.122  49.289  1.00  0.00     0.044 C 
HETATM    9  C   UNL     1      22.575  47.388  48.441  1.00  0.00     0.011 C 
HETATM   10  C   UNL     1      22.661  45.898  48.807  1.00  0.00     0.058 C 
ENDROOT
BRANCH   3  11
HETATM   11  C   UNL     1      26.897  43.545  49.893  1.00  0.00     0.085 C 
BRANCH  11  12
HETATM   12  C   UNL     1      26.304  42.558  50.926  1.00  0.00     0.021 C 
HETATM   13  C   UNL     1      27.168  41.316  51.157  1.00  0.00     0.181 C 
HETATM   14  O   UNL     1      28.522  41.707  51.428  1.00  0.00    -0.350 OA
HETATM   15  C   UNL     1      28.602  42.521  52.541  1.00  0.00     0.077 A 
HETATM   16  C   UNL     1      27.520  43.300  52.982  1.00  0.00    -0.024 A 
HETATM   17  C   UNL     1      29.840  42.580  53.186  1.00  0.00     0.074 A 
HETATM   18  C   UNL     1      26.181  43.252  52.289  1.00  0.00     0.048 C 
HETATM   19  C   UNL     1      27.687  44.116  54.104  1.00  0.00     0.012 A 
HETATM   20  C   UNL     1      28.921  44.166  54.753  1.00  0.00     0.037 A 
HETATM   21  C   UNL     1      29.999  43.399  54.303  1.00  0.00     0.070 A 
BRANCH  21  22
HETATM   22  O   UNL     1      31.143  43.551  55.034  1.00  0.00    -0.356 OA
HETATM   23  C   UNL     1      31.059  43.324  56.434  1.00  0.00     0.210 C 
ENDBRANCH  21  22
ENDBRANCH  11  12
ENDBRANCH   3  11
BRANCH   1  24
HETATM   24  N   UNL     1      26.530  48.357  50.165  1.00  0.00    -0.281 NA
HETATM   25  C   UNL     1      27.460  48.838  49.155  1.00  0.00     0.114 C 
HETATM   26  H   UNL     1      26.921  48.426  51.102  1.00  0.00     0.128 HD
ENDBRANCH   1  24
TORSDOF 4
ENDMDL
MODEL 10
REMARK VINA RESULT:      -7.8      3.880      7.906
REMARK  4 active torsions:
REMARK  status: ('A' for Active; 'I' for Inactive)
REMARK    1  A    between atoms: N_2  and  C_3 
REMARK    2  A    between atoms: C_5  and  C_6 
REMARK    3  A    between atoms: C_6  and  C_7 
REMARK    4  A    between atoms: C_14  and  O_15 
ROOT
HETATM    1  C   UNL     1      28.096  45.919  55.026  1.00  0.00     0.113 A 
HETATM    2  N   UNL     1      27.295  45.423  54.063  1.00  0.00    -0.223 NA
HETATM    3  C   UNL     1      27.639  44.250  53.469  1.00  0.00     0.106 A 
HETATM    4  N   UNL     1      28.751  43.563  53.780  1.00  0.00    -0.347 N 
HETATM    5  H   UNL     1      28.983  42.712  53.265  1.00  0.00     0.167 HD
HETATM    6  C   UNL     1      29.536  44.044  54.739  1.00  0.00     0.020 A 
HETATM    7  C   UNL     1      29.229  45.226  55.390  1.00  0.00     0.005 A 
HETATM    8  C   UNL     1      30.276  45.552  56.406  1.00  0.00     0.044 C 
HETATM    9  C   UNL     1      30.988  44.193  56.552  1.00  0.00     0.011 C 
HETATM   10  C   UNL     1      30.824  43.454  55.215  1.00  0.00     0.058 C 
ENDROOT
BRANCH   3  11
HETATM   11  C   UNL     1      26.758  43.719  52.376  1.00  0.00     0.085 C 
BRANCH  11  12
HETATM   12  C   UNL     1      26.287  44.805  51.380  1.00  0.00     0.021 C 
HETATM   13  C   UNL     1      26.982  44.736  50.019  1.00  0.00     0.181 C 
HETATM   14  O   UNL     1      26.912  43.397  49.504  1.00  0.00    -0.350 OA
HETATM   15  C   UNL     1      25.606  42.976  49.362  1.00  0.00     0.077 A 
HETATM   16  C   UNL     1      24.554  43.516  50.120  1.00  0.00    -0.024 A 
HETATM   17  C   UNL     1      25.379  41.934  48.459  1.00  0.00     0.074 A 
HETATM   18  C   UNL     1      24.788  44.635  51.105  1.00  0.00     0.048 C 
HETATM   19  C   UNL     1      23.262  43.019  49.934  1.00  0.00     0.012 A 
HETATM   20  C   UNL     1      23.035  41.986  49.024  1.00  0.00     0.037 A 
HETATM   21  C   UNL     1      24.086  41.442  48.281  1.00  0.00     0.070 A 
BRANCH  21  22
HETATM   22  O   UNL     1      23.716  40.436  47.433  1.00  0.00    -0.356 OA
HETATM   23  C   UNL     1      22.334  40.317  47.125  1.00  0.00     0.210 C 
ENDBRANCH  21  22
ENDBRANCH  11  12
ENDBRANCH   3  11
BRANCH   1  24
HETATM   24  N   UNL     1      27.745  47.078  55.709  1.00  0.00    -0.281 NA
HETATM   25  C   UNL     1      26.673  47.872  55.126  1.00  0.00     0.114 C 
HETATM   26  H   UNL     1      28.555  47.648  55.941  1.00  0.00     0.128 HD
ENDBRANCH   1  24
TORSDOF 4
ENDMDL
