MODEL 1
REMARK VINA RESULT:     -10.1      0.000      0.000
REMARK  3 active torsions:
REMARK  status: ('A' for Active; 'I' for Inactive)
REMARK    1  A    between atoms: C_9  and  C_10 
REMARK       I    between atoms: C_10  and  N_11 
REMARK    2  A    between atoms: N_11  and  C_12 
REMARK    3  A    between atoms: C_12  and  C_13 
ROOT
HETATM    1  C   UNL     1      26.528  44.585  50.403  1.00  0.00     0.273 C 
HETATM    2  N   UNL     1      26.760  44.436  51.752  1.00  0.00    -0.347 N 
HETATM    3  O   UNL     1      27.168  43.998  49.535  1.00  0.00    -0.266 OA
HETATM    4  H   UNL     1      26.223  45.055  52.352  1.00  0.00     0.163 HD
ENDROOT
BRANCH   2   5
HETATM    5  C   UNL     1      27.818  43.611  52.288  1.00  0.00     0.114 C 
HETATM    6  C   UNL     1      27.319  42.180  52.499  1.00  0.00     0.037 C 
BRANCH   5   7
HETATM    7  C   UNL     1      28.383  44.208  53.565  1.00  0.00    -0.034 A 
HETATM    8  C   UNL     1      29.467  43.583  54.203  1.00  0.00     0.041 A 
HETATM    9  C   UNL     1      29.974  44.091  55.401  1.00  0.00     0.069 A 
HETATM   10  C   UNL     1      29.421  45.239  55.970  1.00  0.00     0.096 A 
HETATM   11  N   UNL     1      31.051  43.454  56.015  1.00  0.00    -0.323 N 
HETATM   12  O   UNL     1      29.880  45.814  57.122  1.00  0.00    -0.340 OA
HETATM   13  C   UNL     1      28.371  45.891  55.326  1.00  0.00     0.040 A 
HETATM   14  C   UNL     1      30.734  44.984  57.895  1.00  0.00     0.278 C 
HETATM   15  C   UNL     1      31.530  43.863  57.227  1.00  0.00     0.246 C 
HETATM   16  O   UNL     1      32.490  43.312  57.759  1.00  0.00    -0.271 OA
HETATM   17  C   UNL     1      27.852  45.378  54.134  1.00  0.00     0.012 A 
HETATM   18  H   UNL     1      31.516  42.671  55.574  1.00  0.00     0.169 HD
ENDBRANCH   5   7
ENDBRANCH   2   5
BRANCH   1  19
HETATM   19  C   UNL     1      25.413  45.502  50.114  1.00  0.00     0.157 A 
HETATM   20  C   UNL     1      25.493  46.862  49.690  1.00  0.00     0.029 A 
HETATM   21  C   UNL     1      26.525  47.786  49.429  1.00  0.00     0.023 A 
HETATM   22  C   UNL     1      24.175  47.265  49.515  1.00  0.00     0.063 A 
HETATM   23  C   UNL     1      26.200  49.086  49.003  1.00  0.00    -0.061 A 
HETATM   24  C   UNL     1      27.282  50.086  48.717  1.00  0.00     0.048 C 
HETATM   25  C   UNL     1      24.858  49.445  48.829  1.00  0.00     0.009 A 
HETATM   26  C   UNL     1      23.817  48.544  49.082  1.00  0.00     0.032 A 
HETATM   27  N   UNL     1      23.418  46.175  49.844  1.00  0.00    -0.277 N 
HETATM   28  H   UNL     1      22.407  46.106  49.831  1.00  0.00     0.189 HD
HETATM   29  N   UNL     1      24.126  45.094  50.217  1.00  0.00    -0.168 NA
ENDBRANCH   1  19
TORSDOF 3
ENDMDL
MODEL 2
REMARK VINA RESULT:      -9.7      1.338      2.011
REMARK  3 active torsions:
REMARK  status: ('A' for Active; 'I' for Inactive)
REMARK    1  A    between atoms: C_9  and  C_10 
REMARK       I    between atoms: C_10  and  N_11 
REMARK    2  A    between atoms: N_11  and  C_12 
REMARK    3  A    between atoms: C_12  and  C_13 
ROOT
HETATM    1  C   UNL     1      26.554  43.718  50.088  1.00  0.00     0.273 C 
HETATM    2  N   UNL     1      27.003  43.565  51.381  1.00  0.00    -0.347 N 
HETATM    3  O   UNL     1      26.985  43.069  49.139  1.00  0.00    -0.266 OA
HETATM    4  H   UNL     1      26.631  44.235  52.048  1.00  0.00     0.163 HD
ENDROOT
BRANCH   2   5
HETATM    5  C   UNL     1      28.065  42.658  51.749  1.00  0.00     0.114 C 
HETATM    6  C   UNL     1      27.518  41.238  51.912  1.00  0.00     0.037 C 
BRANCH   5   7
HETATM    7  C   UNL     1      28.783  43.136  53.000  1.00  0.00    -0.034 A 
HETATM    8  C   UNL     1      28.160  44.071  53.843  1.00  0.00     0.041 A 
HETATM    9  C   UNL     1      28.820  44.555  54.974  1.00  0.00     0.069 A 
HETATM   10  C   UNL     1      30.101  44.102  55.291  1.00  0.00     0.096 A 
HETATM   11  N   UNL     1      28.181  45.482  55.796  1.00  0.00    -0.323 N 
HETATM   12  O   UNL     1      30.799  44.506  56.395  1.00  0.00    -0.340 OA
HETATM   13  C   UNL     1      30.714  43.146  54.485  1.00  0.00     0.040 A 
HETATM   14  C   UNL     1      30.288  45.672  57.022  1.00  0.00     0.278 C 
HETATM   15  C   UNL     1      28.814  46.047  56.867  1.00  0.00     0.246 C 
HETATM   16  O   UNL     1      28.243  46.850  57.601  1.00  0.00    -0.271 OA
HETATM   17  C   UNL     1      30.062  42.667  53.345  1.00  0.00     0.012 A 
HETATM   18  H   UNL     1      27.222  45.757  55.628  1.00  0.00     0.169 HD
ENDBRANCH   5   7
ENDBRANCH   2   5
BRANCH   1  19
HETATM   19  C   UNL     1      25.486  44.725  49.971  1.00  0.00     0.157 A 
HETATM   20  C   UNL     1      25.631  46.120  49.709  1.00  0.00     0.029 A 
HETATM   21  C   UNL     1      26.705  47.010  49.506  1.00  0.00     0.023 A 
HETATM   22  C   UNL     1      24.334  46.614  49.654  1.00  0.00     0.063 A 
HETATM   23  C   UNL     1      26.441  48.368  49.257  1.00  0.00    -0.061 A 
HETATM   24  C   UNL     1      27.569  49.334  49.036  1.00  0.00     0.048 C 
HETATM   25  C   UNL     1      25.117  48.821  49.199  1.00  0.00     0.009 A 
HETATM   26  C   UNL     1      24.036  47.955  49.398  1.00  0.00     0.032 A 
HETATM   27  N   UNL     1      23.526  45.536  49.890  1.00  0.00    -0.277 N 
HETATM   28  H   UNL     1      22.514  45.526  49.922  1.00  0.00     0.189 HD
HETATM   29  N   UNL     1      24.183  44.380  50.092  1.00  0.00    -0.168 NA
ENDBRANCH   1  19
TORSDOF 3
ENDMDL
MODEL 3
REMARK VINA RESULT:      -9.7      2.577      8.312
REMARK  3 active torsions:
REMARK  status: ('A' for Active; 'I' for Inactive)
REMARK    1  A    between atoms: C_9  and  C_10 
REMARK       I    between atoms: C_10  and  N_11 
REMARK    2  A    between atoms: N_11  and  C_12 
REMARK    3  A    between atoms: C_12  and  C_13 
ROOT
HETATM    1  C   UNL     1      26.757  43.624  52.398  1.00  0.00     0.273 C 
HETATM    2  N   UNL     1      26.672  43.661  51.024  1.00  0.00    -0.347 N 
HETATM    3  O   UNL     1      25.804  43.835  53.143  1.00  0.00    -0.266 OA
HETATM    4  H   UNL     1      27.558  43.565  50.535  1.00  0.00     0.163 HD
ENDROOT
BRANCH   2   5
HETATM    5  C   UNL     1      25.462  44.002  50.313  1.00  0.00     0.114 C 
HETATM    6  C   UNL     1      25.344  43.170  49.035  1.00  0.00     0.037 C 
BRANCH   5   7
HETATM    7  C   UNL     1      25.397  45.492  50.028  1.00  0.00    -0.034 A 
HETATM    8  C   UNL     1      24.147  46.130  49.951  1.00  0.00     0.041 A 
HETATM    9  C   UNL     1      24.064  47.491  49.647  1.00  0.00     0.069 A 
HETATM   10  C   UNL     1      25.222  48.238  49.435  1.00  0.00     0.096 A 
HETATM   11  N   UNL     1      22.812  48.102  49.576  1.00  0.00    -0.323 N 
HETATM   12  O   UNL     1      25.224  49.578  49.164  1.00  0.00    -0.340 OA
HETATM   13  C   UNL     1      26.469  47.626  49.548  1.00  0.00     0.040 A 
HETATM   14  C   UNL     1      23.965  50.102  48.770  1.00  0.00     0.278 C 
HETATM   15  C   UNL     1      22.673  49.408  49.204  1.00  0.00     0.246 C 
HETATM   16  O   UNL     1      21.572  49.951  49.159  1.00  0.00    -0.271 OA
HETATM   17  C   UNL     1      26.557  46.262  49.839  1.00  0.00     0.012 A 
HETATM   18  H   UNL     1      21.969  47.594  49.809  1.00  0.00     0.169 HD
ENDBRANCH   5   7
ENDBRANCH   2   5
BRANCH   1  19
HETATM   19  C   UNL     1      28.107  43.280  52.877  1.00  0.00     0.157 A 
HETATM   20  C   UNL     1      28.791  43.816  54.008  1.00  0.00     0.029 A 
HETATM   21  C   UNL     1      28.520  44.784  54.995  1.00  0.00     0.023 A 
HETATM   22  C   UNL     1      30.003  43.137  54.052  1.00  0.00     0.063 A 
HETATM   23  C   UNL     1      29.475  45.042  55.994  1.00  0.00    -0.061 A 
HETATM   24  C   UNL     1      29.207  46.067  57.057  1.00  0.00     0.048 C 
HETATM   25  C   UNL     1      30.678  44.326  56.007  1.00  0.00     0.009 A 
HETATM   26  C   UNL     1      30.969  43.360  55.036  1.00  0.00     0.032 A 
HETATM   27  N   UNL     1      29.978  42.284  52.983  1.00  0.00    -0.277 N 
HETATM   28  H   UNL     1      30.701  41.630  52.707  1.00  0.00     0.189 HD
HETATM   29  N   UNL     1      28.855  42.345  52.246  1.00  0.00    -0.168 NA
ENDBRANCH   1  19
TORSDOF 3
ENDMDL
MODEL 4
REMARK VINA RESULT:      -9.7      1.740      2.364
REMARK  3 active torsions:
REMARK  status: ('A' for Active; 'I' for Inactive)
REMARK    1  A    between atoms: C_9  and  C_10 
REMARK       I    between atoms: C_10  and  N_11 
REMARK    2  A    between atoms: N_11  and  C_12 
REMARK    3  A    between atoms: C_12  and  C_13 
ROOT
HETATM    1  C   UNL     1      26.543  45.963  50.258  1.00  0.00     0.273 C 
HETATM    2  N   UNL     1      26.540  46.104  51.628  1.00  0.00    -0.347 N 
HETATM    3  O   UNL     1      26.551  44.875  49.688  1.00  0.00    -0.266 OA
HETATM    4  H   UNL     1      26.633  47.059  51.962  1.00  0.00     0.163 HD
ENDROOT
BRANCH   2   5
HETATM    5  C   UNL     1      26.598  44.986  52.541  1.00  0.00     0.114 C 
HETATM    6  C   UNL     1      25.187  44.569  52.959  1.00  0.00     0.037 C 
BRANCH   5   7
HETATM    7  C   UNL     1      27.475  45.305  53.739  1.00  0.00    -0.034 A 
HETATM    8  C   UNL     1      28.523  44.434  54.084  1.00  0.00     0.041 A 
HETATM    9  C   UNL     1      29.313  44.686  55.207  1.00  0.00     0.069 A 
HETATM   10  C   UNL     1      29.084  45.816  55.991  1.00  0.00     0.096 A 
HETATM   11  N   UNL     1      30.347  43.807  55.528  1.00  0.00    -0.323 N 
HETATM   12  O   UNL     1      29.832  46.146  57.087  1.00  0.00    -0.340 OA
HETATM   13  C   UNL     1      28.074  46.708  55.638  1.00  0.00     0.040 A 
HETATM   14  C   UNL     1      30.643  45.093  57.586  1.00  0.00     0.278 C 
HETATM   15  C   UNL     1      31.095  43.964  56.660  1.00  0.00     0.246 C 
HETATM   16  O   UNL     1      32.018  43.200  56.932  1.00  0.00    -0.271 OA
HETATM   17  C   UNL     1      27.272  46.454  54.522  1.00  0.00     0.012 A 
HETATM   18  H   UNL     1      30.579  43.030  54.924  1.00  0.00     0.169 HD
ENDBRANCH   5   7
ENDBRANCH   2   5
BRANCH   1  19
HETATM   19  C   UNL     1      26.508  47.254  49.551  1.00  0.00     0.157 A 
HETATM   20  C   UNL     1      25.364  48.052  49.251  1.00  0.00     0.029 A 
HETATM   21  C   UNL     1      23.973  47.947  49.449  1.00  0.00     0.023 A 
HETATM   22  C   UNL     1      25.867  49.182  48.619  1.00  0.00     0.063 A 
HETATM   23  C   UNL     1      23.131  48.981  49.003  1.00  0.00    -0.061 A 
HETATM   24  C   UNL     1      21.645  48.893  49.205  1.00  0.00     0.048 C 
HETATM   25  C   UNL     1      23.681  50.108  48.381  1.00  0.00     0.009 A 
HETATM   26  C   UNL     1      25.060  50.232  48.174  1.00  0.00     0.032 A 
HETATM   27  N   UNL     1      27.221  48.995  48.568  1.00  0.00    -0.277 N 
HETATM   28  H   UNL     1      27.910  49.625  48.174  1.00  0.00     0.189 HD
HETATM   29  N   UNL     1      27.647  47.842  49.114  1.00  0.00    -0.168 NA
ENDBRANCH   1  19
TORSDOF 3
ENDMDL
MODEL 5
REMARK VINA RESULT:      -9.7      3.545      9.052
REMARK  3 active torsions:
REMARK  status: ('A' for Active; 'I' for Inactive)
REMARK    1  A    between atoms: C_9  and  C_10 
REMARK       I    between atoms: C_10  and  N_11 
REMARK    2  A    between atoms: N_11  and  C_12 
REMARK    3  A    between atoms: C_12  and  C_13 
ROOT
HETATM    1  C   UNL     1      26.449  45.960  50.295  1.00  0.00     0.273 C 
HETATM    2  N   UNL     1      25.976  47.254  50.272  1.00  0.00    -0.347 N 
HETATM    3  O   UNL     1      27.059  45.444  49.362  1.00  0.00    -0.266 OA
HETATM    4  H   UNL     1      25.405  47.517  51.070  1.00  0.00     0.163 HD
ENDROOT
BRANCH   2   5
HETATM    5  C   UNL     1      26.103  48.125  49.127  1.00  0.00     0.114 C 
HETATM    6  C   UNL     1      27.298  49.064  49.305  1.00  0.00     0.037 C 
BRANCH   5   7
HETATM    7  C   UNL     1      24.814  48.888  48.875  1.00  0.00    -0.034 A 
HETATM    8  C   UNL     1      23.601  48.384  49.372  1.00  0.00     0.041 A 
HETATM    9  C   UNL     1      22.399  49.047  49.114  1.00  0.00     0.069 A 
HETATM   10  C   UNL     1      22.391  50.229  48.375  1.00  0.00     0.096 A 
HETATM   11  N   UNL     1      21.208  48.527  49.619  1.00  0.00    -0.323 N 
HETATM   12  O   UNL     1      21.262  50.951  48.107  1.00  0.00    -0.340 OA
HETATM   13  C   UNL     1      23.592  50.761  47.910  1.00  0.00     0.040 A 
HETATM   14  C   UNL     1      20.047  50.251  48.331  1.00  0.00     0.278 C 
HETATM   15  C   UNL     1      19.999  49.093  49.327  1.00  0.00     0.246 C 
HETATM   16  O   UNL     1      18.952  48.645  49.787  1.00  0.00    -0.271 OA
HETATM   17  C   UNL     1      24.796  50.094  48.154  1.00  0.00     0.012 A 
HETATM   18  H   UNL     1      21.206  47.718  50.226  1.00  0.00     0.169 HD
ENDBRANCH   5   7
ENDBRANCH   2   5
BRANCH   1  19
HETATM   19  C   UNL     1      26.167  45.272  51.566  1.00  0.00     0.157 A 
HETATM   20  C   UNL     1      27.059  44.466  52.335  1.00  0.00     0.029 A 
HETATM   21  C   UNL     1      28.391  44.024  52.212  1.00  0.00     0.023 A 
HETATM   22  C   UNL     1      26.330  44.090  53.456  1.00  0.00     0.063 A 
HETATM   23  C   UNL     1      28.948  43.215  53.218  1.00  0.00    -0.061 A 
HETATM   24  C   UNL     1      30.365  42.734  53.109  1.00  0.00     0.048 C 
HETATM   25  C   UNL     1      28.180  42.870  54.337  1.00  0.00     0.009 A 
HETATM   26  C   UNL     1      26.856  43.298  54.480  1.00  0.00     0.032 A 
HETATM   27  N   UNL     1      25.096  44.657  53.292  1.00  0.00    -0.277 N 
HETATM   28  H   UNL     1      24.306  44.594  53.923  1.00  0.00     0.189 HD
HETATM   29  N   UNL     1      24.956  45.373  52.162  1.00  0.00    -0.168 NA
ENDBRANCH   1  19
TORSDOF 3
ENDMDL
MODEL 6
REMARK VINA RESULT:      -9.6      3.097      8.847
REMARK  3 active torsions:
REMARK  status: ('A' for Active; 'I' for Inactive)
REMARK    1  A    between atoms: C_9  and  C_10 
REMARK       I    between atoms: C_10  and  N_11 
REMARK    2  A    between atoms: N_11  and  C_12 
REMARK    3  A    between atoms: C_12  and  C_13 
ROOT
HETATM    1  C   UNL     1      25.914  45.798  53.013  1.00  0.00     0.273 C 
HETATM    2  N   UNL     1      26.509  46.237  51.851  1.00  0.00    -0.347 N 
HETATM    3  O   UNL     1      24.906  45.097  53.037  1.00  0.00    -0.266 OA
HETATM    4  H   UNL     1      27.277  46.889  51.981  1.00  0.00     0.163 HD
ENDROOT
BRANCH   2   5
HETATM    5  C   UNL     1      25.980  45.960  50.536  1.00  0.00     0.114 C 
HETATM    6  C   UNL     1      27.076  45.395  49.630  1.00  0.00     0.037 C 
BRANCH   5   7
HETATM    7  C   UNL     1      25.330  47.196  49.937  1.00  0.00    -0.034 A 
HETATM    8  C   UNL     1      23.930  47.313  49.938  1.00  0.00     0.041 A 
HETATM    9  C   UNL     1      23.312  48.420  49.354  1.00  0.00     0.069 A 
HETATM   10  C   UNL     1      24.077  49.434  48.780  1.00  0.00     0.096 A 
HETATM   11  N   UNL     1      21.920  48.514  49.368  1.00  0.00    -0.323 N 
HETATM   12  O   UNL     1      23.548  50.562  48.217  1.00  0.00    -0.340 OA
HETATM   13  C   UNL     1      25.468  49.349  48.808  1.00  0.00     0.040 A 
HETATM   14  C   UNL     1      22.157  50.486  47.942  1.00  0.00     0.278 C 
HETATM   15  C   UNL     1      21.265  49.536  48.740  1.00  0.00     0.246 C 
HETATM   16  O   UNL     1      20.041  49.627  48.768  1.00  0.00    -0.271 OA
HETATM   17  C   UNL     1      26.091  48.237  49.379  1.00  0.00     0.012 A 
HETATM   18  H   UNL     1      21.355  47.831  49.853  1.00  0.00     0.169 HD
ENDBRANCH   5   7
ENDBRANCH   2   5
BRANCH   1  19
HETATM   19  C   UNL     1      26.631  46.238  54.222  1.00  0.00     0.157 A 
HETATM   20  C   UNL     1      27.808  45.667  54.791  1.00  0.00     0.029 A 
HETATM   21  C   UNL     1      28.653  44.577  54.499  1.00  0.00     0.023 A 
HETATM   22  C   UNL     1      28.103  46.467  55.888  1.00  0.00     0.063 A 
HETATM   23  C   UNL     1      29.766  44.325  55.319  1.00  0.00    -0.061 A 
HETATM   24  C   UNL     1      30.681  43.172  55.026  1.00  0.00     0.048 C 
HETATM   25  C   UNL     1      30.033  45.164  56.408  1.00  0.00     0.009 A 
HETATM   26  C   UNL     1      29.207  46.252  56.716  1.00  0.00     0.032 A 
HETATM   27  N   UNL     1      27.121  47.418  55.916  1.00  0.00    -0.277 N 
HETATM   28  H   UNL     1      27.021  48.173  56.585  1.00  0.00     0.189 HD
HETATM   29  N   UNL     1      26.211  47.311  54.932  1.00  0.00    -0.168 NA
ENDBRANCH   1  19
TORSDOF 3
ENDMDL
MODEL 7
REMARK VINA RESULT:      -9.3      3.410      6.047
REMARK  3 active torsions:
REMARK  status: ('A' for Active; 'I' for Inactive)
REMARK    1  A    between atoms: C_9  and  C_10 
REMARK       I    between atoms: C_10  and  N_11 
REMARK    2  A    between atoms: N_11  and  C_12 
REMARK    3  A    between atoms: C_12  and  C_13 
ROOT
HETATM    1  C   UNL     1      27.187  41.675  51.325  1.00  0.00     0.273 C 
HETATM    2  N   UNL     1      27.862  42.654  52.021  1.00  0.00    -0.347 N 
HETATM    3  O   UNL     1      26.005  41.765  51.002  1.00  0.00    -0.266 OA
HETATM    4  H   UNL     1      28.804  42.405  52.307  1.00  0.00     0.163 HD
ENDROOT
BRANCH   2   5
HETATM    5  C   UNL     1      27.236  43.868  52.489  1.00  0.00     0.114 C 
HETATM    6  C   UNL     1      27.131  44.885  51.351  1.00  0.00     0.037 C 
BRANCH   5   7
HETATM    7  C   UNL     1      27.974  44.435  53.690  1.00  0.00    -0.034 A 
HETATM    8  C   UNL     1      29.030  43.706  54.263  1.00  0.00     0.041 A 
HETATM    9  C   UNL     1      29.693  44.190  55.393  1.00  0.00     0.069 A 
HETATM   10  C   UNL     1      29.328  45.412  55.955  1.00  0.00     0.096 A 
HETATM   11  N   UNL     1      30.737  43.448  55.944  1.00  0.00    -0.323 N 
HETATM   12  O   UNL     1      29.948  45.966  57.041  1.00  0.00    -0.340 OA
HETATM   13  C   UNL     1      28.310  46.164  55.372  1.00  0.00     0.040 A 
HETATM   14  C   UNL     1      30.763  45.066  57.777  1.00  0.00     0.278 C 
HETATM   15  C   UNL     1      31.363  43.837  57.094  1.00  0.00     0.246 C 
HETATM   16  O   UNL     1      32.295  43.192  57.569  1.00  0.00    -0.271 OA
HETATM   17  C   UNL     1      27.634  45.679  54.249  1.00  0.00     0.012 A 
HETATM   18  H   UNL     1      31.069  42.602  55.500  1.00  0.00     0.169 HD
ENDBRANCH   5   7
ENDBRANCH   2   5
BRANCH   1  19
HETATM   19  C   UNL     1      28.040  40.524  50.988  1.00  0.00     0.157 A 
HETATM   20  C   UNL     1      28.087  39.807  49.755  1.00  0.00     0.029 A 
HETATM   21  C   UNL     1      27.414  39.868  48.518  1.00  0.00     0.023 A 
HETATM   22  C   UNL     1      29.077  38.848  49.932  1.00  0.00     0.063 A 
HETATM   23  C   UNL     1      27.755  38.961  47.499  1.00  0.00    -0.061 A 
HETATM   24  C   UNL     1      27.053  39.008  46.173  1.00  0.00     0.048 C 
HETATM   25  C   UNL     1      28.767  38.018  47.717  1.00  0.00     0.009 A 
HETATM   26  C   UNL     1      29.448  37.940  48.937  1.00  0.00     0.032 A 
HETATM   27  N   UNL     1      29.533  39.031  51.208  1.00  0.00    -0.277 N 
HETATM   28  H   UNL     1      30.261  38.506  51.677  1.00  0.00     0.189 HD
HETATM   29  N   UNL     1      28.929  40.027  51.880  1.00  0.00    -0.168 NA
ENDBRANCH   1  19
TORSDOF 3
ENDMDL
MODEL 8
REMARK VINA RESULT:      -8.8      3.413      6.073
REMARK  3 active torsions:
REMARK  status: ('A' for Active; 'I' for Inactive)
REMARK    1  A    between atoms: C_9  and  C_10 
REMARK       I    between atoms: C_10  and  N_11 
REMARK    2  A    between atoms: N_11  and  C_12 
REMARK    3  A    between atoms: C_12  and  C_13 
ROOT
HETATM    1  C   UNL     1      26.109  42.070  50.224  1.00  0.00     0.273 C 
HETATM    2  N   UNL     1      27.081  42.959  50.628  1.00  0.00    -0.347 N 
HETATM    3  O   UNL     1      24.977  42.040  50.699  1.00  0.00    -0.266 OA
HETATM    4  H   UNL     1      27.999  42.806  50.221  1.00  0.00     0.163 HD
ENDROOT
BRANCH   2   5
HETATM    5  C   UNL     1      26.886  43.919  51.690  1.00  0.00     0.114 C 
HETATM    6  C   UNL     1      26.819  45.336  51.118  1.00  0.00     0.037 C 
BRANCH   5   7
HETATM    7  C   UNL     1      27.963  43.785  52.752  1.00  0.00    -0.034 A 
HETATM    8  C   UNL     1      27.944  44.636  53.870  1.00  0.00     0.041 A 
HETATM    9  C   UNL     1      28.949  44.558  54.836  1.00  0.00     0.069 A 
HETATM   10  C   UNL     1      29.976  43.622  54.713  1.00  0.00     0.096 A 
HETATM   11  N   UNL     1      28.908  45.412  55.938  1.00  0.00    -0.323 N 
HETATM   12  O   UNL     1      30.977  43.465  55.630  1.00  0.00    -0.340 OA
HETATM   13  C   UNL     1      29.984  42.746  53.629  1.00  0.00     0.040 A 
HETATM   14  C   UNL     1      31.109  44.539  56.548  1.00  0.00     0.278 C 
HETATM   15  C   UNL     1      29.910  45.432  56.866  1.00  0.00     0.246 C 
HETATM   16  O   UNL     1      29.864  46.172  57.846  1.00  0.00    -0.271 OA
HETATM   17  C   UNL     1      28.987  42.828  52.653  1.00  0.00     0.012 A 
HETATM   18  H   UNL     1      28.128  46.039  56.085  1.00  0.00     0.169 HD
ENDBRANCH   5   7
ENDBRANCH   2   5
BRANCH   1  19
HETATM   19  C   UNL     1      26.566  41.177  49.146  1.00  0.00     0.157 A 
HETATM   20  C   UNL     1      27.524  40.123  49.236  1.00  0.00     0.029 A 
HETATM   21  C   UNL     1      28.345  39.580  50.244  1.00  0.00     0.023 A 
HETATM   22  C   UNL     1      27.566  39.564  47.965  1.00  0.00     0.063 A 
HETATM   23  C   UNL     1      29.186  38.494  49.943  1.00  0.00    -0.061 A 
HETATM   24  C   UNL     1      30.068  37.898  51.001  1.00  0.00     0.048 C 
HETATM   25  C   UNL     1      29.188  37.955  48.651  1.00  0.00     0.009 A 
HETATM   26  C   UNL     1      28.381  38.478  47.634  1.00  0.00     0.032 A 
HETATM   27  N   UNL     1      26.682  40.293  47.220  1.00  0.00    -0.277 N 
HETATM   28  H   UNL     1      26.454  40.162  46.241  1.00  0.00     0.189 HD
HETATM   29  N   UNL     1      26.063  41.279  47.894  1.00  0.00    -0.168 NA
ENDBRANCH   1  19
TORSDOF 3
ENDMDL
MODEL 9
REMARK VINA RESULT:      -8.8      2.688      7.607
REMARK  3 active torsions:
REMARK  status: ('A' for Active; 'I' for Inactive)
REMARK    1  A    between atoms: C_9  and  C_10 
REMARK       I    between atoms: C_10  and  N_11 
REMARK    2  A    between atoms: N_11  and  C_12 
REMARK    3  A    between atoms: C_12  and  C_13 
ROOT
HETATM    1  C   UNL     1      28.126  42.070  53.271  1.00  0.00     0.273 C 
HETATM    2  N   UNL     1      27.565  42.630  52.144  1.00  0.00    -0.347 N 
HETATM    3  O   UNL     1      28.071  40.871  53.532  1.00  0.00    -0.266 OA
HETATM    4  H   UNL     1      27.600  43.644  52.105  1.00  0.00     0.163 HD
ENDROOT
BRANCH   2   5
HETATM    5  C   UNL     1      26.808  41.872  51.175  1.00  0.00     0.114 C 
HETATM    6  C   UNL     1      27.751  41.067  50.278  1.00  0.00     0.037 C 
BRANCH   5   7
HETATM    7  C   UNL     1      25.892  42.776  50.369  1.00  0.00    -0.034 A 
HETATM    8  C   UNL     1      25.802  44.140  50.694  1.00  0.00     0.041 A 
HETATM    9  C   UNL     1      24.934  44.980  49.993  1.00  0.00     0.069 A 
HETATM   10  C   UNL     1      24.158  44.478  48.948  1.00  0.00     0.096 A 
HETATM   11  N   UNL     1      24.863  46.330  50.333  1.00  0.00    -0.323 N 
HETATM   12  O   UNL     1      23.309  45.241  48.197  1.00  0.00    -0.340 OA
HETATM   13  C   UNL     1      24.267  43.136  48.590  1.00  0.00     0.040 A 
HETATM   14  C   UNL     1      23.001  46.508  48.759  1.00  0.00     0.278 C 
HETATM   15  C   UNL     1      23.972  47.174  49.734  1.00  0.00     0.246 C 
HETATM   16  O   UNL     1      23.922  48.367  50.022  1.00  0.00    -0.271 OA
HETATM   17  C   UNL     1      25.125  42.289  49.297  1.00  0.00     0.012 A 
HETATM   18  H   UNL     1      25.478  46.727  51.031  1.00  0.00     0.169 HD
ENDBRANCH   5   7
ENDBRANCH   2   5
BRANCH   1  19
HETATM   19  C   UNL     1      28.819  43.058  54.114  1.00  0.00     0.157 A 
HETATM   20  C   UNL     1      28.413  44.396  54.399  1.00  0.00     0.029 A 
HETATM   21  C   UNL     1      27.343  45.234  54.027  1.00  0.00     0.023 A 
HETATM   22  C   UNL     1      29.377  44.889  55.269  1.00  0.00     0.063 A 
HETATM   23  C   UNL     1      27.277  46.542  54.539  1.00  0.00    -0.061 A 
HETATM   24  C   UNL     1      26.146  47.452  54.158  1.00  0.00     0.048 C 
HETATM   25  C   UNL     1      28.265  46.993  55.422  1.00  0.00     0.009 A 
HETATM   26  C   UNL     1      29.336  46.178  55.805  1.00  0.00     0.032 A 
HETATM   27  N   UNL     1      30.271  43.867  55.435  1.00  0.00    -0.277 N 
HETATM   28  H   UNL     1      31.106  43.872  56.009  1.00  0.00     0.189 HD
HETATM   29  N   UNL     1      29.973  42.748  54.750  1.00  0.00    -0.168 NA
ENDBRANCH   1  19
TORSDOF 3
ENDMDL
MODEL 10
REMARK VINA RESULT:      -8.7      3.441      6.973
REMARK  3 active torsions:
REMARK  status: ('A' for Active; 'I' for Inactive)
REMARK    1  A    between atoms: C_9  and  C_10 
REMARK       I    between atoms: C_10  and  N_11 
REMARK    2  A    between atoms: N_11  and  C_12 
REMARK    3  A    between atoms: C_12  and  C_13 
ROOT
HETATM    1  C   UNL     1      25.603  45.295  52.285  1.00  0.00     0.273 C 
HETATM    2  N   UNL     1      26.347  45.491  51.143  1.00  0.00    -0.347 N 
HETATM    3  O   UNL     1      24.542  44.677  52.306  1.00  0.00    -0.266 OA
HETATM    4  H   UNL     1      27.150  46.103  51.252  1.00  0.00     0.163 HD
ENDROOT
BRANCH   2   5
HETATM    5  C   UNL     1      25.932  45.031  49.838  1.00  0.00     0.114 C 
HETATM    6  C   UNL     1      24.538  45.566  49.505  1.00  0.00     0.037 C 
BRANCH   5   7
HETATM    7  C   UNL     1      25.996  43.516  49.746  1.00  0.00    -0.034 A 
HETATM    8  C   UNL     1      27.140  42.841  50.203  1.00  0.00     0.041 A 
HETATM    9  C   UNL     1      27.236  41.453  50.088  1.00  0.00     0.069 A 
HETATM   10  C   UNL     1      26.188  40.716  49.536  1.00  0.00     0.096 A 
HETATM   11  N   UNL     1      28.382  40.805  50.549  1.00  0.00    -0.323 N 
HETATM   12  O   UNL     1      26.195  39.354  49.417  1.00  0.00    -0.340 OA
HETATM   13  C   UNL     1      25.032  41.370  49.116  1.00  0.00     0.040 A 
HETATM   14  C   UNL     1      27.472  38.755  49.574  1.00  0.00     0.278 C 
HETATM   15  C   UNL     1      28.559  39.460  50.386  1.00  0.00     0.246 C 
HETATM   16  O   UNL     1      29.560  38.887  50.808  1.00  0.00    -0.271 OA
HETATM   17  C   UNL     1      24.936  42.761  49.216  1.00  0.00     0.012 A 
HETATM   18  H   UNL     1      29.114  41.313  51.027  1.00  0.00     0.169 HD
ENDBRANCH   5   7
ENDBRANCH   2   5
BRANCH   1  19
HETATM   19  C   UNL     1      26.228  45.885  53.481  1.00  0.00     0.157 A 
HETATM   20  C   UNL     1      27.410  45.447  54.150  1.00  0.00     0.029 A 
HETATM   21  C   UNL     1      28.337  44.398  53.992  1.00  0.00     0.023 A 
HETATM   22  C   UNL     1      27.598  46.356  55.183  1.00  0.00     0.063 A 
HETATM   23  C   UNL     1      29.422  44.294  54.880  1.00  0.00    -0.061 A 
HETATM   24  C   UNL     1      30.424  43.186  54.731  1.00  0.00     0.048 C 
HETATM   25  C   UNL     1      29.579  45.239  55.901  1.00  0.00     0.009 A 
HETATM   26  C   UNL     1      28.671  46.289  56.076  1.00  0.00     0.032 A 
HETATM   27  N   UNL     1      26.556  47.236  55.084  1.00  0.00    -0.277 N 
HETATM   28  H   UNL     1      26.373  48.037  55.678  1.00  0.00     0.189 HD
HETATM   29  N   UNL     1      25.704  46.983  54.074  1.00  0.00    -0.168 NA
ENDBRANCH   1  19
TORSDOF 3
ENDMDL
