MODEL 1
REMARK VINA RESULT:      -9.4      0.000      0.000
REMARK  10 active torsions:
REMARK  status: ('A' for Active; 'I' for Inactive)
REMARK    1  A    between atoms: C_8  and  N_9 
REMARK    2  A    between atoms: C_10  and  S_11 
REMARK    3  A    between atoms: S_11  and  C_12 
REMARK    4  A    between atoms: C_12  and  C_13 
REMARK       I    between atoms: C_13  and  N_14 
REMARK    5  A    between atoms: N_14  and  C_15 
REMARK    6  A    between atoms: C_15  and  C_16 
REMARK    7  A    between atoms: C_16  and  C_17 
REMARK    8  A    between atoms: C_19  and  O_20 
REMARK    9  A    between atoms: C_22  and  O_23 
REMARK   10  A    between atoms: C_31  and  N_32 
ROOT
HETATM    1  N   UNL     1      27.059  42.900  51.291  1.00  0.00    -0.275 N 
HETATM    2  C   UNL     1      27.013  43.706  50.122  1.00  0.00     0.177 A 
HETATM    3  N   UNL     1      26.916  43.267  48.891  1.00  0.00    -0.204 NA
HETATM    4  C   UNL     1      26.854  41.922  48.794  1.00  0.00     0.162 A 
HETATM    5  C   UNL     1      26.898  40.976  49.783  1.00  0.00     0.081 A 
HETATM    6  C   UNL     1      27.029  41.452  51.127  1.00  0.00     0.124 A 
HETATM    7  N   UNL     1      26.717  41.220  47.632  1.00  0.00    -0.260 N 
HETATM    8  H   UNL     1      26.640  41.586  46.690  1.00  0.00     0.191 HD
HETATM    9  N   UNL     1      26.682  39.883  47.824  1.00  0.00    -0.177 NA
HETATM   10  C   UNL     1      26.788  39.728  49.154  1.00  0.00     0.068 A 
HETATM   11  C   UNL     1      26.768  38.363  49.731  1.00  0.00     0.073 C 
ENDROOT
BRANCH   2  12
HETATM   12  S   UNL     1      27.081  45.475  50.265  1.00  0.00    -0.082 SA
BRANCH  12  13
HETATM   13  C   UNL     1      25.344  45.860  49.899  1.00  0.00     0.185 C 
BRANCH  13  14
HETATM   14  C   UNL     1      24.843  47.059  50.692  1.00  0.00     0.227 C 
HETATM   15  N   UNL     1      23.751  47.739  50.209  1.00  0.00    -0.360 N 
HETATM   16  H   UNL     1      23.523  48.558  50.766  1.00  0.00     0.162 HD
HETATM   17  O   UNL     1      25.330  47.428  51.759  1.00  0.00    -0.273 OA
BRANCH  15  18
HETATM   18  C   UNL     1      23.139  47.577  48.904  1.00  0.00     0.127 C 
BRANCH  18  19
HETATM   19  C   UNL     1      22.746  48.901  48.249  1.00  0.00     0.058 C 
BRANCH  19  20
HETATM   20  C   UNL     1      21.487  49.440  48.884  1.00  0.00    -0.054 A 
HETATM   21  C   UNL     1      20.443  48.571  49.242  1.00  0.00     0.046 A 
HETATM   22  C   UNL     1      19.237  49.072  49.749  1.00  0.00     0.102 A 
HETATM   23  C   UNL     1      19.069  50.462  49.901  1.00  0.00     0.101 A 
HETATM   24  C   UNL     1      20.117  51.324  49.564  1.00  0.00     0.040 A 
HETATM   25  C   UNL     1      21.316  50.816  49.056  1.00  0.00     0.010 A 
BRANCH  22  26
HETATM   26  O   UNL     1      18.161  48.294  50.099  1.00  0.00    -0.353 OA
HETATM   27  C   UNL     1      17.385  47.726  49.055  1.00  0.00     0.210 C 
ENDBRANCH  22  26
BRANCH  23  28
HETATM   28  O   UNL     1      17.854  50.875  50.388  1.00  0.00    -0.353 OA
HETATM   29  C   UNL     1      17.042  51.673  49.539  1.00  0.00     0.210 C 
ENDBRANCH  23  28
ENDBRANCH  19  20
ENDBRANCH  18  19
ENDBRANCH  15  18
ENDBRANCH  13  14
ENDBRANCH  12  13
ENDBRANCH   2  12
BRANCH   1  30
HETATM   30  C   UNL     1      27.098  43.478  52.599  1.00  0.00     0.051 A 
HETATM   31  C   UNL     1      28.323  43.658  53.286  1.00  0.00    -0.013 A 
HETATM   32  C   UNL     1      29.625  43.160  52.709  1.00  0.00     0.052 C 
HETATM   33  C   UNL     1      28.304  44.338  54.520  1.00  0.00     0.042 A 
HETATM   34 CL   UNL     1      29.759  44.677  55.391  1.00  0.00    -0.084 Cl
HETATM   35  C   UNL     1      27.105  44.792  55.075  1.00  0.00     0.024 A 
HETATM   36  C   UNL     1      25.902  44.590  54.405  1.00  0.00     0.004 A 
HETATM   37  C   UNL     1      25.901  43.950  53.169  1.00  0.00     0.031 A 
ENDBRANCH   1  30
BRANCH   6  38
HETATM   38  N   UNL     1      27.135  40.616  52.143  1.00  0.00    -0.384 N 
HETATM   39  H   UNL     1      27.379  39.646  52.012  1.00  0.00     0.157 HD
HETATM   40  H   UNL     1      26.986  40.948  53.088  1.00  0.00     0.157 HD
ENDBRANCH   6  38
TORSDOF 10
ENDMDL
MODEL 2
REMARK VINA RESULT:      -8.6      1.981      2.297
REMARK  10 active torsions:
REMARK  status: ('A' for Active; 'I' for Inactive)
REMARK    1  A    between atoms: C_8  and  N_9 
REMARK    2  A    between atoms: C_10  and  S_11 
REMARK    3  A    between atoms: S_11  and  C_12 
REMARK    4  A    between atoms: C_12  and  C_13 
REMARK       I    between atoms: C_13  and  N_14 
REMARK    5  A    between atoms: N_14  and  C_15 
REMARK    6  A    between atoms: C_15  and  C_16 
REMARK    7  A    between atoms: C_16  and  C_17 
REMARK    8  A    between atoms: C_19  and  O_20 
REMARK    9  A    between atoms: C_22  and  O_23 
REMARK   10  A    between atoms: C_31  and  N_32 
ROOT
HETATM    1  N   UNL     1      25.440  43.997  51.014  1.00  0.00    -0.275 N 
HETATM    2  C   UNL     1      25.108  45.205  50.344  1.00  0.00     0.177 A 
HETATM    3  N   UNL     1      24.596  45.298  49.140  1.00  0.00    -0.204 NA
HETATM    4  C   UNL     1      24.387  44.107  48.541  1.00  0.00     0.162 A 
HETATM    5  C   UNL     1      24.650  42.845  49.002  1.00  0.00     0.081 A 
HETATM    6  C   UNL     1      25.231  42.740  50.307  1.00  0.00     0.124 A 
HETATM    7  N   UNL     1      23.836  43.931  47.307  1.00  0.00    -0.260 N 
HETATM    8  H   UNL     1      23.504  44.643  46.666  1.00  0.00     0.191 HD
HETATM    9  N   UNL     1      23.742  42.631  46.951  1.00  0.00    -0.177 NA
HETATM   10  C   UNL     1      24.239  41.955  47.999  1.00  0.00     0.068 A 
HETATM   11  C   UNL     1      24.276  40.474  47.959  1.00  0.00     0.073 C 
ENDROOT
BRANCH   2  12
HETATM   12  S   UNL     1      25.375  46.765  51.149  1.00  0.00    -0.082 SA
BRANCH  12  13
HETATM   13  C   UNL     1      24.579  47.855  49.933  1.00  0.00     0.185 C 
BRANCH  13  14
HETATM   14  C   UNL     1      25.585  48.745  49.216  1.00  0.00     0.227 C 
HETATM   15  N   UNL     1      25.099  49.729  48.389  1.00  0.00    -0.360 N 
HETATM   16  H   UNL     1      25.837  50.234  47.907  1.00  0.00     0.162 HD
HETATM   17  O   UNL     1      26.802  48.663  49.366  1.00  0.00    -0.273 OA
BRANCH  15  18
HETATM   18  C   UNL     1      23.726  49.887  47.947  1.00  0.00     0.127 C 
BRANCH  18  19
HETATM   19  C   UNL     1      23.018  51.082  48.585  1.00  0.00     0.058 C 
BRANCH  19  20
HETATM   20  C   UNL     1      21.560  50.762  48.812  1.00  0.00    -0.054 A 
HETATM   21  C   UNL     1      21.168  49.471  49.202  1.00  0.00     0.046 A 
HETATM   22  C   UNL     1      19.813  49.142  49.329  1.00  0.00     0.102 A 
HETATM   23  C   UNL     1      18.832  50.116  49.060  1.00  0.00     0.101 A 
HETATM   24  C   UNL     1      19.224  51.406  48.692  1.00  0.00     0.040 A 
HETATM   25  C   UNL     1      20.579  51.725  48.565  1.00  0.00     0.010 A 
BRANCH  22  26
HETATM   26  O   UNL     1      19.346  47.899  49.682  1.00  0.00    -0.353 OA
HETATM   27  C   UNL     1      19.603  46.819  48.798  1.00  0.00     0.210 C 
ENDBRANCH  22  26
BRANCH  23  28
HETATM   28  O   UNL     1      17.526  49.711  49.189  1.00  0.00    -0.353 OA
HETATM   29  C   UNL     1      16.721  49.704  48.020  1.00  0.00     0.210 C 
ENDBRANCH  23  28
ENDBRANCH  19  20
ENDBRANCH  18  19
ENDBRANCH  15  18
ENDBRANCH  13  14
ENDBRANCH  12  13
ENDBRANCH   2  12
BRANCH   1  30
HETATM   30  C   UNL     1      25.933  43.997  52.357  1.00  0.00     0.051 A 
HETATM   31  C   UNL     1      27.321  43.938  52.630  1.00  0.00    -0.013 A 
HETATM   32  C   UNL     1      28.331  43.778  51.521  1.00  0.00     0.052 C 
HETATM   33  C   UNL     1      27.746  44.058  53.968  1.00  0.00     0.042 A 
HETATM   34 CL   UNL     1      29.422  44.082  54.389  1.00  0.00    -0.084 Cl
HETATM   35  C   UNL     1      26.822  44.192  55.008  1.00  0.00     0.024 A 
HETATM   36  C   UNL     1      25.458  44.225  54.734  1.00  0.00     0.004 A 
HETATM   37  C   UNL     1      25.018  44.141  53.416  1.00  0.00     0.031 A 
ENDBRANCH   1  30
BRANCH   6  38
HETATM   38  N   UNL     1      25.570  41.570  50.814  1.00  0.00    -0.384 N 
HETATM   39  H   UNL     1      26.371  41.056  50.479  1.00  0.00     0.157 HD
HETATM   40  H   UNL     1      25.031  41.174  51.573  1.00  0.00     0.157 HD
ENDBRANCH   6  38
TORSDOF 10
ENDMDL
MODEL 3
REMARK VINA RESULT:      -8.6     12.208     15.036
REMARK  10 active torsions:
REMARK  status: ('A' for Active; 'I' for Inactive)
REMARK    1  A    between atoms: C_8  and  N_9 
REMARK    2  A    between atoms: C_10  and  S_11 
REMARK    3  A    between atoms: S_11  and  C_12 
REMARK    4  A    between atoms: C_12  and  C_13 
REMARK       I    between atoms: C_13  and  N_14 
REMARK    5  A    between atoms: N_14  and  C_15 
REMARK    6  A    between atoms: C_15  and  C_16 
REMARK    7  A    between atoms: C_16  and  C_17 
REMARK    8  A    between atoms: C_19  and  O_20 
REMARK    9  A    between atoms: C_22  and  O_23 
REMARK   10  A    between atoms: C_31  and  N_32 
ROOT
HETATM    1  N   UNL     1      27.506  49.347  39.113  1.00  0.00    -0.275 N 
HETATM    2  C   UNL     1      28.333  48.205  38.937  1.00  0.00     0.177 A 
HETATM    3  N   UNL     1      27.916  46.989  38.678  1.00  0.00    -0.204 NA
HETATM    4  C   UNL     1      26.575  46.881  38.577  1.00  0.00     0.162 A 
HETATM    5  C   UNL     1      25.611  47.842  38.727  1.00  0.00     0.081 A 
HETATM    6  C   UNL     1      26.062  49.166  39.034  1.00  0.00     0.124 A 
HETATM    7  N   UNL     1      25.896  45.735  38.282  1.00  0.00    -0.260 N 
HETATM    8  H   UNL     1      26.280  44.816  38.095  1.00  0.00     0.191 HD
HETATM    9  N   UNL     1      24.557  45.910  38.245  1.00  0.00    -0.177 NA
HETATM   10  C   UNL     1      24.377  47.214  38.513  1.00  0.00     0.068 A 
HETATM   11  C   UNL     1      23.003  47.768  38.539  1.00  0.00     0.073 C 
ENDROOT
BRANCH   2  12
HETATM   12  S   UNL     1      30.097  48.365  39.058  1.00  0.00    -0.082 SA
BRANCH  12  13
HETATM   13  C   UNL     1      30.306  47.920  40.808  1.00  0.00     0.185 C 
BRANCH  13  14
HETATM   14  C   UNL     1      31.773  47.803  41.198  1.00  0.00     0.227 C 
HETATM   15  N   UNL     1      32.219  48.556  42.257  1.00  0.00    -0.360 N 
HETATM   16  H   UNL     1      33.219  48.462  42.410  1.00  0.00     0.162 HD
HETATM   17  O   UNL     1      32.570  47.044  40.650  1.00  0.00    -0.273 OA
BRANCH  15  18
HETATM   18  C   UNL     1      31.497  49.623  42.924  1.00  0.00     0.127 C 
BRANCH  18  19
HETATM   19  C   UNL     1      32.385  50.806  43.310  1.00  0.00     0.058 C 
BRANCH  19  20
HETATM   20  C   UNL     1      33.257  51.204  42.143  1.00  0.00    -0.054 A 
HETATM   21  C   UNL     1      32.679  51.556  40.912  1.00  0.00     0.046 A 
HETATM   22  C   UNL     1      33.483  51.841  39.801  1.00  0.00     0.102 A 
HETATM   23  C   UNL     1      34.884  51.772  39.918  1.00  0.00     0.101 A 
HETATM   24  C   UNL     1      35.457  51.442  41.150  1.00  0.00     0.040 A 
HETATM   25  C   UNL     1      34.649  51.157  42.253  1.00  0.00     0.010 A 
BRANCH  22  26
HETATM   26  O   UNL     1      32.999  52.169  38.558  1.00  0.00    -0.353 OA
HETATM   27  C   UNL     1      32.202  51.208  37.881  1.00  0.00     0.210 C 
ENDBRANCH  22  26
BRANCH  23  28
HETATM   28  O   UNL     1      35.601  52.048  38.780  1.00  0.00    -0.353 OA
HETATM   29  C   UNL     1      36.983  51.721  38.778  1.00  0.00     0.210 C 
ENDBRANCH  23  28
ENDBRANCH  19  20
ENDBRANCH  18  19
ENDBRANCH  15  18
ENDBRANCH  13  14
ENDBRANCH  12  13
ENDBRANCH   2  12
BRANCH   1  30
HETATM   30  C   UNL     1      28.060  50.648  39.327  1.00  0.00     0.051 A 
HETATM   31  C   UNL     1      28.413  51.091  40.625  1.00  0.00    -0.013 A 
HETATM   32  C   UNL     1      28.130  50.249  41.845  1.00  0.00     0.052 C 
HETATM   33  C   UNL     1      29.061  52.335  40.754  1.00  0.00     0.042 A 
HETATM   34 CL   UNL     1      29.604  52.922  42.287  1.00  0.00    -0.084 Cl
HETATM   35  C   UNL     1      29.316  53.134  39.636  1.00  0.00     0.024 A 
HETATM   36  C   UNL     1      28.945  52.702  38.367  1.00  0.00     0.004 A 
HETATM   37  C   UNL     1      28.334  51.461  38.212  1.00  0.00     0.031 A 
ENDBRANCH   1  30
BRANCH   6  38
HETATM   38  N   UNL     1      25.207  50.148  39.250  1.00  0.00    -0.384 N 
HETATM   39  H   UNL     1      25.038  50.868  38.563  1.00  0.00     0.157 HD
HETATM   40  H   UNL     1      24.686  50.182  40.117  1.00  0.00     0.157 HD
ENDBRANCH   6  38
TORSDOF 10
ENDMDL
MODEL 4
REMARK VINA RESULT:      -8.4     11.524     14.464
REMARK  10 active torsions:
REMARK  status: ('A' for Active; 'I' for Inactive)
REMARK    1  A    between atoms: C_8  and  N_9 
REMARK    2  A    between atoms: C_10  and  S_11 
REMARK    3  A    between atoms: S_11  and  C_12 
REMARK    4  A    between atoms: C_12  and  C_13 
REMARK       I    between atoms: C_13  and  N_14 
REMARK    5  A    between atoms: N_14  and  C_15 
REMARK    6  A    between atoms: C_15  and  C_16 
REMARK    7  A    between atoms: C_16  and  C_17 
REMARK    8  A    between atoms: C_19  and  O_20 
REMARK    9  A    between atoms: C_22  and  O_23 
REMARK   10  A    between atoms: C_31  and  N_32 
ROOT
HETATM    1  N   UNL     1      26.829  48.621  39.885  1.00  0.00    -0.275 N 
HETATM    2  C   UNL     1      26.981  48.643  38.473  1.00  0.00     0.177 A 
HETATM    3  N   UNL     1      27.510  49.619  37.774  1.00  0.00    -0.204 NA
HETATM    4  C   UNL     1      27.930  50.661  38.521  1.00  0.00     0.162 A 
HETATM    5  C   UNL     1      27.861  50.843  39.876  1.00  0.00     0.081 A 
HETATM    6  C   UNL     1      27.262  49.790  40.641  1.00  0.00     0.124 A 
HETATM    7  N   UNL     1      28.542  51.780  38.039  1.00  0.00    -0.260 N 
HETATM    8  H   UNL     1      28.773  51.997  37.077  1.00  0.00     0.191 HD
HETATM    9  N   UNL     1      28.857  52.668  39.008  1.00  0.00    -0.177 NA
HETATM   10  C   UNL     1      28.444  52.089  40.147  1.00  0.00     0.068 A 
HETATM   11  C   UNL     1      28.649  52.790  41.436  1.00  0.00     0.073 C 
ENDROOT
BRANCH   2  12
HETATM   12  S   UNL     1      26.438  47.259  37.504  1.00  0.00    -0.082 SA
BRANCH  12  13
HETATM   13  C   UNL     1      28.053  46.658  36.929  1.00  0.00     0.185 C 
BRANCH  13  14
HETATM   14  C   UNL     1      28.657  45.636  37.882  1.00  0.00     0.227 C 
HETATM   15  N   UNL     1      29.618  46.068  38.765  1.00  0.00    -0.360 N 
HETATM   16  H   UNL     1      30.007  45.312  39.320  1.00  0.00     0.162 HD
HETATM   17  O   UNL     1      28.306  44.459  37.939  1.00  0.00    -0.273 OA
BRANCH  15  18
HETATM   18  C   UNL     1      30.286  47.355  38.753  1.00  0.00     0.127 C 
BRANCH  18  19
HETATM   19  C   UNL     1      30.426  47.979  40.141  1.00  0.00     0.058 C 
BRANCH  19  20
HETATM   20  C   UNL     1      31.149  49.301  40.047  1.00  0.00    -0.054 A 
HETATM   21  C   UNL     1      31.429  50.043  41.206  1.00  0.00     0.046 A 
HETATM   22  C   UNL     1      32.021  51.309  41.119  1.00  0.00     0.102 A 
HETATM   23  C   UNL     1      32.338  51.845  39.856  1.00  0.00     0.101 A 
HETATM   24  C   UNL     1      32.079  51.095  38.705  1.00  0.00     0.040 A 
HETATM   25  C   UNL     1      31.486  49.834  38.800  1.00  0.00     0.010 A 
BRANCH  22  26
HETATM   26  O   UNL     1      32.303  52.108  42.200  1.00  0.00    -0.353 OA
HETATM   27  C   UNL     1      32.395  51.492  43.475  1.00  0.00     0.210 C 
ENDBRANCH  22  26
BRANCH  23  28
HETATM   28  O   UNL     1      32.900  53.098  39.854  1.00  0.00    -0.353 OA
HETATM   29  C   UNL     1      34.205  53.233  39.310  1.00  0.00     0.210 C 
ENDBRANCH  23  28
ENDBRANCH  19  20
ENDBRANCH  18  19
ENDBRANCH  15  18
ENDBRANCH  13  14
ENDBRANCH  12  13
ENDBRANCH   2  12
BRANCH   1  30
HETATM   30  C   UNL     1      26.300  47.479  40.564  1.00  0.00     0.051 A 
HETATM   31  C   UNL     1      24.903  47.273  40.677  1.00  0.00    -0.013 A 
HETATM   32  C   UNL     1      23.917  48.297  40.171  1.00  0.00     0.052 C 
HETATM   33  C   UNL     1      24.448  46.071  41.254  1.00  0.00     0.042 A 
HETATM   34 CL   UNL     1      22.764  45.695  41.359  1.00  0.00    -0.084 Cl
HETATM   35  C   UNL     1      25.348  45.120  41.742  1.00  0.00     0.024 A 
HETATM   36  C   UNL     1      26.719  45.340  41.649  1.00  0.00     0.004 A 
HETATM   37  C   UNL     1      27.191  46.505  41.052  1.00  0.00     0.031 A 
ENDBRANCH   1  30
BRANCH   6  38
HETATM   38  N   UNL     1      27.102  49.896  41.946  1.00  0.00    -0.384 N 
HETATM   39  H   UNL     1      27.762  49.499  42.598  1.00  0.00     0.157 HD
HETATM   40  H   UNL     1      26.309  50.403  42.318  1.00  0.00     0.157 HD
ENDBRANCH   6  38
TORSDOF 10
ENDMDL
MODEL 5
REMARK VINA RESULT:      -8.3     10.987     13.404
REMARK  10 active torsions:
REMARK  status: ('A' for Active; 'I' for Inactive)
REMARK    1  A    between atoms: C_8  and  N_9 
REMARK    2  A    between atoms: C_10  and  S_11 
REMARK    3  A    between atoms: S_11  and  C_12 
REMARK    4  A    between atoms: C_12  and  C_13 
REMARK       I    between atoms: C_13  and  N_14 
REMARK    5  A    between atoms: N_14  and  C_15 
REMARK    6  A    between atoms: C_15  and  C_16 
REMARK    7  A    between atoms: C_16  and  C_17 
REMARK    8  A    between atoms: C_19  and  O_20 
REMARK    9  A    between atoms: C_22  and  O_23 
REMARK   10  A    between atoms: C_31  and  N_32 
ROOT
HETATM    1  N   UNL     1      27.572  47.185  40.237  1.00  0.00    -0.275 N 
HETATM    2  C   UNL     1      28.020  47.089  38.892  1.00  0.00     0.177 A 
HETATM    3  N   UNL     1      29.219  47.397  38.459  1.00  0.00    -0.204 NA
HETATM    4  C   UNL     1      30.054  47.833  39.426  1.00  0.00     0.162 A 
HETATM    5  C   UNL     1      29.818  48.013  40.763  1.00  0.00     0.081 A 
HETATM    6  C   UNL     1      28.502  47.700  41.235  1.00  0.00     0.124 A 
HETATM    7  N   UNL     1      31.359  48.184  39.242  1.00  0.00    -0.260 N 
HETATM    8  H   UNL     1      31.891  48.169  38.380  1.00  0.00     0.191 HD
HETATM    9  N   UNL     1      31.963  48.585  40.382  1.00  0.00    -0.177 NA
HETATM   10  C   UNL     1      31.015  48.475  41.327  1.00  0.00     0.068 A 
HETATM   11  C   UNL     1      31.341  48.824  42.729  1.00  0.00     0.073 C 
ENDROOT
BRANCH   2  12
HETATM   12  S   UNL     1      26.916  46.500  37.633  1.00  0.00    -0.082 SA
BRANCH  12  13
HETATM   13  C   UNL     1      26.712  48.039  36.688  1.00  0.00     0.185 C 
BRANCH  13  14
HETATM   14  C   UNL     1      25.510  48.846  37.158  1.00  0.00     0.227 C 
HETATM   15  N   UNL     1      25.746  50.035  37.803  1.00  0.00    -0.360 N 
HETATM   16  H   UNL     1      24.893  50.477  38.134  1.00  0.00     0.162 HD
HETATM   17  O   UNL     1      24.342  48.517  36.955  1.00  0.00    -0.273 OA
BRANCH  15  18
HETATM   18  C   UNL     1      27.026  50.518  38.285  1.00  0.00     0.127 C 
BRANCH  18  19
HETATM   19  C   UNL     1      27.070  50.710  39.801  1.00  0.00     0.058 C 
BRANCH  19  20
HETATM   20  C   UNL     1      28.393  51.311  40.210  1.00  0.00    -0.054 A 
HETATM   21  C   UNL     1      29.435  51.439  39.277  1.00  0.00     0.046 A 
HETATM   22  C   UNL     1      30.693  51.913  39.669  1.00  0.00     0.102 A 
HETATM   23  C   UNL     1      30.916  52.265  41.015  1.00  0.00     0.101 A 
HETATM   24  C   UNL     1      29.872  52.156  41.938  1.00  0.00     0.040 A 
HETATM   25  C   UNL     1      28.621  51.680  41.538  1.00  0.00     0.010 A 
BRANCH  22  26
HETATM   26  O   UNL     1      31.769  52.045  38.827  1.00  0.00    -0.353 OA
HETATM   27  C   UNL     1      31.799  51.240  37.658  1.00  0.00     0.210 C 
ENDBRANCH  22  26
BRANCH  23  28
HETATM   28  O   UNL     1      32.180  52.704  41.323  1.00  0.00    -0.353 OA
HETATM   29  C   UNL     1      33.091  51.760  41.866  1.00  0.00     0.210 C 
ENDBRANCH  23  28
ENDBRANCH  19  20
ENDBRANCH  18  19
ENDBRANCH  15  18
ENDBRANCH  13  14
ENDBRANCH  12  13
ENDBRANCH   2  12
BRANCH   1  30
HETATM   30  C   UNL     1      26.262  46.760  40.623  1.00  0.00     0.051 A 
HETATM   31  C   UNL     1      26.029  45.453  41.117  1.00  0.00    -0.013 A 
HETATM   32  C   UNL     1      27.134  44.426  41.166  1.00  0.00     0.052 C 
HETATM   33  C   UNL     1      24.740  45.135  41.587  1.00  0.00     0.042 A 
HETATM   34 CL   UNL     1      24.383  43.594  42.285  1.00  0.00    -0.084 Cl
HETATM   35  C   UNL     1      23.703  46.070  41.534  1.00  0.00     0.024 A 
HETATM   36  C   UNL     1      23.933  47.345  41.026  1.00  0.00     0.004 A 
HETATM   37  C   UNL     1      25.208  47.691  40.586  1.00  0.00     0.031 A 
ENDBRANCH   1  30
BRANCH   6  38
HETATM   38  N   UNL     1      28.163  47.891  42.496  1.00  0.00    -0.384 N 
HETATM   39  H   UNL     1      28.645  47.432  43.253  1.00  0.00     0.157 HD
HETATM   40  H   UNL     1      27.410  48.528  42.725  1.00  0.00     0.157 HD
ENDBRANCH   6  38
TORSDOF 10
ENDMDL
MODEL 6
REMARK VINA RESULT:      -8.2      7.276     11.102
REMARK  10 active torsions:
REMARK  status: ('A' for Active; 'I' for Inactive)
REMARK    1  A    between atoms: C_8  and  N_9 
REMARK    2  A    between atoms: C_10  and  S_11 
REMARK    3  A    between atoms: S_11  and  C_12 
REMARK    4  A    between atoms: C_12  and  C_13 
REMARK       I    between atoms: C_13  and  N_14 
REMARK    5  A    between atoms: N_14  and  C_15 
REMARK    6  A    between atoms: C_15  and  C_16 
REMARK    7  A    between atoms: C_16  and  C_17 
REMARK    8  A    between atoms: C_19  and  O_20 
REMARK    9  A    between atoms: C_22  and  O_23 
REMARK   10  A    between atoms: C_31  and  N_32 
ROOT
HETATM    1  N   UNL     1      16.882  47.740  45.348  1.00  0.00    -0.275 N 
HETATM    2  C   UNL     1      16.263  47.962  46.607  1.00  0.00     0.177 A 
HETATM    3  N   UNL     1      16.487  47.278  47.703  1.00  0.00    -0.204 NA
HETATM    4  C   UNL     1      17.400  46.294  47.556  1.00  0.00     0.162 A 
HETATM    5  C   UNL     1      18.091  45.910  46.439  1.00  0.00     0.081 A 
HETATM    6  C   UNL     1      17.830  46.639  45.234  1.00  0.00     0.124 A 
HETATM    7  N   UNL     1      17.833  45.466  48.549  1.00  0.00    -0.260 N 
HETATM    8  H   UNL     1      17.549  45.460  49.522  1.00  0.00     0.191 HD
HETATM    9  N   UNL     1      18.751  44.570  48.126  1.00  0.00    -0.177 NA
HETATM   10  C   UNL     1      18.919  44.845  46.822  1.00  0.00     0.068 A 
HETATM   11  C   UNL     1      19.887  44.051  46.029  1.00  0.00     0.073 C 
ENDROOT
BRANCH   2  12
HETATM   12  S   UNL     1      15.075  49.268  46.790  1.00  0.00    -0.082 SA
BRANCH  12  13
HETATM   13  C   UNL     1      15.924  50.254  48.058  1.00  0.00     0.185 C 
BRANCH  13  14
HETATM   14  C   UNL     1      16.000  51.728  47.683  1.00  0.00     0.227 C 
HETATM   15  N   UNL     1      17.098  52.441  48.098  1.00  0.00    -0.360 N 
HETATM   16  H   UNL     1      17.039  53.426  47.856  1.00  0.00     0.162 HD
HETATM   17  O   UNL     1      15.159  52.304  46.996  1.00  0.00    -0.273 OA
BRANCH  15  18
HETATM   18  C   UNL     1      18.107  52.003  49.044  1.00  0.00     0.127 C 
BRANCH  18  19
HETATM   19  C   UNL     1      19.536  52.293  48.584  1.00  0.00     0.058 C 
BRANCH  19  20
HETATM   20  C   UNL     1      20.274  51.000  48.337  1.00  0.00    -0.054 A 
HETATM   21  C   UNL     1      21.647  51.010  48.040  1.00  0.00     0.046 A 
HETATM   22  C   UNL     1      22.320  49.823  47.723  1.00  0.00     0.102 A 
HETATM   23  C   UNL     1      21.612  48.606  47.701  1.00  0.00     0.101 A 
HETATM   24  C   UNL     1      20.250  48.595  48.018  1.00  0.00     0.040 A 
HETATM   25  C   UNL     1      19.586  49.784  48.330  1.00  0.00     0.010 A 
BRANCH  22  26
HETATM   26  O   UNL     1      23.652  49.751  47.398  1.00  0.00    -0.353 OA
HETATM   27  C   UNL     1      24.596  49.766  48.458  1.00  0.00     0.210 C 
ENDBRANCH  22  26
BRANCH  23  28
HETATM   28  O   UNL     1      22.337  47.490  47.365  1.00  0.00    -0.353 OA
HETATM   29  C   UNL     1      22.162  46.327  48.161  1.00  0.00     0.210 C 
ENDBRANCH  23  28
ENDBRANCH  19  20
ENDBRANCH  18  19
ENDBRANCH  15  18
ENDBRANCH  13  14
ENDBRANCH  12  13
ENDBRANCH   2  12
BRANCH   1  30
HETATM   30  C   UNL     1      16.619  48.585  44.224  1.00  0.00     0.051 A 
HETATM   31  C   UNL     1      17.382  49.755  43.991  1.00  0.00    -0.013 A 
HETATM   32  C   UNL     1      18.438  50.209  44.968  1.00  0.00     0.052 C 
HETATM   33  C   UNL     1      17.150  50.480  42.805  1.00  0.00     0.042 A 
HETATM   34 CL   UNL     1      18.089  51.872  42.394  1.00  0.00    -0.084 Cl
HETATM   35  C   UNL     1      16.165  50.081  41.898  1.00  0.00     0.024 A 
HETATM   36  C   UNL     1      15.403  48.944  42.146  1.00  0.00     0.004 A 
HETATM   37  C   UNL     1      15.638  48.193  43.295  1.00  0.00     0.031 A 
ENDBRANCH   1  30
BRANCH   6  38
HETATM   38  N   UNL     1      18.407  46.308  44.094  1.00  0.00    -0.384 N 
HETATM   39  H   UNL     1      17.984  45.653  43.453  1.00  0.00     0.157 HD
HETATM   40  H   UNL     1      19.291  46.728  43.835  1.00  0.00     0.157 HD
ENDBRANCH   6  38
TORSDOF 10
ENDMDL
MODEL 7
REMARK VINA RESULT:      -8.1      4.323      9.902
REMARK  10 active torsions:
REMARK  status: ('A' for Active; 'I' for Inactive)
REMARK    1  A    between atoms: C_8  and  N_9 
REMARK    2  A    between atoms: C_10  and  S_11 
REMARK    3  A    between atoms: S_11  and  C_12 
REMARK    4  A    between atoms: C_12  and  C_13 
REMARK       I    between atoms: C_13  and  N_14 
REMARK    5  A    between atoms: N_14  and  C_15 
REMARK    6  A    between atoms: C_15  and  C_16 
REMARK    7  A    between atoms: C_16  and  C_17 
REMARK    8  A    between atoms: C_19  and  O_20 
REMARK    9  A    between atoms: C_22  and  O_23 
REMARK   10  A    between atoms: C_31  and  N_32 
ROOT
HETATM    1  N   UNL     1      21.377  46.150  48.609  1.00  0.00    -0.275 N 
HETATM    2  C   UNL     1      22.125  47.341  48.811  1.00  0.00     0.177 A 
HETATM    3  N   UNL     1      21.626  48.524  49.075  1.00  0.00    -0.204 NA
HETATM    4  C   UNL     1      20.278  48.545  49.152  1.00  0.00     0.162 A 
HETATM    5  C   UNL     1      19.383  47.525  48.976  1.00  0.00     0.081 A 
HETATM    6  C   UNL     1      19.923  46.236  48.663  1.00  0.00     0.124 A 
HETATM    7  N   UNL     1      19.522  49.640  49.446  1.00  0.00    -0.260 N 
HETATM    8  H   UNL     1      19.842  50.580  49.649  1.00  0.00     0.191 HD
HETATM    9  N   UNL     1      18.196  49.379  49.456  1.00  0.00    -0.177 NA
HETATM   10  C   UNL     1      18.106  48.069  49.172  1.00  0.00     0.068 A 
HETATM   11  C   UNL     1      16.772  47.428  49.116  1.00  0.00     0.073 C 
ENDROOT
BRANCH   2  12
HETATM   12  S   UNL     1      23.898  47.297  48.721  1.00  0.00    -0.082 SA
BRANCH  12  13
HETATM   13  C   UNL     1      24.273  47.184  50.496  1.00  0.00     0.185 C 
BRANCH  13  14
HETATM   14  C   UNL     1      25.731  47.503  50.795  1.00  0.00     0.227 C 
HETATM   15  N   UNL     1      26.331  46.848  51.843  1.00  0.00    -0.360 N 
HETATM   16  H   UNL     1      27.282  47.164  52.008  1.00  0.00     0.162 HD
HETATM   17  O   UNL     1      26.414  48.278  50.128  1.00  0.00    -0.273 OA
BRANCH  15  18
HETATM   18  C   UNL     1      25.670  46.034  52.845  1.00  0.00     0.127 C 
BRANCH  18  19
HETATM   19  C   UNL     1      26.095  46.370  54.275  1.00  0.00     0.058 C 
BRANCH  19  20
HETATM   20  C   UNL     1      27.405  45.694  54.600  1.00  0.00    -0.054 A 
HETATM   21  C   UNL     1      27.645  44.372  54.189  1.00  0.00     0.046 A 
HETATM   22  C   UNL     1      28.821  43.709  54.562  1.00  0.00     0.102 A 
HETATM   23  C   UNL     1      29.772  44.374  55.359  1.00  0.00     0.101 A 
HETATM   24  C   UNL     1      29.541  45.697  55.750  1.00  0.00     0.040 A 
HETATM   25  C   UNL     1      28.365  46.350  55.375  1.00  0.00     0.010 A 
BRANCH  22  26
HETATM   26  O   UNL     1      29.120  42.413  54.224  1.00  0.00    -0.353 OA
HETATM   27  C   UNL     1      29.336  42.117  52.852  1.00  0.00     0.210 C 
ENDBRANCH  22  26
BRANCH  23  28
HETATM   28  O   UNL     1      30.890  43.651  55.697  1.00  0.00    -0.353 OA
HETATM   29  C   UNL     1      31.410  43.819  57.008  1.00  0.00     0.210 C 
ENDBRANCH  23  28
ENDBRANCH  19  20
ENDBRANCH  18  19
ENDBRANCH  15  18
ENDBRANCH  13  14
ENDBRANCH  12  13
ENDBRANCH   2  12
BRANCH   1  30
HETATM   30  C   UNL     1      22.018  44.890  48.392  1.00  0.00     0.051 A 
HETATM   31  C   UNL     1      22.382  44.465  47.092  1.00  0.00    -0.013 A 
HETATM   32  C   UNL     1      22.022  45.278  45.873  1.00  0.00     0.052 C 
HETATM   33  C   UNL     1      23.114  43.268  46.958  1.00  0.00     0.042 A 
HETATM   34 CL   UNL     1      23.673  42.712  45.420  1.00  0.00    -0.084 Cl
HETATM   35  C   UNL     1      23.442  42.496  48.076  1.00  0.00     0.024 A 
HETATM   36  C   UNL     1      23.060  42.908  49.349  1.00  0.00     0.004 A 
HETATM   37  C   UNL     1      22.366  44.104  49.507  1.00  0.00     0.031 A 
ENDBRANCH   1  30
BRANCH   6  38
HETATM   38  N   UNL     1      19.137  45.203  48.423  1.00  0.00    -0.384 N 
HETATM   39  H   UNL     1      19.373  44.271  48.729  1.00  0.00     0.157 HD
HETATM   40  H   UNL     1      18.262  45.338  47.933  1.00  0.00     0.157 HD
ENDBRANCH   6  38
TORSDOF 10
ENDMDL
MODEL 8
REMARK VINA RESULT:      -8.1      4.691      8.564
REMARK  10 active torsions:
REMARK  status: ('A' for Active; 'I' for Inactive)
REMARK    1  A    between atoms: C_8  and  N_9 
REMARK    2  A    between atoms: C_10  and  S_11 
REMARK    3  A    between atoms: S_11  and  C_12 
REMARK    4  A    between atoms: C_12  and  C_13 
REMARK       I    between atoms: C_13  and  N_14 
REMARK    5  A    between atoms: N_14  and  C_15 
REMARK    6  A    between atoms: C_15  and  C_16 
REMARK    7  A    between atoms: C_16  and  C_17 
REMARK    8  A    between atoms: C_19  and  O_20 
REMARK    9  A    between atoms: C_22  and  O_23 
REMARK   10  A    between atoms: C_31  and  N_32 
ROOT
HETATM    1  N   UNL     1      24.422  44.357  49.202  1.00  0.00    -0.275 N 
HETATM    2  C   UNL     1      25.196  43.223  48.835  1.00  0.00     0.177 A 
HETATM    3  N   UNL     1      24.842  42.298  47.976  1.00  0.00    -0.204 NA
HETATM    4  C   UNL     1      23.626  42.502  47.424  1.00  0.00     0.162 A 
HETATM    5  C   UNL     1      22.727  43.508  47.650  1.00  0.00     0.081 A 
HETATM    6  C   UNL     1      23.101  44.507  48.606  1.00  0.00     0.124 A 
HETATM    7  N   UNL     1      23.045  41.706  46.482  1.00  0.00    -0.260 N 
HETATM    8  H   UNL     1      23.423  40.866  46.059  1.00  0.00     0.191 HD
HETATM    9  N   UNL     1      21.824  42.142  46.103  1.00  0.00    -0.177 NA
HETATM   10  C   UNL     1      21.625  43.261  46.819  1.00  0.00     0.068 A 
HETATM   11  C   UNL     1      20.368  44.025  46.641  1.00  0.00     0.073 C 
ENDROOT
BRANCH   2  12
HETATM   12  S   UNL     1      26.798  42.976  49.558  1.00  0.00    -0.082 SA
BRANCH  12  13
HETATM   13  C   UNL     1      26.456  41.463  50.505  1.00  0.00     0.185 C 
BRANCH  13  14
HETATM   14  C   UNL     1      27.673  40.552  50.590  1.00  0.00     0.227 C 
HETATM   15  N   UNL     1      28.683  40.908  51.450  1.00  0.00    -0.360 N 
HETATM   16  H   UNL     1      29.479  40.278  51.400  1.00  0.00     0.162 HD
HETATM   17  O   UNL     1      27.785  39.497  49.967  1.00  0.00    -0.273 OA
BRANCH  15  18
HETATM   18  C   UNL     1      28.825  42.175  52.140  1.00  0.00     0.127 C 
BRANCH  18  19
HETATM   19  C   UNL     1      28.070  42.230  53.468  1.00  0.00     0.058 C 
BRANCH  19  20
HETATM   20  C   UNL     1      28.755  43.185  54.416  1.00  0.00    -0.054 A 
HETATM   21  C   UNL     1      28.161  44.416  54.738  1.00  0.00     0.046 A 
HETATM   22  C   UNL     1      28.830  45.344  55.546  1.00  0.00     0.102 A 
HETATM   23  C   UNL     1      30.114  45.040  56.040  1.00  0.00     0.101 A 
HETATM   24  C   UNL     1      30.695  43.805  55.736  1.00  0.00     0.040 A 
HETATM   25  C   UNL     1      30.021  42.886  54.927  1.00  0.00     0.010 A 
BRANCH  22  26
HETATM   26  O   UNL     1      28.331  46.577  55.887  1.00  0.00    -0.353 OA
HETATM   27  C   UNL     1      28.255  47.566  54.872  1.00  0.00     0.210 C 
ENDBRANCH  22  26
BRANCH  23  28
HETATM   28  O   UNL     1      30.711  46.007  56.810  1.00  0.00    -0.353 OA
HETATM   29  C   UNL     1      30.651  45.856  58.221  1.00  0.00     0.210 C 
ENDBRANCH  23  28
ENDBRANCH  19  20
ENDBRANCH  18  19
ENDBRANCH  15  18
ENDBRANCH  13  14
ENDBRANCH  12  13
ENDBRANCH   2  12
BRANCH   1  30
HETATM   30  C   UNL     1      24.926  45.349  50.101  1.00  0.00     0.051 A 
HETATM   31  C   UNL     1      24.837  45.181  51.504  1.00  0.00    -0.013 A 
HETATM   32  C   UNL     1      24.122  43.997  52.108  1.00  0.00     0.052 C 
HETATM   33  C   UNL     1      25.455  46.138  52.333  1.00  0.00     0.042 A 
HETATM   34 CL   UNL     1      25.471  45.973  54.054  1.00  0.00    -0.084 Cl
HETATM   35  C   UNL     1      26.107  47.248  51.790  1.00  0.00     0.024 A 
HETATM   36  C   UNL     1      26.170  47.419  50.411  1.00  0.00     0.004 A 
HETATM   37  C   UNL     1      25.595  46.468  49.572  1.00  0.00     0.031 A 
ENDBRANCH   1  30
BRANCH   6  38
HETATM   38  N   UNL     1      22.278  45.487  48.931  1.00  0.00    -0.384 N 
HETATM   39  H   UNL     1      22.599  46.317  49.407  1.00  0.00     0.157 HD
HETATM   40  H   UNL     1      21.297  45.424  48.688  1.00  0.00     0.157 HD
ENDBRANCH   6  38
TORSDOF 10
ENDMDL
MODEL 9
REMARK VINA RESULT:      -8.0      2.934      4.930
REMARK  10 active torsions:
REMARK  status: ('A' for Active; 'I' for Inactive)
REMARK    1  A    between atoms: C_8  and  N_9 
REMARK    2  A    between atoms: C_10  and  S_11 
REMARK    3  A    between atoms: S_11  and  C_12 
REMARK    4  A    between atoms: C_12  and  C_13 
REMARK       I    between atoms: C_13  and  N_14 
REMARK    5  A    between atoms: N_14  and  C_15 
REMARK    6  A    between atoms: C_15  and  C_16 
REMARK    7  A    between atoms: C_16  and  C_17 
REMARK    8  A    between atoms: C_19  and  O_20 
REMARK    9  A    between atoms: C_22  and  O_23 
REMARK   10  A    between atoms: C_31  and  N_32 
ROOT
HETATM    1  N   UNL     1      27.115  40.793  50.282  1.00  0.00    -0.275 N 
HETATM    2  C   UNL     1      26.110  41.792  50.179  1.00  0.00     0.177 A 
HETATM    3  N   UNL     1      26.093  42.933  50.825  1.00  0.00    -0.204 NA
HETATM    4  C   UNL     1      27.154  43.115  51.640  1.00  0.00     0.162 A 
HETATM    5  C   UNL     1      28.208  42.280  51.894  1.00  0.00     0.081 A 
HETATM    6  C   UNL     1      28.217  41.022  51.208  1.00  0.00     0.124 A 
HETATM    7  N   UNL     1      27.387  44.227  52.393  1.00  0.00    -0.260 N 
HETATM    8  H   UNL     1      26.822  45.066  52.455  1.00  0.00     0.191 HD
HETATM    9  N   UNL     1      28.524  44.144  53.119  1.00  0.00    -0.177 NA
HETATM   10  C   UNL     1      29.039  42.943  52.808  1.00  0.00     0.068 A 
HETATM   11  C   UNL     1      30.319  42.519  53.422  1.00  0.00     0.073 C 
ENDROOT
BRANCH   2  12
HETATM   12  S   UNL     1      24.728  41.546  49.091  1.00  0.00    -0.082 SA
BRANCH  12  13
HETATM   13  C   UNL     1      24.250  43.281  48.838  1.00  0.00     0.185 C 
BRANCH  13  14
HETATM   14  C   UNL     1      22.977  43.640  49.593  1.00  0.00     0.227 C 
HETATM   15  N   UNL     1      22.418  44.874  49.361  1.00  0.00    -0.360 N 
HETATM   16  H   UNL     1      21.608  45.053  49.948  1.00  0.00     0.162 HD
HETATM   17  O   UNL     1      22.397  42.876  50.362  1.00  0.00    -0.273 OA
BRANCH  15  18
HETATM   18  C   UNL     1      23.022  45.973  48.632  1.00  0.00     0.127 C 
BRANCH  18  19
HETATM   19  C   UNL     1      22.077  46.621  47.621  1.00  0.00     0.058 C 
BRANCH  19  20
HETATM   20  C   UNL     1      21.531  47.915  48.175  1.00  0.00    -0.054 A 
HETATM   21  C   UNL     1      20.337  47.923  48.917  1.00  0.00     0.046 A 
HETATM   22  C   UNL     1      19.779  49.129  49.359  1.00  0.00     0.102 A 
HETATM   23  C   UNL     1      20.419  50.346  49.057  1.00  0.00     0.101 A 
HETATM   24  C   UNL     1      21.618  50.334  48.337  1.00  0.00     0.040 A 
HETATM   25  C   UNL     1      22.167  49.127  47.897  1.00  0.00     0.010 A 
BRANCH  22  26
HETATM   26  O   UNL     1      18.605  49.226  50.066  1.00  0.00    -0.353 OA
HETATM   27  C   UNL     1      18.560  48.643  51.360  1.00  0.00     0.210 C 
ENDBRANCH  22  26
BRANCH  23  28
HETATM   28  O   UNL     1      19.800  51.484  49.511  1.00  0.00    -0.353 OA
HETATM   29  C   UNL     1      19.236  52.357  48.543  1.00  0.00     0.210 C 
ENDBRANCH  23  28
ENDBRANCH  19  20
ENDBRANCH  18  19
ENDBRANCH  15  18
ENDBRANCH  13  14
ENDBRANCH  12  13
ENDBRANCH   2  12
BRANCH   1  30
HETATM   30  C   UNL     1      27.078  39.607  49.483  1.00  0.00     0.051 A 
HETATM   31  C   UNL     1      27.640  39.579  48.184  1.00  0.00    -0.013 A 
HETATM   32  C   UNL     1      28.214  40.824  47.552  1.00  0.00     0.052 C 
HETATM   33  C   UNL     1      27.674  38.351  47.495  1.00  0.00     0.042 A 
HETATM   34 CL   UNL     1      28.414  38.202  45.940  1.00  0.00    -0.084 Cl
HETATM   35  C   UNL     1      27.133  37.193  48.060  1.00  0.00     0.024 A 
HETATM   36  C   UNL     1      26.561  37.233  49.328  1.00  0.00     0.004 A 
HETATM   37  C   UNL     1      26.546  38.429  50.040  1.00  0.00     0.031 A 
ENDBRANCH   1  30
BRANCH   6  38
HETATM   38  N   UNL     1      29.163  40.128  51.428  1.00  0.00    -0.384 N 
HETATM   39  H   UNL     1      29.001  39.309  51.994  1.00  0.00     0.157 HD
HETATM   40  H   UNL     1      30.076  40.247  51.008  1.00  0.00     0.157 HD
ENDBRANCH   6  38
TORSDOF 10
ENDMDL
MODEL 10
REMARK VINA RESULT:      -8.0      3.919      9.780
REMARK  10 active torsions:
REMARK  status: ('A' for Active; 'I' for Inactive)
REMARK    1  A    between atoms: C_8  and  N_9 
REMARK    2  A    between atoms: C_10  and  S_11 
REMARK    3  A    between atoms: S_11  and  C_12 
REMARK    4  A    between atoms: C_12  and  C_13 
REMARK       I    between atoms: C_13  and  N_14 
REMARK    5  A    between atoms: N_14  and  C_15 
REMARK    6  A    between atoms: C_15  and  C_16 
REMARK    7  A    between atoms: C_16  and  C_17 
REMARK    8  A    between atoms: C_19  and  O_20 
REMARK    9  A    between atoms: C_22  and  O_23 
REMARK   10  A    between atoms: C_31  and  N_32 
ROOT
HETATM    1  N   UNL     1      24.806  46.200  49.899  1.00  0.00    -0.275 N 
HETATM    2  C   UNL     1      23.603  45.531  49.549  1.00  0.00     0.177 A 
HETATM    3  N   UNL     1      22.601  46.053  48.883  1.00  0.00    -0.204 NA
HETATM    4  C   UNL     1      22.794  47.340  48.525  1.00  0.00     0.162 A 
HETATM    5  C   UNL     1      23.861  48.161  48.774  1.00  0.00     0.081 A 
HETATM    6  C   UNL     1      24.947  47.601  49.523  1.00  0.00     0.124 A 
HETATM    7  N   UNL     1      21.921  48.096  47.800  1.00  0.00    -0.260 N 
HETATM    8  H   UNL     1      21.021  47.819  47.426  1.00  0.00     0.191 HD
HETATM    9  N   UNL     1      22.366  49.354  47.584  1.00  0.00    -0.177 NA
HETATM   10  C   UNL     1      23.569  49.396  48.179  1.00  0.00     0.068 A 
HETATM   11  C   UNL     1      24.364  50.645  48.125  1.00  0.00     0.073 C 
ENDROOT
BRANCH   2  12
HETATM   12  S   UNL     1      23.368  43.834  50.014  1.00  0.00    -0.082 SA
BRANCH  12  13
HETATM   13  C   UNL     1      23.338  43.084  48.359  1.00  0.00     0.185 C 
BRANCH  13  14
HETATM   14  C   UNL     1      23.228  41.566  48.419  1.00  0.00     0.227 C 
HETATM   15  N   UNL     1      24.371  40.848  48.678  1.00  0.00    -0.360 N 
HETATM   16  H   UNL     1      24.218  39.844  48.641  1.00  0.00     0.162 HD
HETATM   17  O   UNL     1      22.172  40.950  48.294  1.00  0.00    -0.273 OA
BRANCH  15  18
HETATM   18  C   UNL     1      25.728  41.359  48.690  1.00  0.00     0.127 C 
BRANCH  18  19
HETATM   19  C   UNL     1      26.675  40.588  47.770  1.00  0.00     0.058 C 
BRANCH  19  20
HETATM   20  C   UNL     1      27.593  39.711  48.586  1.00  0.00    -0.054 A 
HETATM   21  C   UNL     1      27.914  40.055  49.909  1.00  0.00     0.046 A 
HETATM   22  C   UNL     1      28.834  39.296  50.643  1.00  0.00     0.102 A 
HETATM   23  C   UNL     1      29.445  38.175  50.047  1.00  0.00     0.101 A 
HETATM   24  C   UNL     1      29.108  37.822  48.737  1.00  0.00     0.040 A 
HETATM   25  C   UNL     1      28.191  38.587  48.011  1.00  0.00     0.010 A 
BRANCH  22  26
HETATM   26  O   UNL     1      29.220  39.578  51.930  1.00  0.00    -0.353 OA
HETATM   27  C   UNL     1      28.907  40.861  52.451  1.00  0.00     0.210 C 
ENDBRANCH  22  26
BRANCH  23  28
HETATM   28  O   UNL     1      30.348  37.493  50.825  1.00  0.00    -0.353 OA
HETATM   29  C   UNL     1      29.877  36.359  51.539  1.00  0.00     0.210 C 
ENDBRANCH  23  28
ENDBRANCH  19  20
ENDBRANCH  18  19
ENDBRANCH  15  18
ENDBRANCH  13  14
ENDBRANCH  12  13
ENDBRANCH   2  12
BRANCH   1  30
HETATM   30  C   UNL     1      25.872  45.523  50.570  1.00  0.00     0.051 A 
HETATM   31  C   UNL     1      26.053  45.643  51.969  1.00  0.00    -0.013 A 
HETATM   32  C   UNL     1      25.190  46.566  52.794  1.00  0.00     0.052 C 
HETATM   33  C   UNL     1      27.049  44.860  52.586  1.00  0.00     0.042 A 
HETATM   34 CL   UNL     1      27.288  44.878  54.298  1.00  0.00    -0.084 Cl
HETATM   35  C   UNL     1      27.867  44.012  51.834  1.00  0.00     0.024 A 
HETATM   36  C   UNL     1      27.699  43.917  50.456  1.00  0.00     0.004 A 
HETATM   37  C   UNL     1      26.699  44.657  49.831  1.00  0.00     0.031 A 
ENDBRANCH   1  30
BRANCH   6  38
HETATM   38  N   UNL     1      25.994  48.330  49.860  1.00  0.00    -0.384 N 
HETATM   39  H   UNL     1      26.867  47.910  50.143  1.00  0.00     0.157 HD
HETATM   40  H   UNL     1      25.940  49.340  49.821  1.00  0.00     0.157 HD
ENDBRANCH   6  38
TORSDOF 10
ENDMDL
