MODEL 1
REMARK VINA RESULT:      -8.3      0.000      0.000
REMARK  11 active torsions:
REMARK  status: ('A' for Active; 'I' for Inactive)
REMARK    1  A    between atoms: C_2  and  O_3 
REMARK    2  A    between atoms: O_3  and  C_4 
REMARK    3  A    between atoms: C_7  and  C_8 
REMARK       I    between atoms: C_8  and  N_9 
REMARK    4  A    between atoms: N_9  and  C_10 
REMARK    5  A    between atoms: C_10  and  N_11 
REMARK    6  A    between atoms: N_11  and  C_12 
REMARK    7  A    between atoms: C_13  and  C_14 
REMARK       I    between atoms: C_14  and  N_15 
REMARK    8  A    between atoms: N_15  and  C_16 
REMARK    9  A    between atoms: C_16  and  C_17 
REMARK   10  A    between atoms: C_17  and  C_18 
REMARK   11  A    between atoms: C_18  and  O_19 
ROOT
HETATM    1  N   UNL     1      24.663  47.066  50.607  1.00  0.00    -0.332 N 
HETATM    2  H   UNL     1      24.306  47.355  51.515  1.00  0.00     0.168 HD
ENDROOT
BRANCH   1   3
HETATM    3  C   UNL     1      24.742  45.682  50.450  1.00  0.00     0.179 C 
HETATM    4  S   UNL     1      24.176  44.836  49.123  1.00  0.00    -0.040 SA
BRANCH   3   5
HETATM    5  N   UNL     1      25.424  45.136  51.547  1.00  0.00    -0.299 N 
HETATM    6  C   UNL     1      25.917  45.799  52.668  1.00  0.00     0.257 C 
HETATM    7  O   UNL     1      25.420  46.794  53.182  1.00  0.00    -0.267 OA
HETATM    8  H   UNL     1      25.896  44.280  51.296  1.00  0.00     0.171 HD
BRANCH   6   9
HETATM    9  C   UNL     1      27.097  45.179  53.328  1.00  0.00     0.032 A 
HETATM   10  C   UNL     1      27.727  44.115  52.669  1.00  0.00     0.020 A 
HETATM   11  C   UNL     1      28.847  43.493  53.231  1.00  0.00     0.038 A 
HETATM   12  C   UNL     1      29.354  43.940  54.450  1.00  0.00     0.068 A 
HETATM   13  C   UNL     1      28.726  45.003  55.106  1.00  0.00     0.038 A 
HETATM   14  C   UNL     1      27.606  45.629  54.550  1.00  0.00     0.020 A 
BRANCH  12  15
HETATM   15  O   UNL     1      30.447  43.432  55.098  1.00  0.00    -0.352 OA
BRANCH  15  16
HETATM   16  C   UNL     1      30.983  44.213  56.167  1.00  0.00     0.171 C 
HETATM   17  C   UNL     1      31.628  43.266  57.163  1.00  0.00     0.034 C 
ENDBRANCH  15  16
ENDBRANCH  12  15
ENDBRANCH   6   9
ENDBRANCH   3   5
ENDBRANCH   1   3
BRANCH   1  18
HETATM   18  C   UNL     1      25.354  48.073  49.882  1.00  0.00     0.050 A 
HETATM   19  C   UNL     1      24.646  49.003  49.098  1.00  0.00     0.058 A 
HETATM   20  C   UNL     1      25.332  49.908  48.273  1.00  0.00     0.019 A 
HETATM   21  C   UNL     1      26.725  49.908  48.240  1.00  0.00     0.001 A 
HETATM   22  C   UNL     1      27.434  48.999  49.020  1.00  0.00     0.002 A 
HETATM   23  C   UNL     1      26.755  48.081  49.828  1.00  0.00     0.030 A 
BRANCH  19  24
HETATM   24  C   UNL     1      23.166  49.125  49.131  1.00  0.00     0.253 C 
HETATM   25  N   UNL     1      22.677  50.416  49.085  1.00  0.00    -0.357 N 
HETATM   26  H   UNL     1      23.326  51.163  48.854  1.00  0.00     0.162 HD
HETATM   27  O   UNL     1      22.461  48.126  49.161  1.00  0.00    -0.268 OA
BRANCH  25  28
HETATM   28  C   UNL     1      21.261  50.676  48.899  1.00  0.00     0.125 C 
BRANCH  28  29
HETATM   29  C   UNL     1      20.555  50.898  50.232  1.00  0.00     0.046 C 
BRANCH  29  30
HETATM   30  C   UNL     1      19.363  49.966  50.391  1.00  0.00     0.165 C 
BRANCH  30  31
HETATM   31  O   UNL     1      19.785  48.612  50.302  1.00  0.00    -0.401 OA
HETATM   32  H   UNL     1      19.010  48.070  50.076  1.00  0.00     0.209 HD
ENDBRANCH  30  31
ENDBRANCH  29  30
ENDBRANCH  28  29
ENDBRANCH  25  28
ENDBRANCH  19  24
ENDBRANCH   1  18
TORSDOF 11
ENDMDL
MODEL 2
REMARK VINA RESULT:      -8.3      1.318      1.664
REMARK  11 active torsions:
REMARK  status: ('A' for Active; 'I' for Inactive)
REMARK    1  A    between atoms: C_2  and  O_3 
REMARK    2  A    between atoms: O_3  and  C_4 
REMARK    3  A    between atoms: C_7  and  C_8 
REMARK       I    between atoms: C_8  and  N_9 
REMARK    4  A    between atoms: N_9  and  C_10 
REMARK    5  A    between atoms: C_10  and  N_11 
REMARK    6  A    between atoms: N_11  and  C_12 
REMARK    7  A    between atoms: C_13  and  C_14 
REMARK       I    between atoms: C_14  and  N_15 
REMARK    8  A    between atoms: N_15  and  C_16 
REMARK    9  A    between atoms: C_16  and  C_17 
REMARK   10  A    between atoms: C_17  and  C_18 
REMARK   11  A    between atoms: C_18  and  O_19 
ROOT
HETATM    1  N   UNL     1      24.585  47.013  50.626  1.00  0.00    -0.332 N 
HETATM    2  H   UNL     1      24.052  47.320  51.436  1.00  0.00     0.168 HD
ENDROOT
BRANCH   1   3
HETATM    3  C   UNL     1      25.007  45.685  50.703  1.00  0.00     0.179 C 
HETATM    4  S   UNL     1      24.898  44.574  49.458  1.00  0.00    -0.040 SA
BRANCH   3   5
HETATM    5  N   UNL     1      25.587  45.463  51.960  1.00  0.00    -0.299 N 
HETATM    6  C   UNL     1      25.925  46.404  52.929  1.00  0.00     0.257 C 
HETATM    7  O   UNL     1      25.331  47.456  53.136  1.00  0.00    -0.267 OA
HETATM    8  H   UNL     1      26.121  44.606  51.971  1.00  0.00     0.171 HD
BRANCH   6   9
HETATM    9  C   UNL     1      27.051  46.040  53.830  1.00  0.00     0.032 A 
HETATM   10  C   UNL     1      27.438  46.975  54.798  1.00  0.00     0.020 A 
HETATM   11  C   UNL     1      28.484  46.693  55.682  1.00  0.00     0.038 A 
HETATM   12  C   UNL     1      29.142  45.466  55.614  1.00  0.00     0.068 A 
HETATM   13  C   UNL     1      28.755  44.532  54.648  1.00  0.00     0.038 A 
HETATM   14  C   UNL     1      27.709  44.809  53.761  1.00  0.00     0.020 A 
BRANCH  12  15
HETATM   15  O   UNL     1      30.167  45.059  56.425  1.00  0.00    -0.352 OA
BRANCH  15  16
HETATM   16  C   UNL     1      31.029  44.043  55.913  1.00  0.00     0.171 C 
HETATM   17  C   UNL     1      31.469  43.170  57.076  1.00  0.00     0.034 C 
ENDBRANCH  15  16
ENDBRANCH  12  15
ENDBRANCH   6   9
ENDBRANCH   3   5
ENDBRANCH   1   3
BRANCH   1  18
HETATM   18  C   UNL     1      25.111  48.057  49.819  1.00  0.00     0.050 A 
HETATM   19  C   UNL     1      24.253  48.892  49.080  1.00  0.00     0.058 A 
HETATM   20  C   UNL     1      24.776  49.831  48.177  1.00  0.00     0.019 A 
HETATM   21  C   UNL     1      26.155  49.959  48.020  1.00  0.00     0.001 A 
HETATM   22  C   UNL     1      27.011  49.144  48.755  1.00  0.00     0.002 A 
HETATM   23  C   UNL     1      26.495  48.193  49.641  1.00  0.00     0.030 A 
BRANCH  19  24
HETATM   24  C   UNL     1      22.777  48.877  49.242  1.00  0.00     0.253 C 
HETATM   25  N   UNL     1      22.214  50.068  49.657  1.00  0.00    -0.357 N 
HETATM   26  H   UNL     1      22.799  50.899  49.648  1.00  0.00     0.162 HD
HETATM   27  O   UNL     1      22.134  47.869  48.981  1.00  0.00    -0.268 OA
BRANCH  25  28
HETATM   28  C   UNL     1      20.775  50.259  49.654  1.00  0.00     0.125 C 
BRANCH  28  29
HETATM   29  C   UNL     1      20.387  51.567  48.973  1.00  0.00     0.046 C 
BRANCH  29  30
HETATM   30  C   UNL     1      18.889  51.815  49.059  1.00  0.00     0.165 C 
BRANCH  30  31
HETATM   31  O   UNL     1      18.529  52.920  48.239  1.00  0.00    -0.401 OA
HETATM   32  H   UNL     1      18.085  52.573  47.446  1.00  0.00     0.209 HD
ENDBRANCH  30  31
ENDBRANCH  29  30
ENDBRANCH  28  29
ENDBRANCH  25  28
ENDBRANCH  19  24
ENDBRANCH   1  18
TORSDOF 11
ENDMDL
MODEL 3
REMARK VINA RESULT:      -7.7      2.399      9.061
REMARK  11 active torsions:
REMARK  status: ('A' for Active; 'I' for Inactive)
REMARK    1  A    between atoms: C_2  and  O_3 
REMARK    2  A    between atoms: O_3  and  C_4 
REMARK    3  A    between atoms: C_7  and  C_8 
REMARK       I    between atoms: C_8  and  N_9 
REMARK    4  A    between atoms: N_9  and  C_10 
REMARK    5  A    between atoms: C_10  and  N_11 
REMARK    6  A    between atoms: N_11  and  C_12 
REMARK    7  A    between atoms: C_13  and  C_14 
REMARK       I    between atoms: C_14  and  N_15 
REMARK    8  A    between atoms: N_15  and  C_16 
REMARK    9  A    between atoms: C_16  and  C_17 
REMARK   10  A    between atoms: C_17  and  C_18 
REMARK   11  A    between atoms: C_18  and  O_19 
ROOT
HETATM    1  N   UNL     1      26.275  43.949  53.093  1.00  0.00    -0.332 N 
HETATM    2  H   UNL     1      26.031  43.204  53.743  1.00  0.00     0.168 HD
ENDROOT
BRANCH   1   3
HETATM    3  C   UNL     1      26.495  43.504  51.789  1.00  0.00     0.179 C 
HETATM    4  S   UNL     1      27.301  42.096  51.383  1.00  0.00    -0.040 SA
BRANCH   3   5
HETATM    5  N   UNL     1      25.881  44.391  50.894  1.00  0.00    -0.299 N 
HETATM    6  C   UNL     1      26.484  45.351  50.086  1.00  0.00     0.257 C 
HETATM    7  O   UNL     1      27.600  45.261  49.587  1.00  0.00    -0.267 OA
HETATM    8  H   UNL     1      24.923  44.573  51.157  1.00  0.00     0.171 HD
BRANCH   6   9
HETATM    9  C   UNL     1      25.652  46.537  49.746  1.00  0.00     0.032 A 
HETATM   10  C   UNL     1      26.311  47.752  49.523  1.00  0.00     0.020 A 
HETATM   11  C   UNL     1      25.589  48.903  49.191  1.00  0.00     0.038 A 
HETATM   12  C   UNL     1      24.203  48.844  49.067  1.00  0.00     0.068 A 
HETATM   13  C   UNL     1      23.545  47.630  49.289  1.00  0.00     0.038 A 
HETATM   14  C   UNL     1      24.261  46.475  49.621  1.00  0.00     0.020 A 
BRANCH  12  15
HETATM   15  O   UNL     1      23.382  49.887  48.735  1.00  0.00    -0.352 OA
BRANCH  15  16
HETATM   16  C   UNL     1      21.989  49.721  49.001  1.00  0.00     0.171 C 
HETATM   17  C   UNL     1      21.333  51.090  48.941  1.00  0.00     0.034 C 
ENDBRANCH  15  16
ENDBRANCH  12  15
ENDBRANCH   6   9
ENDBRANCH   3   5
ENDBRANCH   1   3
BRANCH   1  18
HETATM   18  C   UNL     1      26.718  45.155  53.697  1.00  0.00     0.050 A 
HETATM   19  C   UNL     1      27.820  45.154  54.573  1.00  0.00     0.058 A 
HETATM   20  C   UNL     1      28.172  46.316  55.276  1.00  0.00     0.019 A 
HETATM   21  C   UNL     1      27.444  47.491  55.096  1.00  0.00     0.001 A 
HETATM   22  C   UNL     1      26.360  47.504  54.224  1.00  0.00     0.002 A 
HETATM   23  C   UNL     1      25.992  46.344  53.536  1.00  0.00     0.030 A 
BRANCH  19  24
HETATM   24  C   UNL     1      28.696  43.970  54.765  1.00  0.00     0.253 C 
HETATM   25  N   UNL     1      29.977  44.245  55.202  1.00  0.00    -0.357 N 
HETATM   26  H   UNL     1      30.176  45.187  55.529  1.00  0.00     0.162 HD
HETATM   27  O   UNL     1      28.265  42.841  54.574  1.00  0.00    -0.268 OA
BRANCH  25  28
HETATM   28  C   UNL     1      30.868  43.183  55.632  1.00  0.00     0.125 C 
BRANCH  28  29
HETATM   29  C   UNL     1      31.419  43.448  57.028  1.00  0.00     0.046 C 
BRANCH  29  30
HETATM   30  C   UNL     1      30.937  44.785  57.572  1.00  0.00     0.165 C 
BRANCH  30  31
HETATM   31  O   UNL     1      31.516  45.032  58.846  1.00  0.00    -0.401 OA
HETATM   32  H   UNL     1      30.845  45.465  59.401  1.00  0.00     0.209 HD
ENDBRANCH  30  31
ENDBRANCH  29  30
ENDBRANCH  28  29
ENDBRANCH  25  28
ENDBRANCH  19  24
ENDBRANCH   1  18
TORSDOF 11
ENDMDL
MODEL 4
REMARK VINA RESULT:      -7.6      2.591      9.667
REMARK  11 active torsions:
REMARK  status: ('A' for Active; 'I' for Inactive)
REMARK    1  A    between atoms: C_2  and  O_3 
REMARK    2  A    between atoms: O_3  and  C_4 
REMARK    3  A    between atoms: C_7  and  C_8 
REMARK       I    between atoms: C_8  and  N_9 
REMARK    4  A    between atoms: N_9  and  C_10 
REMARK    5  A    between atoms: C_10  and  N_11 
REMARK    6  A    between atoms: N_11  and  C_12 
REMARK    7  A    between atoms: C_13  and  C_14 
REMARK       I    between atoms: C_14  and  N_15 
REMARK    8  A    between atoms: N_15  and  C_16 
REMARK    9  A    between atoms: C_16  and  C_17 
REMARK   10  A    between atoms: C_17  and  C_18 
REMARK   11  A    between atoms: C_18  and  O_19 
ROOT
HETATM    1  N   UNL     1      23.524  48.252  49.742  1.00  0.00    -0.332 N 
HETATM    2  H   UNL     1      23.359  48.095  50.734  1.00  0.00     0.168 HD
ENDROOT
BRANCH   1   3
HETATM    3  C   UNL     1      22.468  47.838  48.927  1.00  0.00     0.179 C 
HETATM    4  S   UNL     1      22.210  46.264  48.424  1.00  0.00    -0.040 SA
BRANCH   3   5
HETATM    5  N   UNL     1      21.640  48.936  48.660  1.00  0.00    -0.299 N 
HETATM    6  C   UNL     1      21.453  50.080  49.432  1.00  0.00     0.257 C 
HETATM    7  O   UNL     1      22.302  50.604  50.144  1.00  0.00    -0.267 OA
HETATM    8  H   UNL     1      20.870  48.678  48.060  1.00  0.00     0.171 HD
BRANCH   6   9
HETATM    9  C   UNL     1      20.131  50.750  49.301  1.00  0.00     0.032 A 
HETATM   10  C   UNL     1      20.062  51.900  48.505  1.00  0.00     0.020 A 
HETATM   11  C   UNL     1      18.848  52.574  48.333  1.00  0.00     0.038 A 
HETATM   12  C   UNL     1      17.691  52.093  48.944  1.00  0.00     0.068 A 
HETATM   13  C   UNL     1      17.761  50.944  49.737  1.00  0.00     0.038 A 
HETATM   14  C   UNL     1      18.972  50.265  49.914  1.00  0.00     0.020 A 
BRANCH  12  15
HETATM   15  O   UNL     1      16.443  52.645  48.845  1.00  0.00    -0.352 OA
BRANCH  15  16
HETATM   16  C   UNL     1      15.622  52.595  50.012  1.00  0.00     0.171 C 
HETATM   17  C   UNL     1      15.520  54.002  50.575  1.00  0.00     0.034 C 
ENDBRANCH  15  16
ENDBRANCH  12  15
ENDBRANCH   6   9
ENDBRANCH   3   5
ENDBRANCH   1   3
BRANCH   1  18
HETATM   18  C   UNL     1      24.880  48.465  49.380  1.00  0.00     0.050 A 
HETATM   19  C   UNL     1      25.881  47.569  49.798  1.00  0.00     0.058 A 
HETATM   20  C   UNL     1      27.235  47.852  49.561  1.00  0.00     0.019 A 
HETATM   21  C   UNL     1      27.600  49.017  48.889  1.00  0.00     0.001 A 
HETATM   22  C   UNL     1      26.616  49.904  48.462  1.00  0.00     0.002 A 
HETATM   23  C   UNL     1      25.266  49.637  48.714  1.00  0.00     0.030 A 
BRANCH  19  24
HETATM   24  C   UNL     1      25.579  46.270  50.452  1.00  0.00     0.253 C 
HETATM   25  N   UNL     1      26.389  45.215  50.078  1.00  0.00    -0.357 N 
HETATM   26  H   UNL     1      27.226  45.426  49.540  1.00  0.00     0.162 HD
HETATM   27  O   UNL     1      24.688  46.187  51.286  1.00  0.00    -0.268 OA
BRANCH  25  28
HETATM   28  C   UNL     1      26.346  43.948  50.784  1.00  0.00     0.125 C 
BRANCH  28  29
HETATM   29  C   UNL     1      27.236  43.970  52.023  1.00  0.00     0.046 C 
BRANCH  29  30
HETATM   30  C   UNL     1      26.411  43.905  53.300  1.00  0.00     0.165 C 
BRANCH  30  31
HETATM   31  O   UNL     1      25.045  43.669  52.988  1.00  0.00    -0.401 OA
HETATM   32  H   UNL     1      24.531  43.756  53.809  1.00  0.00     0.209 HD
ENDBRANCH  30  31
ENDBRANCH  29  30
ENDBRANCH  28  29
ENDBRANCH  25  28
ENDBRANCH  19  24
ENDBRANCH   1  18
TORSDOF 11
ENDMDL
MODEL 5
REMARK VINA RESULT:      -7.5     11.914     14.848
REMARK  11 active torsions:
REMARK  status: ('A' for Active; 'I' for Inactive)
REMARK    1  A    between atoms: C_2  and  O_3 
REMARK    2  A    between atoms: O_3  and  C_4 
REMARK    3  A    between atoms: C_7  and  C_8 
REMARK       I    between atoms: C_8  and  N_9 
REMARK    4  A    between atoms: N_9  and  C_10 
REMARK    5  A    between atoms: C_10  and  N_11 
REMARK    6  A    between atoms: N_11  and  C_12 
REMARK    7  A    between atoms: C_13  and  C_14 
REMARK       I    between atoms: C_14  and  N_15 
REMARK    8  A    between atoms: N_15  and  C_16 
REMARK    9  A    between atoms: C_16  and  C_17 
REMARK   10  A    between atoms: C_17  and  C_18 
REMARK   11  A    between atoms: C_18  and  O_19 
ROOT
HETATM    1  N   UNL     1      35.241  50.193  41.175  1.00  0.00    -0.332 N 
HETATM    2  H   UNL     1      35.963  49.525  41.436  1.00  0.00     0.168 HD
ENDROOT
BRANCH   1   3
HETATM    3  C   UNL     1      35.512  50.877  39.989  1.00  0.00     0.179 C 
HETATM    4  S   UNL     1      37.043  51.155  39.376  1.00  0.00    -0.040 SA
BRANCH   3   5
HETATM    5  N   UNL     1      34.302  51.228  39.377  1.00  0.00    -0.299 N 
HETATM    6  C   UNL     1      33.563  52.397  39.543  1.00  0.00     0.257 C 
HETATM    7  O   UNL     1      34.029  53.506  39.778  1.00  0.00    -0.267 OA
HETATM    8  H   UNL     1      33.779  50.410  39.101  1.00  0.00     0.171 HD
BRANCH   6   9
HETATM    9  C   UNL     1      32.095  52.279  39.329  1.00  0.00     0.032 A 
HETATM   10  C   UNL     1      31.657  51.635  38.165  1.00  0.00     0.020 A 
HETATM   11  C   UNL     1      30.291  51.484  37.907  1.00  0.00     0.038 A 
HETATM   12  C   UNL     1      29.352  51.962  38.819  1.00  0.00     0.068 A 
HETATM   13  C   UNL     1      29.790  52.604  39.982  1.00  0.00     0.038 A 
HETATM   14  C   UNL     1      31.155  52.759  40.246  1.00  0.00     0.020 A 
BRANCH  12  15
HETATM   15  O   UNL     1      27.993  51.866  38.696  1.00  0.00    -0.352 OA
BRANCH  15  16
HETATM   16  C   UNL     1      27.343  50.871  39.487  1.00  0.00     0.171 C 
HETATM   17  C   UNL     1      26.575  49.954  38.551  1.00  0.00     0.034 C 
ENDBRANCH  15  16
ENDBRANCH  12  15
ENDBRANCH   6   9
ENDBRANCH   3   5
ENDBRANCH   1   3
BRANCH   1  18
HETATM   18  C   UNL     1      34.359  50.568  42.223  1.00  0.00     0.050 A 
HETATM   19  C   UNL     1      33.066  50.017  42.301  1.00  0.00     0.058 A 
HETATM   20  C   UNL     1      32.147  50.489  43.251  1.00  0.00     0.019 A 
HETATM   21  C   UNL     1      32.515  51.495  44.142  1.00  0.00     0.001 A 
HETATM   22  C   UNL     1      33.795  52.038  44.079  1.00  0.00     0.002 A 
HETATM   23  C   UNL     1      34.708  51.586  43.121  1.00  0.00     0.030 A 
BRANCH  19  24
HETATM   24  C   UNL     1      32.616  48.891  41.443  1.00  0.00     0.253 C 
HETATM   25  N   UNL     1      31.415  49.087  40.790  1.00  0.00    -0.357 N 
HETATM   26  H   UNL     1      31.020  50.023  40.790  1.00  0.00     0.162 HD
HETATM   27  O   UNL     1      33.307  47.889  41.321  1.00  0.00    -0.268 OA
BRANCH  25  28
HETATM   28  C   UNL     1      30.960  48.167  39.764  1.00  0.00     0.125 C 
BRANCH  28  29
HETATM   29  C   UNL     1      29.497  47.787  39.964  1.00  0.00     0.046 C 
BRANCH  29  30
HETATM   30  C   UNL     1      28.996  48.209  41.337  1.00  0.00     0.165 C 
BRANCH  30  31
HETATM   31  O   UNL     1      27.666  47.749  41.535  1.00  0.00    -0.401 OA
HETATM   32  H   UNL     1      27.139  48.494  41.873  1.00  0.00     0.209 HD
ENDBRANCH  30  31
ENDBRANCH  29  30
ENDBRANCH  28  29
ENDBRANCH  25  28
ENDBRANCH  19  24
ENDBRANCH   1  18
TORSDOF 11
ENDMDL
MODEL 6
REMARK VINA RESULT:      -7.5      1.983      2.866
REMARK  11 active torsions:
REMARK  status: ('A' for Active; 'I' for Inactive)
REMARK    1  A    between atoms: C_2  and  O_3 
REMARK    2  A    between atoms: O_3  and  C_4 
REMARK    3  A    between atoms: C_7  and  C_8 
REMARK       I    between atoms: C_8  and  N_9 
REMARK    4  A    between atoms: N_9  and  C_10 
REMARK    5  A    between atoms: C_10  and  N_11 
REMARK    6  A    between atoms: N_11  and  C_12 
REMARK    7  A    between atoms: C_13  and  C_14 
REMARK       I    between atoms: C_14  and  N_15 
REMARK    8  A    between atoms: N_15  and  C_16 
REMARK    9  A    between atoms: C_16  and  C_17 
REMARK   10  A    between atoms: C_17  and  C_18 
REMARK   11  A    between atoms: C_18  and  O_19 
ROOT
HETATM    1  N   UNL     1      24.372  47.117  50.524  1.00  0.00    -0.332 N 
HETATM    2  H   UNL     1      23.869  47.667  51.216  1.00  0.00     0.168 HD
ENDROOT
BRANCH   1   3
HETATM    3  C   UNL     1      25.760  47.216  50.632  1.00  0.00     0.179 C 
HETATM    4  S   UNL     1      26.741  48.071  49.581  1.00  0.00    -0.040 SA
BRANCH   3   5
HETATM    5  N   UNL     1      26.179  46.543  51.788  1.00  0.00    -0.299 N 
HETATM    6  C   UNL     1      26.192  47.014  53.098  1.00  0.00     0.257 C 
HETATM    7  O   UNL     1      25.392  47.810  53.576  1.00  0.00    -0.267 OA
HETATM    8  H   UNL     1      26.852  45.823  51.570  1.00  0.00     0.171 HD
BRANCH   6   9
HETATM    9  C   UNL     1      27.220  46.421  53.996  1.00  0.00     0.032 A 
HETATM   10  C   UNL     1      27.634  47.178  55.099  1.00  0.00     0.020 A 
HETATM   11  C   UNL     1      28.591  46.676  55.987  1.00  0.00     0.038 A 
HETATM   12  C   UNL     1      29.131  45.407  55.786  1.00  0.00     0.068 A 
HETATM   13  C   UNL     1      28.716  44.652  54.685  1.00  0.00     0.038 A 
HETATM   14  C   UNL     1      27.759  45.148  53.793  1.00  0.00     0.020 A 
BRANCH  12  15
HETATM   15  O   UNL     1      30.059  44.794  56.584  1.00  0.00    -0.352 OA
BRANCH  15  16
HETATM   16  C   UNL     1      30.769  43.694  56.017  1.00  0.00     0.171 C 
HETATM   17  C   UNL     1      31.818  43.245  57.019  1.00  0.00     0.034 C 
ENDBRANCH  15  16
ENDBRANCH  12  15
ENDBRANCH   6   9
ENDBRANCH   3   5
ENDBRANCH   1   3
BRANCH   1  18
HETATM   18  C   UNL     1      23.606  46.713  49.399  1.00  0.00     0.050 A 
HETATM   19  C   UNL     1      22.634  47.571  48.850  1.00  0.00     0.058 A 
HETATM   20  C   UNL     1      21.782  47.121  47.830  1.00  0.00     0.019 A 
HETATM   21  C   UNL     1      21.905  45.825  47.335  1.00  0.00     0.001 A 
HETATM   22  C   UNL     1      22.870  44.973  47.864  1.00  0.00     0.002 A 
HETATM   23  C   UNL     1      23.708  45.409  48.895  1.00  0.00     0.030 A 
BRANCH  19  24
HETATM   24  C   UNL     1      22.485  48.990  49.264  1.00  0.00     0.253 C 
HETATM   25  N   UNL     1      21.189  49.406  49.495  1.00  0.00    -0.357 N 
HETATM   26  H   UNL     1      20.463  48.697  49.546  1.00  0.00     0.162 HD
HETATM   27  O   UNL     1      23.471  49.700  49.413  1.00  0.00    -0.268 OA
BRANCH  25  28
HETATM   28  C   UNL     1      20.912  50.695  50.103  1.00  0.00     0.125 C 
BRANCH  28  29
HETATM   29  C   UNL     1      19.991  51.538  49.228  1.00  0.00     0.046 C 
BRANCH  29  30
HETATM   30  C   UNL     1      19.286  50.687  48.182  1.00  0.00     0.165 C 
BRANCH  30  31
HETATM   31  O   UNL     1      20.116  50.532  47.038  1.00  0.00    -0.401 OA
HETATM   32  H   UNL     1      20.357  51.419  46.721  1.00  0.00     0.209 HD
ENDBRANCH  30  31
ENDBRANCH  29  30
ENDBRANCH  28  29
ENDBRANCH  25  28
ENDBRANCH  19  24
ENDBRANCH   1  18
TORSDOF 11
ENDMDL
MODEL 7
REMARK VINA RESULT:      -7.4      3.653      5.555
REMARK  11 active torsions:
REMARK  status: ('A' for Active; 'I' for Inactive)
REMARK    1  A    between atoms: C_2  and  O_3 
REMARK    2  A    between atoms: O_3  and  C_4 
REMARK    3  A    between atoms: C_7  and  C_8 
REMARK       I    between atoms: C_8  and  N_9 
REMARK    4  A    between atoms: N_9  and  C_10 
REMARK    5  A    between atoms: C_10  and  N_11 
REMARK    6  A    between atoms: N_11  and  C_12 
REMARK    7  A    between atoms: C_13  and  C_14 
REMARK       I    between atoms: C_14  and  N_15 
REMARK    8  A    between atoms: N_15  and  C_16 
REMARK    9  A    between atoms: C_16  and  C_17 
REMARK   10  A    between atoms: C_17  and  C_18 
REMARK   11  A    between atoms: C_18  and  O_19 
ROOT
HETATM    1  N   UNL     1      26.812  42.080  49.466  1.00  0.00    -0.332 N 
HETATM    2  H   UNL     1      27.423  42.653  48.888  1.00  0.00     0.168 HD
ENDROOT
BRANCH   1   3
HETATM    3  C   UNL     1      27.497  41.276  50.378  1.00  0.00     0.179 C 
HETATM    4  S   UNL     1      28.095  39.750  50.044  1.00  0.00    -0.040 SA
BRANCH   3   5
HETATM    5  N   UNL     1      27.653  41.978  51.581  1.00  0.00    -0.299 N 
HETATM    6  C   UNL     1      28.089  43.288  51.760  1.00  0.00     0.257 C 
HETATM    7  O   UNL     1      27.899  44.214  50.980  1.00  0.00    -0.267 OA
HETATM    8  H   UNL     1      27.812  41.349  52.355  1.00  0.00     0.171 HD
BRANCH   6   9
HETATM    9  C   UNL     1      28.764  43.582  53.053  1.00  0.00     0.032 A 
HETATM   10  C   UNL     1      29.940  42.881  53.347  1.00  0.00     0.020 A 
HETATM   11  C   UNL     1      30.629  43.115  54.541  1.00  0.00     0.038 A 
HETATM   12  C   UNL     1      30.154  44.064  55.445  1.00  0.00     0.068 A 
HETATM   13  C   UNL     1      28.980  44.765  55.150  1.00  0.00     0.038 A 
HETATM   14  C   UNL     1      28.287  44.535  53.957  1.00  0.00     0.020 A 
BRANCH  12  15
HETATM   15  O   UNL     1      30.737  44.399  56.636  1.00  0.00    -0.352 OA
BRANCH  15  16
HETATM   16  C   UNL     1      30.466  45.707  57.141  1.00  0.00     0.171 C 
HETATM   17  C   UNL     1      30.114  45.580  58.612  1.00  0.00     0.034 C 
ENDBRANCH  15  16
ENDBRANCH  12  15
ENDBRANCH   6   9
ENDBRANCH   3   5
ENDBRANCH   1   3
BRANCH   1  18
HETATM   18  C   UNL     1      25.490  41.920  48.974  1.00  0.00     0.050 A 
HETATM   19  C   UNL     1      24.415  42.598  49.579  1.00  0.00     0.058 A 
HETATM   20  C   UNL     1      23.094  42.334  49.184  1.00  0.00     0.019 A 
HETATM   21  C   UNL     1      22.837  41.412  48.172  1.00  0.00     0.001 A 
HETATM   22  C   UNL     1      23.894  40.745  47.560  1.00  0.00     0.002 A 
HETATM   23  C   UNL     1      25.211  40.989  47.964  1.00  0.00     0.030 A 
BRANCH  19  24
HETATM   24  C   UNL     1      24.603  43.651  50.610  1.00  0.00     0.253 C 
HETATM   25  N   UNL     1      24.690  44.942  50.129  1.00  0.00    -0.357 N 
HETATM   26  H   UNL     1      24.446  45.105  49.156  1.00  0.00     0.162 HD
HETATM   27  O   UNL     1      24.637  43.358  51.797  1.00  0.00    -0.268 OA
BRANCH  25  28
HETATM   28  C   UNL     1      24.663  46.082  51.028  1.00  0.00     0.125 C 
BRANCH  28  29
HETATM   29  C   UNL     1      26.020  46.774  51.092  1.00  0.00     0.046 C 
BRANCH  29  30
HETATM   30  C   UNL     1      26.505  47.175  49.707  1.00  0.00     0.165 C 
BRANCH  30  31
HETATM   31  O   UNL     1      27.374  46.179  49.185  1.00  0.00    -0.401 OA
HETATM   32  H   UNL     1      28.092  46.628  48.707  1.00  0.00     0.209 HD
ENDBRANCH  30  31
ENDBRANCH  29  30
ENDBRANCH  28  29
ENDBRANCH  25  28
ENDBRANCH  19  24
ENDBRANCH   1  18
TORSDOF 11
ENDMDL
MODEL 8
REMARK VINA RESULT:      -7.4      2.157      3.957
REMARK  11 active torsions:
REMARK  status: ('A' for Active; 'I' for Inactive)
REMARK    1  A    between atoms: C_2  and  O_3 
REMARK    2  A    between atoms: O_3  and  C_4 
REMARK    3  A    between atoms: C_7  and  C_8 
REMARK       I    between atoms: C_8  and  N_9 
REMARK    4  A    between atoms: N_9  and  C_10 
REMARK    5  A    between atoms: C_10  and  N_11 
REMARK    6  A    between atoms: N_11  and  C_12 
REMARK    7  A    between atoms: C_13  and  C_14 
REMARK       I    between atoms: C_14  and  N_15 
REMARK    8  A    between atoms: N_15  and  C_16 
REMARK    9  A    between atoms: C_16  and  C_17 
REMARK   10  A    between atoms: C_17  and  C_18 
REMARK   11  A    between atoms: C_18  and  O_19 
ROOT
HETATM    1  N   UNL     1      25.484  43.944  50.835  1.00  0.00    -0.332 N 
HETATM    2  H   UNL     1      24.574  43.592  50.546  1.00  0.00     0.168 HD
ENDROOT
BRANCH   1   3
HETATM    3  C   UNL     1      26.553  43.168  50.383  1.00  0.00     0.179 C 
HETATM    4  S   UNL     1      26.511  42.174  49.039  1.00  0.00    -0.040 SA
BRANCH   3   5
HETATM    5  N   UNL     1      27.668  43.409  51.197  1.00  0.00    -0.299 N 
HETATM    6  C   UNL     1      28.304  42.527  52.067  1.00  0.00     0.257 C 
HETATM    7  O   UNL     1      28.395  41.315  51.909  1.00  0.00    -0.267 OA
HETATM    8  H   UNL     1      27.754  44.389  51.422  1.00  0.00     0.171 HD
BRANCH   6   9
HETATM    9  C   UNL     1      28.993  43.140  53.234  1.00  0.00     0.032 A 
HETATM   10  C   UNL     1      30.130  42.492  53.732  1.00  0.00     0.020 A 
HETATM   11  C   UNL     1      30.830  43.021  54.822  1.00  0.00     0.038 A 
HETATM   12  C   UNL     1      30.406  44.210  55.412  1.00  0.00     0.068 A 
HETATM   13  C   UNL     1      29.271  44.857  54.913  1.00  0.00     0.038 A 
HETATM   14  C   UNL     1      28.567  44.334  53.823  1.00  0.00     0.020 A 
BRANCH  12  15
HETATM   15  O   UNL     1      31.006  44.839  56.469  1.00  0.00    -0.352 OA
BRANCH  15  16
HETATM   16  C   UNL     1      30.237  45.833  57.148  1.00  0.00     0.171 C 
HETATM   17  C   UNL     1      30.095  45.406  58.598  1.00  0.00     0.034 C 
ENDBRANCH  15  16
ENDBRANCH  12  15
ENDBRANCH   6   9
ENDBRANCH   3   5
ENDBRANCH   1   3
BRANCH   1  18
HETATM   18  C   UNL     1      25.461  44.862  51.917  1.00  0.00     0.050 A 
HETATM   19  C   UNL     1      25.794  46.214  51.715  1.00  0.00     0.058 A 
HETATM   20  C   UNL     1      25.907  47.091  52.806  1.00  0.00     0.019 A 
HETATM   21  C   UNL     1      25.668  46.633  54.100  1.00  0.00     0.001 A 
HETATM   22  C   UNL     1      25.328  45.300  54.308  1.00  0.00     0.002 A 
HETATM   23  C   UNL     1      25.234  44.417  53.227  1.00  0.00     0.030 A 
BRANCH  19  24
HETATM   24  C   UNL     1      25.989  46.804  50.366  1.00  0.00     0.253 C 
HETATM   25  N   UNL     1      25.169  47.873  50.062  1.00  0.00    -0.357 N 
HETATM   26  H   UNL     1      24.633  48.291  50.818  1.00  0.00     0.162 HD
HETATM   27  O   UNL     1      26.852  46.368  49.616  1.00  0.00    -0.268 OA
BRANCH  25  28
HETATM   28  C   UNL     1      25.390  48.675  48.872  1.00  0.00     0.125 C 
BRANCH  28  29
HETATM   29  C   UNL     1      24.144  49.468  48.494  1.00  0.00     0.046 C 
BRANCH  29  30
HETATM   30  C   UNL     1      22.910  48.579  48.458  1.00  0.00     0.165 C 
BRANCH  30  31
HETATM   31  O   UNL     1      22.226  48.640  49.703  1.00  0.00    -0.401 OA
HETATM   32  H   UNL     1      22.253  49.561  50.014  1.00  0.00     0.209 HD
ENDBRANCH  30  31
ENDBRANCH  29  30
ENDBRANCH  28  29
ENDBRANCH  25  28
ENDBRANCH  19  24
ENDBRANCH   1  18
TORSDOF 11
ENDMDL
MODEL 9
REMARK VINA RESULT:      -7.3      2.868      4.538
REMARK  11 active torsions:
REMARK  status: ('A' for Active; 'I' for Inactive)
REMARK    1  A    between atoms: C_2  and  O_3 
REMARK    2  A    between atoms: O_3  and  C_4 
REMARK    3  A    between atoms: C_7  and  C_8 
REMARK       I    between atoms: C_8  and  N_9 
REMARK    4  A    between atoms: N_9  and  C_10 
REMARK    5  A    between atoms: C_10  and  N_11 
REMARK    6  A    between atoms: N_11  and  C_12 
REMARK    7  A    between atoms: C_13  and  C_14 
REMARK       I    between atoms: C_14  and  N_15 
REMARK    8  A    between atoms: N_15  and  C_16 
REMARK    9  A    between atoms: C_16  and  C_17 
REMARK   10  A    between atoms: C_17  and  C_18 
REMARK   11  A    between atoms: C_18  and  O_19 
ROOT
HETATM    1  N   UNL     1      22.852  48.901  49.625  1.00  0.00    -0.332 N 
HETATM    2  H   UNL     1      22.761  48.674  50.612  1.00  0.00     0.168 HD
ENDROOT
BRANCH   1   3
HETATM    3  C   UNL     1      24.171  48.891  49.168  1.00  0.00     0.179 C 
HETATM    4  S   UNL     1      24.813  49.986  48.079  1.00  0.00    -0.040 SA
BRANCH   3   5
HETATM    5  N   UNL     1      24.871  47.864  49.815  1.00  0.00    -0.299 N 
HETATM    6  C   UNL     1      24.409  46.598  50.166  1.00  0.00     0.257 C 
HETATM    7  O   UNL     1      23.575  45.948  49.546  1.00  0.00    -0.267 OA
HETATM    8  H   UNL     1      25.624  48.231  50.379  1.00  0.00     0.171 HD
BRANCH   6   9
HETATM    9  C   UNL     1      25.059  45.968  51.346  1.00  0.00     0.032 A 
HETATM   10  C   UNL     1      25.779  46.799  52.214  1.00  0.00     0.020 A 
HETATM   11  C   UNL     1      26.407  46.271  53.347  1.00  0.00     0.038 A 
HETATM   12  C   UNL     1      26.307  44.910  53.629  1.00  0.00     0.068 A 
HETATM   13  C   UNL     1      25.587  44.081  52.763  1.00  0.00     0.038 A 
HETATM   14  C   UNL     1      24.957  44.602  51.628  1.00  0.00     0.020 A 
BRANCH  12  15
HETATM   15  O   UNL     1      26.858  44.272  54.706  1.00  0.00    -0.352 OA
BRANCH  15  16
HETATM   16  C   UNL     1      27.834  43.267  54.430  1.00  0.00     0.171 C 
HETATM   17  C   UNL     1      29.205  43.918  54.480  1.00  0.00     0.034 C 
ENDBRANCH  15  16
ENDBRANCH  12  15
ENDBRANCH   6   9
ENDBRANCH   3   5
ENDBRANCH   1   3
BRANCH   1  18
HETATM   18  C   UNL     1      21.728  49.546  49.047  1.00  0.00     0.050 A 
HETATM   19  C   UNL     1      20.954  48.895  48.068  1.00  0.00     0.058 A 
HETATM   20  C   UNL     1      19.930  49.581  47.397  1.00  0.00     0.019 A 
HETATM   21  C   UNL     1      19.655  50.910  47.711  1.00  0.00     0.001 A 
HETATM   22  C   UNL     1      20.407  51.559  48.685  1.00  0.00     0.002 A 
HETATM   23  C   UNL     1      21.442  50.887  49.342  1.00  0.00     0.030 A 
BRANCH  19  24
HETATM   24  C   UNL     1      21.128  47.460  47.726  1.00  0.00     0.253 C 
HETATM   25  N   UNL     1      20.245  46.594  48.341  1.00  0.00    -0.357 N 
HETATM   26  H   UNL     1      19.447  46.993  48.826  1.00  0.00     0.162 HD
HETATM   27  O   UNL     1      21.982  47.112  46.922  1.00  0.00    -0.268 OA
BRANCH  25  28
HETATM   28  C   UNL     1      20.161  45.200  47.943  1.00  0.00     0.125 C 
BRANCH  28  29
HETATM   29  C   UNL     1      19.171  45.005  46.801  1.00  0.00     0.046 C 
BRANCH  29  30
HETATM   30  C   UNL     1      17.804  45.576  47.147  1.00  0.00     0.165 C 
BRANCH  30  31
HETATM   31  O   UNL     1      17.476  45.276  48.497  1.00  0.00    -0.401 OA
HETATM   32  H   UNL     1      16.977  44.441  48.506  1.00  0.00     0.209 HD
ENDBRANCH  30  31
ENDBRANCH  29  30
ENDBRANCH  28  29
ENDBRANCH  25  28
ENDBRANCH  19  24
ENDBRANCH   1  18
TORSDOF 11
ENDMDL
MODEL 10
REMARK VINA RESULT:      -7.1      3.073      8.826
REMARK  11 active torsions:
REMARK  status: ('A' for Active; 'I' for Inactive)
REMARK    1  A    between atoms: C_2  and  O_3 
REMARK    2  A    between atoms: O_3  and  C_4 
REMARK    3  A    between atoms: C_7  and  C_8 
REMARK       I    between atoms: C_8  and  N_9 
REMARK    4  A    between atoms: N_9  and  C_10 
REMARK    5  A    between atoms: C_10  and  N_11 
REMARK    6  A    between atoms: N_11  and  C_12 
REMARK    7  A    between atoms: C_13  and  C_14 
REMARK       I    between atoms: C_14  and  N_15 
REMARK    8  A    between atoms: N_15  and  C_16 
REMARK    9  A    between atoms: C_16  and  C_17 
REMARK   10  A    between atoms: C_17  and  C_18 
REMARK   11  A    between atoms: C_18  and  O_19 
ROOT
HETATM    1  N   UNL     1      26.417  44.810  53.715  1.00  0.00    -0.332 N 
HETATM    2  H   UNL     1      25.694  44.103  53.601  1.00  0.00     0.168 HD
ENDROOT
BRANCH   1   3
HETATM    3  C   UNL     1      26.010  46.092  53.343  1.00  0.00     0.179 C 
HETATM    4  S   UNL     1      26.177  47.459  54.291  1.00  0.00    -0.040 SA
BRANCH   3   5
HETATM    5  N   UNL     1      25.505  46.050  52.036  1.00  0.00    -0.299 N 
HETATM    6  C   UNL     1      25.540  47.052  51.069  1.00  0.00     0.257 C 
HETATM    7  O   UNL     1      26.428  47.888  50.943  1.00  0.00    -0.267 OA
HETATM    8  H   UNL     1      24.751  45.384  51.955  1.00  0.00     0.171 HD
BRANCH   6   9
HETATM    9  C   UNL     1      24.442  47.032  50.066  1.00  0.00     0.032 A 
HETATM   10  C   UNL     1      23.972  48.263  49.592  1.00  0.00     0.020 A 
HETATM   11  C   UNL     1      22.947  48.315  48.642  1.00  0.00     0.038 A 
HETATM   12  C   UNL     1      22.394  47.135  48.148  1.00  0.00     0.068 A 
HETATM   13  C   UNL     1      22.864  45.906  48.621  1.00  0.00     0.038 A 
HETATM   14  C   UNL     1      23.889  45.847  49.572  1.00  0.00     0.020 A 
BRANCH  12  15
HETATM   15  O   UNL     1      21.401  47.045  47.210  1.00  0.00    -0.352 OA
BRANCH  15  16
HETATM   16  C   UNL     1      20.057  47.107  47.687  1.00  0.00     0.171 C 
HETATM   17  C   UNL     1      19.465  48.437  47.254  1.00  0.00     0.034 C 
ENDBRANCH  15  16
ENDBRANCH  12  15
ENDBRANCH   6   9
ENDBRANCH   3   5
ENDBRANCH   1   3
BRANCH   1  18
HETATM   18  C   UNL     1      27.739  44.307  53.830  1.00  0.00     0.050 A 
HETATM   19  C   UNL     1      28.201  43.300  52.961  1.00  0.00     0.058 A 
HETATM   20  C   UNL     1      29.456  42.705  53.162  1.00  0.00     0.019 A 
HETATM   21  C   UNL     1      30.268  43.123  54.214  1.00  0.00     0.001 A 
HETATM   22  C   UNL     1      29.825  44.125  55.072  1.00  0.00     0.002 A 
HETATM   23  C   UNL     1      28.567  44.707  54.889  1.00  0.00     0.030 A 
BRANCH  19  24
HETATM   24  C   UNL     1      27.435  42.850  51.771  1.00  0.00     0.253 C 
HETATM   25  N   UNL     1      27.070  41.518  51.770  1.00  0.00    -0.357 N 
HETATM   26  H   UNL     1      27.183  40.993  52.633  1.00  0.00     0.162 HD
HETATM   27  O   UNL     1      27.136  43.643  50.888  1.00  0.00    -0.268 OA
BRANCH  25  28
HETATM   28  C   UNL     1      26.146  40.993  50.781  1.00  0.00     0.125 C 
BRANCH  28  29
HETATM   29  C   UNL     1      26.882  40.257  49.666  1.00  0.00     0.046 C 
BRANCH  29  30
HETATM   30  C   UNL     1      26.709  40.961  48.328  1.00  0.00     0.165 C 
BRANCH  30  31
HETATM   31  O   UNL     1      27.258  42.271  48.391  1.00  0.00    -0.401 OA
HETATM   32  H   UNL     1      28.226  42.194  48.329  1.00  0.00     0.209 HD
ENDBRANCH  30  31
ENDBRANCH  29  30
ENDBRANCH  28  29
ENDBRANCH  25  28
ENDBRANCH  19  24
ENDBRANCH   1  18
TORSDOF 11
ENDMDL
