MODEL 1
REMARK VINA RESULT:      -8.4      0.000      0.000
REMARK  6 active torsions:
REMARK  status: ('A' for Active; 'I' for Inactive)
REMARK    1  A    between atoms: C_2  and  N_3 
REMARK    2  A    between atoms: C_2  and  C_16 
REMARK    3  A    between atoms: N_3  and  C_6 
REMARK    4  A    between atoms: C_16  and  C_17 
REMARK       I    between atoms: C_17  and  N_18 
REMARK    5  A    between atoms: N_18  and  C_19 
REMARK    6  A    between atoms: C_21  and  O_22 
ROOT
HETATM    1  C   UNL     1      28.604  41.031  52.847  1.00  0.00     0.040 C 
HETATM    2  C   UNL     1      28.401  42.122  51.803  1.00  0.00     0.191 C 
ENDROOT
BRANCH   2   3
HETATM    3  N   UNL     1      28.529  43.489  52.431  1.00  0.00    -0.063 N 
HETATM    4  H   UNL     1      29.554  43.666  52.486  1.00  0.00     0.278 HD
HETATM    5  H   UNL     1      28.185  44.199  51.776  1.00  0.00     0.278 HD
BRANCH   3   6
HETATM    6  C   UNL     1      27.997  43.816  53.811  1.00  0.00     0.221 C 
HETATM    7  C   UNL     1      29.075  44.110  54.826  1.00  0.00    -0.011 A 
HETATM    8  C   UNL     1      29.121  45.301  55.568  1.00  0.00     0.009 A 
HETATM    9  C   UNL     1      30.062  43.127  55.070  1.00  0.00     0.011 A 
HETATM   10  C   UNL     1      30.152  45.500  56.499  1.00  0.00     0.019 A 
HETATM   11  S   UNL     1      27.908  46.598  55.452  1.00  0.00    -0.129 SA
HETATM   12  C   UNL     1      31.132  44.532  56.705  1.00  0.00     0.001 A 
HETATM   13  C   UNL     1      31.084  43.341  55.994  1.00  0.00     0.001 A 
HETATM   14  C   UNL     1      27.153  46.240  53.853  1.00  0.00     0.082 C 
HETATM   15  C   UNL     1      26.800  44.770  53.734  1.00  0.00     0.048 C 
ENDBRANCH   3   6
ENDBRANCH   2   3
BRANCH   2  16
HETATM   16  C   UNL     1      27.003  41.968  51.160  1.00  0.00     0.135 C 
BRANCH  16  17
HETATM   17  C   UNL     1      27.048  42.260  49.679  1.00  0.00     0.224 C 
HETATM   18  N   UNL     1      26.601  43.427  49.152  1.00  0.00    -0.327 N 
HETATM   19  H   UNL     1      26.575  43.397  48.135  1.00  0.00     0.169 HD
HETATM   20  O   UNL     1      27.520  41.397  48.925  1.00  0.00    -0.273 OA
BRANCH  18  21
HETATM   21  C   UNL     1      26.150  44.638  49.718  1.00  0.00     0.037 A 
HETATM   22  C   UNL     1      26.795  45.874  49.597  1.00  0.00     0.066 A 
HETATM   23  C   UNL     1      26.257  47.019  50.200  1.00  0.00     0.070 A 
HETATM   24  C   UNL     1      25.067  46.926  50.923  1.00  0.00     0.037 A 
HETATM   25  C   UNL     1      24.400  45.710  51.022  1.00  0.00     0.005 A 
HETATM   26  C   UNL     1      24.935  44.575  50.413  1.00  0.00     0.029 A 
BRANCH  23  27
HETATM   27  O   UNL     1      26.792  48.276  50.159  1.00  0.00    -0.356 OA
HETATM   28  C   UNL     1      27.659  48.591  49.078  1.00  0.00     0.210 C 
ENDBRANCH  23  27
ENDBRANCH  18  21
ENDBRANCH  16  17
ENDBRANCH   2  16
TORSDOF 6
ENDMDL
MODEL 2
REMARK VINA RESULT:      -8.4      2.219      3.012
REMARK  6 active torsions:
REMARK  status: ('A' for Active; 'I' for Inactive)
REMARK    1  A    between atoms: C_2  and  N_3 
REMARK    2  A    between atoms: C_2  and  C_16 
REMARK    3  A    between atoms: N_3  and  C_6 
REMARK    4  A    between atoms: C_16  and  C_17 
REMARK       I    between atoms: C_17  and  N_18 
REMARK    5  A    between atoms: N_18  and  C_19 
REMARK    6  A    between atoms: C_21  and  O_22 
ROOT
HETATM    1  C   UNL     1      27.927  43.254  50.936  1.00  0.00     0.040 C 
HETATM    2  C   UNL     1      26.832  44.165  51.475  1.00  0.00     0.191 C 
ENDROOT
BRANCH   2   3
HETATM    3  N   UNL     1      26.145  43.528  52.658  1.00  0.00    -0.063 N 
HETATM    4  H   UNL     1      25.125  43.652  52.478  1.00  0.00     0.278 HD
HETATM    5  H   UNL     1      26.284  42.513  52.629  1.00  0.00     0.278 HD
BRANCH   3   6
HETATM    6  C   UNL     1      26.353  43.997  54.084  1.00  0.00     0.221 C 
HETATM    7  C   UNL     1      27.800  44.016  54.514  1.00  0.00    -0.011 A 
HETATM    8  C   UNL     1      28.431  45.164  55.019  1.00  0.00     0.009 A 
HETATM    9  C   UNL     1      28.543  42.815  54.442  1.00  0.00     0.011 A 
HETATM   10  C   UNL     1      29.779  45.102  55.405  1.00  0.00     0.019 A 
HETATM   11  S   UNL     1      27.617  46.727  55.262  1.00  0.00    -0.129 SA
HETATM   12  C   UNL     1      30.504  43.917  55.300  1.00  0.00     0.001 A 
HETATM   13  C   UNL     1      29.885  42.770  54.824  1.00  0.00     0.001 A 
HETATM   14  C   UNL     1      26.185  46.557  54.179  1.00  0.00     0.082 C 
HETATM   15  C   UNL     1      25.492  45.226  54.396  1.00  0.00     0.048 C 
ENDBRANCH   3   6
ENDBRANCH   2   3
BRANCH   2  16
HETATM   16  C   UNL     1      25.799  44.448  50.358  1.00  0.00     0.135 C 
BRANCH  16  17
HETATM   17  C   UNL     1      24.571  45.130  50.910  1.00  0.00     0.224 C 
HETATM   18  N   UNL     1      24.343  46.458  50.758  1.00  0.00    -0.327 N 
HETATM   19  H   UNL     1      23.548  46.771  51.310  1.00  0.00     0.169 HD
HETATM   20  O   UNL     1      23.739  44.439  51.517  1.00  0.00    -0.273 OA
BRANCH  18  21
HETATM   21  C   UNL     1      24.989  47.476  50.025  1.00  0.00     0.037 A 
HETATM   22  C   UNL     1      24.351  48.395  49.185  1.00  0.00     0.066 A 
HETATM   23  C   UNL     1      25.092  49.370  48.505  1.00  0.00     0.070 A 
HETATM   24  C   UNL     1      26.476  49.426  48.668  1.00  0.00     0.037 A 
HETATM   25  C   UNL     1      27.118  48.539  49.525  1.00  0.00     0.005 A 
HETATM   26  C   UNL     1      26.376  47.577  50.207  1.00  0.00     0.029 A 
BRANCH  23  27
HETATM   27  O   UNL     1      24.588  50.316  47.657  1.00  0.00    -0.356 OA
HETATM   28  C   UNL     1      23.210  50.644  47.775  1.00  0.00     0.210 C 
ENDBRANCH  23  27
ENDBRANCH  18  21
ENDBRANCH  16  17
ENDBRANCH   2  16
TORSDOF 6
ENDMDL
MODEL 3
REMARK VINA RESULT:      -7.9      2.369      5.028
REMARK  6 active torsions:
REMARK  status: ('A' for Active; 'I' for Inactive)
REMARK    1  A    between atoms: C_2  and  N_3 
REMARK    2  A    between atoms: C_2  and  C_16 
REMARK    3  A    between atoms: N_3  and  C_6 
REMARK    4  A    between atoms: C_16  and  C_17 
REMARK       I    between atoms: C_17  and  N_18 
REMARK    5  A    between atoms: N_18  and  C_19 
REMARK    6  A    between atoms: C_21  and  O_22 
ROOT
HETATM    1  C   UNL     1      28.283  41.114  52.889  1.00  0.00     0.040 C 
HETATM    2  C   UNL     1      28.248  42.238  51.862  1.00  0.00     0.191 C 
ENDROOT
BRANCH   2   3
HETATM    3  N   UNL     1      28.485  43.572  52.527  1.00  0.00    -0.063 N 
HETATM    4  H   UNL     1      29.521  43.670  52.577  1.00  0.00     0.278 HD
HETATM    5  H   UNL     1      28.191  44.326  51.897  1.00  0.00     0.278 HD
BRANCH   3   6
HETATM    6  C   UNL     1      27.990  43.899  53.922  1.00  0.00     0.221 C 
HETATM    7  C   UNL     1      29.096  44.169  54.913  1.00  0.00    -0.011 A 
HETATM    8  C   UNL     1      29.178  45.355  55.661  1.00  0.00     0.009 A 
HETATM    9  C   UNL     1      30.072  43.170  55.128  1.00  0.00     0.011 A 
HETATM   10  C   UNL     1      30.233  45.532  56.570  1.00  0.00     0.019 A 
HETATM   11  S   UNL     1      27.982  46.671  55.581  1.00  0.00    -0.129 SA
HETATM   12  C   UNL     1      31.203  44.547  56.746  1.00  0.00     0.001 A 
HETATM   13  C   UNL     1      31.120  43.362  56.029  1.00  0.00     0.001 A 
HETATM   14  C   UNL     1      27.185  46.336  53.999  1.00  0.00     0.082 C 
HETATM   15  C   UNL     1      26.806  44.872  53.878  1.00  0.00     0.048 C 
ENDBRANCH   3   6
ENDBRANCH   2   3
BRANCH   2  16
HETATM   16  C   UNL     1      26.876  42.244  51.147  1.00  0.00     0.135 C 
BRANCH  16  17
HETATM   17  C   UNL     1      27.028  42.545  49.676  1.00  0.00     0.224 C 
HETATM   18  N   UNL     1      27.406  41.605  48.774  1.00  0.00    -0.327 N 
HETATM   19  H   UNL     1      27.594  42.012  47.860  1.00  0.00     0.169 HD
HETATM   20  O   UNL     1      26.789  43.697  49.285  1.00  0.00    -0.273 OA
BRANCH  18  21
HETATM   21  C   UNL     1      27.610  40.212  48.852  1.00  0.00     0.037 A 
HETATM   22  C   UNL     1      28.747  39.591  49.381  1.00  0.00     0.066 A 
HETATM   23  C   UNL     1      28.845  38.193  49.412  1.00  0.00     0.070 A 
HETATM   24  C   UNL     1      27.799  37.416  48.914  1.00  0.00     0.037 A 
HETATM   25  C   UNL     1      26.650  38.020  48.416  1.00  0.00     0.005 A 
HETATM   26  C   UNL     1      26.554  39.411  48.396  1.00  0.00     0.029 A 
BRANCH  23  27
HETATM   27  O   UNL     1      29.900  37.472  49.896  1.00  0.00    -0.356 OA
HETATM   28  C   UNL     1      29.999  37.309  51.304  1.00  0.00     0.210 C 
ENDBRANCH  23  27
ENDBRANCH  18  21
ENDBRANCH  16  17
ENDBRANCH   2  16
TORSDOF 6
ENDMDL
MODEL 4
REMARK VINA RESULT:      -7.5      1.865      3.130
REMARK  6 active torsions:
REMARK  status: ('A' for Active; 'I' for Inactive)
REMARK    1  A    between atoms: C_2  and  N_3 
REMARK    2  A    between atoms: C_2  and  C_16 
REMARK    3  A    between atoms: N_3  and  C_6 
REMARK    4  A    between atoms: C_16  and  C_17 
REMARK       I    between atoms: C_17  and  N_18 
REMARK    5  A    between atoms: N_18  and  C_19 
REMARK    6  A    between atoms: C_21  and  O_22 
ROOT
HETATM    1  C   UNL     1      26.516  40.846  51.046  1.00  0.00     0.040 C 
HETATM    2  C   UNL     1      26.407  42.348  51.274  1.00  0.00     0.191 C 
ENDROOT
BRANCH   2   3
HETATM    3  N   UNL     1      26.967  42.723  52.624  1.00  0.00    -0.063 N 
HETATM    4  H   UNL     1      26.151  43.076  53.168  1.00  0.00     0.278 HD
HETATM    5  H   UNL     1      27.254  41.874  53.124  1.00  0.00     0.278 HD
BRANCH   3   6
HETATM    6  C   UNL     1      28.046  43.771  52.808  1.00  0.00     0.221 C 
HETATM    7  C   UNL     1      27.587  44.993  53.564  1.00  0.00    -0.011 A 
HETATM    8  C   UNL     1      28.225  45.458  54.725  1.00  0.00     0.009 A 
HETATM    9  C   UNL     1      26.487  45.727  53.062  1.00  0.00     0.011 A 
HETATM   10  C   UNL     1      27.744  46.608  55.370  1.00  0.00     0.019 A 
HETATM   11  S   UNL     1      29.675  44.709  55.436  1.00  0.00    -0.129 SA
HETATM   12  C   UNL     1      26.640  47.301  54.876  1.00  0.00     0.001 A 
HETATM   13  C   UNL     1      26.015  46.864  53.717  1.00  0.00     0.001 A 
HETATM   14  C   UNL     1      29.618  43.060  54.709  1.00  0.00     0.082 C 
HETATM   15  C   UNL     1      29.379  43.131  53.213  1.00  0.00     0.048 C 
ENDBRANCH   3   6
ENDBRANCH   2   3
BRANCH   2  16
HETATM   16  C   UNL     1      24.924  42.778  51.184  1.00  0.00     0.135 C 
BRANCH  16  17
HETATM   17  C   UNL     1      24.461  42.846  49.748  1.00  0.00     0.224 C 
HETATM   18  N   UNL     1      24.408  44.010  49.053  1.00  0.00    -0.327 N 
HETATM   19  H   UNL     1      23.943  43.894  48.156  1.00  0.00     0.169 HD
HETATM   20  O   UNL     1      24.127  41.792  49.189  1.00  0.00    -0.273 OA
BRANCH  18  21
HETATM   21  C   UNL     1      24.835  45.326  49.329  1.00  0.00     0.037 A 
HETATM   22  C   UNL     1      23.992  46.430  49.498  1.00  0.00     0.066 A 
HETATM   23  C   UNL     1      24.525  47.696  49.772  1.00  0.00     0.070 A 
HETATM   24  C   UNL     1      25.906  47.856  49.882  1.00  0.00     0.037 A 
HETATM   25  C   UNL     1      26.752  46.761  49.749  1.00  0.00     0.005 A 
HETATM   26  C   UNL     1      26.217  45.501  49.485  1.00  0.00     0.029 A 
BRANCH  23  27
HETATM   27  O   UNL     1      23.810  48.847  49.953  1.00  0.00    -0.356 OA
HETATM   28  C   UNL     1      23.757  49.769  48.872  1.00  0.00     0.210 C 
ENDBRANCH  23  27
ENDBRANCH  18  21
ENDBRANCH  16  17
ENDBRANCH   2  16
TORSDOF 6
ENDMDL
MODEL 5
REMARK VINA RESULT:      -7.5      2.235      4.906
REMARK  6 active torsions:
REMARK  status: ('A' for Active; 'I' for Inactive)
REMARK    1  A    between atoms: C_2  and  N_3 
REMARK    2  A    between atoms: C_2  and  C_16 
REMARK    3  A    between atoms: N_3  and  C_6 
REMARK    4  A    between atoms: C_16  and  C_17 
REMARK       I    between atoms: C_17  and  N_18 
REMARK    5  A    between atoms: N_18  and  C_19 
REMARK    6  A    between atoms: C_21  and  O_22 
ROOT
HETATM    1  C   UNL     1      26.710  46.054  49.901  1.00  0.00     0.040 C 
HETATM    2  C   UNL     1      26.235  44.937  50.822  1.00  0.00     0.191 C 
ENDROOT
BRANCH   2   3
HETATM    3  N   UNL     1      27.284  44.623  51.861  1.00  0.00    -0.063 N 
HETATM    4  H   UNL     1      27.548  43.630  51.687  1.00  0.00     0.278 HD
HETATM    5  H   UNL     1      28.138  45.150  51.655  1.00  0.00     0.278 HD
BRANCH   3   6
HETATM    6  C   UNL     1      27.020  44.705  53.351  1.00  0.00     0.221 C 
HETATM    7  C   UNL     1      28.260  44.556  54.198  1.00  0.00    -0.011 A 
HETATM    8  C   UNL     1      28.655  45.512  55.148  1.00  0.00     0.009 A 
HETATM    9  C   UNL     1      29.039  43.385  54.059  1.00  0.00     0.011 A 
HETATM   10  C   UNL     1      29.818  45.301  55.905  1.00  0.00     0.019 A 
HETATM   11  S   UNL     1      27.740  46.994  55.515  1.00  0.00    -0.129 SA
HETATM   12  C   UNL     1      30.589  44.153  55.732  1.00  0.00     0.001 A 
HETATM   13  C   UNL     1      30.197  43.191  54.813  1.00  0.00     0.001 A 
HETATM   14  C   UNL     1      26.723  47.162  54.035  1.00  0.00     0.082 C 
HETATM   15  C   UNL     1      26.053  45.848  53.681  1.00  0.00     0.048 C 
ENDBRANCH   3   6
ENDBRANCH   2   3
BRANCH   2  16
HETATM   16  C   UNL     1      25.928  43.673  49.986  1.00  0.00     0.135 C 
BRANCH  16  17
HETATM   17  C   UNL     1      25.193  42.640  50.806  1.00  0.00     0.224 C 
HETATM   18  N   UNL     1      25.367  41.307  50.627  1.00  0.00    -0.327 N 
HETATM   19  H   UNL     1      24.694  40.763  51.161  1.00  0.00     0.169 HD
HETATM   20  O   UNL     1      24.408  43.036  51.680  1.00  0.00    -0.273 OA
BRANCH  18  21
HETATM   21  C   UNL     1      26.258  40.541  49.846  1.00  0.00     0.037 A 
HETATM   22  C   UNL     1      27.499  40.059  50.276  1.00  0.00     0.066 A 
HETATM   23  C   UNL     1      28.305  39.303  49.415  1.00  0.00     0.070 A 
HETATM   24  C   UNL     1      27.865  39.025  48.121  1.00  0.00     0.037 A 
HETATM   25  C   UNL     1      26.619  39.470  47.693  1.00  0.00     0.005 A 
HETATM   26  C   UNL     1      25.817  40.215  48.556  1.00  0.00     0.029 A 
BRANCH  23  27
HETATM   27  O   UNL     1      29.533  38.782  49.714  1.00  0.00    -0.356 OA
HETATM   28  C   UNL     1      29.579  37.625  50.538  1.00  0.00     0.210 C 
ENDBRANCH  23  27
ENDBRANCH  18  21
ENDBRANCH  16  17
ENDBRANCH   2  16
TORSDOF 6
ENDMDL
MODEL 6
REMARK VINA RESULT:      -7.3      3.346      4.882
REMARK  6 active torsions:
REMARK  status: ('A' for Active; 'I' for Inactive)
REMARK    1  A    between atoms: C_2  and  N_3 
REMARK    2  A    between atoms: C_2  and  C_16 
REMARK    3  A    between atoms: N_3  and  C_6 
REMARK    4  A    between atoms: C_16  and  C_17 
REMARK       I    between atoms: C_17  and  N_18 
REMARK    5  A    between atoms: N_18  and  C_19 
REMARK    6  A    between atoms: C_21  and  O_22 
ROOT
HETATM    1  C   UNL     1      24.948  44.547  50.158  1.00  0.00     0.040 C 
HETATM    2  C   UNL     1      25.828  45.786  50.060  1.00  0.00     0.191 C 
ENDROOT
BRANCH   2   3
HETATM    3  N   UNL     1      26.875  45.782  51.147  1.00  0.00    -0.063 N 
HETATM    4  H   UNL     1      27.689  45.276  50.738  1.00  0.00     0.278 HD
HETATM    5  H   UNL     1      27.220  46.736  51.294  1.00  0.00     0.278 HD
BRANCH   3   6
HETATM    6  C   UNL     1      26.655  45.141  52.503  1.00  0.00     0.221 C 
HETATM    7  C   UNL     1      27.853  44.384  53.021  1.00  0.00    -0.011 A 
HETATM    8  C   UNL     1      28.443  44.649  54.268  1.00  0.00     0.009 A 
HETATM    9  C   UNL     1      28.383  43.335  52.236  1.00  0.00     0.011 A 
HETATM   10  C   UNL     1      29.552  43.898  54.686  1.00  0.00     0.019 A 
HETATM   11  S   UNL     1      27.844  45.868  55.418  1.00  0.00    -0.129 SA
HETATM   12  C   UNL     1      30.079  42.887  53.884  1.00  0.00     0.001 A 
HETATM   13  C   UNL     1      29.491  42.601  52.661  1.00  0.00     0.001 A 
HETATM   14  C   UNL     1      26.858  46.925  54.338  1.00  0.00     0.082 C 
HETATM   15  C   UNL     1      25.937  46.100  53.461  1.00  0.00     0.048 C 
ENDBRANCH   3   6
ENDBRANCH   2   3
BRANCH   2  16
HETATM   16  C   UNL     1      24.951  47.054  50.182  1.00  0.00     0.135 C 
BRANCH  16  17
HETATM   17  C   UNL     1      25.600  48.235  49.502  1.00  0.00     0.224 C 
HETATM   18  N   UNL     1      24.886  49.176  48.835  1.00  0.00    -0.327 N 
HETATM   19  H   UNL     1      25.489  49.816  48.323  1.00  0.00     0.169 HD
HETATM   20  O   UNL     1      26.833  48.346  49.568  1.00  0.00    -0.273 OA
BRANCH  18  21
HETATM   21  C   UNL     1      23.505  49.426  48.692  1.00  0.00     0.037 A 
HETATM   22  C   UNL     1      22.519  48.445  48.528  1.00  0.00     0.066 A 
HETATM   23  C   UNL     1      21.172  48.806  48.397  1.00  0.00     0.070 A 
HETATM   24  C   UNL     1      20.810  50.153  48.433  1.00  0.00     0.037 A 
HETATM   25  C   UNL     1      21.775  51.134  48.627  1.00  0.00     0.005 A 
HETATM   26  C   UNL     1      23.114  50.770  48.766  1.00  0.00     0.029 A 
BRANCH  23  27
HETATM   27  O   UNL     1      20.123  47.947  48.229  1.00  0.00    -0.356 OA
HETATM   28  C   UNL     1      20.387  46.553  48.323  1.00  0.00     0.210 C 
ENDBRANCH  23  27
ENDBRANCH  18  21
ENDBRANCH  16  17
ENDBRANCH   2  16
TORSDOF 6
ENDMDL
MODEL 7
REMARK VINA RESULT:      -7.3      2.684      3.371
REMARK  6 active torsions:
REMARK  status: ('A' for Active; 'I' for Inactive)
REMARK    1  A    between atoms: C_2  and  N_3 
REMARK    2  A    between atoms: C_2  and  C_16 
REMARK    3  A    between atoms: N_3  and  C_6 
REMARK    4  A    between atoms: C_16  and  C_17 
REMARK       I    between atoms: C_17  and  N_18 
REMARK    5  A    between atoms: N_18  and  C_19 
REMARK    6  A    between atoms: C_21  and  O_22 
ROOT
HETATM    1  C   UNL     1      27.269  45.914  49.757  1.00  0.00     0.040 C 
HETATM    2  C   UNL     1      26.301  45.174  50.671  1.00  0.00     0.191 C 
ENDROOT
BRANCH   2   3
HETATM    3  N   UNL     1      27.052  44.417  51.739  1.00  0.00    -0.063 N 
HETATM    4  H   UNL     1      26.832  43.413  51.565  1.00  0.00     0.278 HD
HETATM    5  H   UNL     1      28.060  44.488  51.564  1.00  0.00     0.278 HD
BRANCH   3   6
HETATM    6  C   UNL     1      26.810  44.621  53.221  1.00  0.00     0.221 C 
HETATM    7  C   UNL     1      28.054  44.490  54.065  1.00  0.00    -0.011 A 
HETATM    8  C   UNL     1      28.496  45.500  54.936  1.00  0.00     0.009 A 
HETATM    9  C   UNL     1      28.788  43.283  54.008  1.00  0.00     0.011 A 
HETATM   10  C   UNL     1      29.659  45.303  55.696  1.00  0.00     0.019 A 
HETATM   11  S   UNL     1      27.640  47.038  55.198  1.00  0.00    -0.129 SA
HETATM   12  C   UNL     1      30.386  44.117  55.603  1.00  0.00     0.001 A 
HETATM   13  C   UNL     1      29.947  43.104  54.764  1.00  0.00     0.001 A 
HETATM   14  C   UNL     1      26.612  47.132  53.719  1.00  0.00     0.082 C 
HETATM   15  C   UNL     1      25.890  45.821  53.473  1.00  0.00     0.048 C 
ENDBRANCH   3   6
ENDBRANCH   2   3
BRANCH   2  16
HETATM   16  C   UNL     1      25.446  44.194  49.835  1.00  0.00     0.135 C 
BRANCH  16  17
HETATM   17  C   UNL     1      24.167  43.836  50.552  1.00  0.00     0.224 C 
HETATM   18  N   UNL     1      22.973  44.397  50.238  1.00  0.00    -0.327 N 
HETATM   19  H   UNL     1      22.250  44.149  50.908  1.00  0.00     0.169 HD
HETATM   20  O   UNL     1      24.218  42.989  51.456  1.00  0.00    -0.273 OA
BRANCH  18  21
HETATM   21  C   UNL     1      22.547  45.258  49.204  1.00  0.00     0.037 A 
HETATM   22  C   UNL     1      22.957  46.586  49.038  1.00  0.00     0.066 A 
HETATM   23  C   UNL     1      22.471  47.352  47.971  1.00  0.00     0.070 A 
HETATM   24  C   UNL     1      21.574  46.786  47.065  1.00  0.00     0.037 A 
HETATM   25  C   UNL     1      21.185  45.458  47.199  1.00  0.00     0.005 A 
HETATM   26  C   UNL     1      21.678  44.697  48.258  1.00  0.00     0.029 A 
BRANCH  23  27
HETATM   27  O   UNL     1      22.791  48.654  47.706  1.00  0.00    -0.356 OA
HETATM   28  C   UNL     1      23.338  49.430  48.763  1.00  0.00     0.210 C 
ENDBRANCH  23  27
ENDBRANCH  18  21
ENDBRANCH  16  17
ENDBRANCH   2  16
TORSDOF 6
ENDMDL
MODEL 8
REMARK VINA RESULT:      -7.3      4.993      7.212
REMARK  6 active torsions:
REMARK  status: ('A' for Active; 'I' for Inactive)
REMARK    1  A    between atoms: C_2  and  N_3 
REMARK    2  A    between atoms: C_2  and  C_16 
REMARK    3  A    between atoms: N_3  and  C_6 
REMARK    4  A    between atoms: C_16  and  C_17 
REMARK       I    between atoms: C_17  and  N_18 
REMARK    5  A    between atoms: N_18  and  C_19 
REMARK    6  A    between atoms: C_21  and  O_22 
ROOT
HETATM    1  C   UNL     1      22.473  46.629  48.545  1.00  0.00     0.040 C 
HETATM    2  C   UNL     1      23.694  47.369  49.077  1.00  0.00     0.191 C 
ENDROOT
BRANCH   2   3
HETATM    3  N   UNL     1      24.233  46.687  50.311  1.00  0.00    -0.063 N 
HETATM    4  H   UNL     1      23.950  47.300  51.105  1.00  0.00     0.278 HD
HETATM    5  H   UNL     1      23.719  45.814  50.471  1.00  0.00     0.278 HD
BRANCH   3   6
HETATM    6  C   UNL     1      25.708  46.417  50.527  1.00  0.00     0.221 C 
HETATM    7  C   UNL     1      26.086  46.221  51.975  1.00  0.00    -0.011 A 
HETATM    8  C   UNL     1      26.750  45.076  52.443  1.00  0.00     0.009 A 
HETATM    9  C   UNL     1      25.794  47.253  52.897  1.00  0.00     0.011 A 
HETATM   10  C   UNL     1      27.075  44.968  53.804  1.00  0.00     0.019 A 
HETATM   11  S   UNL     1      27.273  43.729  51.403  1.00  0.00    -0.129 SA
HETATM   12  C   UNL     1      26.752  45.983  54.703  1.00  0.00     0.001 A 
HETATM   13  C   UNL     1      26.117  47.129  54.248  1.00  0.00     0.001 A 
HETATM   14  C   UNL     1      26.226  43.968  49.954  1.00  0.00     0.082 C 
HETATM   15  C   UNL     1      26.247  45.415  49.499  1.00  0.00     0.048 C 
ENDBRANCH   3   6
ENDBRANCH   2   3
BRANCH   2  16
HETATM   16  C   UNL     1      23.310  48.829  49.410  1.00  0.00     0.135 C 
BRANCH  16  17
HETATM   17  C   UNL     1      23.055  49.627  48.154  1.00  0.00     0.224 C 
HETATM   18  N   UNL     1      21.833  50.126  47.841  1.00  0.00    -0.327 N 
HETATM   19  H   UNL     1      21.811  50.511  46.900  1.00  0.00     0.169 HD
HETATM   20  O   UNL     1      24.007  49.837  47.388  1.00  0.00    -0.273 OA
BRANCH  18  21
HETATM   21  C   UNL     1      20.606  50.194  48.535  1.00  0.00     0.037 A 
HETATM   22  C   UNL     1      19.766  49.106  48.798  1.00  0.00     0.066 A 
HETATM   23  C   UNL     1      18.567  49.287  49.500  1.00  0.00     0.070 A 
HETATM   24  C   UNL     1      18.210  50.560  49.943  1.00  0.00     0.037 A 
HETATM   25  C   UNL     1      19.052  51.643  49.716  1.00  0.00     0.005 A 
HETATM   26  C   UNL     1      20.248  51.457  49.025  1.00  0.00     0.029 A 
BRANCH  23  27
HETATM   27  O   UNL     1      17.664  48.310  49.813  1.00  0.00    -0.356 OA
HETATM   28  C   UNL     1      17.122  47.542  48.747  1.00  0.00     0.210 C 
ENDBRANCH  23  27
ENDBRANCH  18  21
ENDBRANCH  16  17
ENDBRANCH   2  16
TORSDOF 6
ENDMDL
MODEL 9
REMARK VINA RESULT:      -7.2     11.733     14.141
REMARK  6 active torsions:
REMARK  status: ('A' for Active; 'I' for Inactive)
REMARK    1  A    between atoms: C_2  and  N_3 
REMARK    2  A    between atoms: C_2  and  C_16 
REMARK    3  A    between atoms: N_3  and  C_6 
REMARK    4  A    between atoms: C_16  and  C_17 
REMARK       I    between atoms: C_17  and  N_18 
REMARK    5  A    between atoms: N_18  and  C_19 
REMARK    6  A    between atoms: C_21  and  O_22 
ROOT
HETATM    1  C   UNL     1      27.722  47.043  41.391  1.00  0.00     0.040 C 
HETATM    2  C   UNL     1      28.611  47.679  40.330  1.00  0.00     0.191 C 
ENDROOT
BRANCH   2   3
HETATM    3  N   UNL     1      29.435  48.794  40.925  1.00  0.00    -0.063 N 
HETATM    4  H   UNL     1      29.207  49.635  40.352  1.00  0.00     0.278 HD
HETATM    5  H   UNL     1      29.079  49.022  41.859  1.00  0.00     0.278 HD
BRANCH   3   6
HETATM    6  C   UNL     1      30.949  48.759  40.987  1.00  0.00     0.221 C 
HETATM    7  C   UNL     1      31.618  49.835  40.168  1.00  0.00    -0.011 A 
HETATM    8  C   UNL     1      32.535  50.750  40.711  1.00  0.00     0.009 A 
HETATM    9  C   UNL     1      31.340  49.904  38.783  1.00  0.00     0.011 A 
HETATM   10  C   UNL     1      33.122  51.719  39.884  1.00  0.00     0.019 A 
HETATM   11  S   UNL     1      33.065  50.743  42.410  1.00  0.00    -0.129 SA
HETATM   12  C   UNL     1      32.813  51.789  38.527  1.00  0.00     0.001 A 
HETATM   13  C   UNL     1      31.927  50.877  37.974  1.00  0.00     0.001 A 
HETATM   14  C   UNL     1      31.740  49.804  43.195  1.00  0.00     0.082 C 
HETATM   15  C   UNL     1      31.440  48.535  42.422  1.00  0.00     0.048 C 
ENDBRANCH   3   6
ENDBRANCH   2   3
BRANCH   2  16
HETATM   16  C   UNL     1      27.733  48.230  39.182  1.00  0.00     0.135 C 
BRANCH  16  17
HETATM   17  C   UNL     1      26.557  49.009  39.719  1.00  0.00     0.224 C 
HETATM   18  N   UNL     1      26.627  50.335  39.997  1.00  0.00    -0.327 N 
HETATM   19  H   UNL     1      25.794  50.664  40.480  1.00  0.00     0.169 HD
HETATM   20  O   UNL     1      25.488  48.408  39.901  1.00  0.00    -0.273 OA
BRANCH  18  21
HETATM   21  C   UNL     1      27.611  51.322  39.780  1.00  0.00     0.037 A 
HETATM   22  C   UNL     1      28.446  51.861  40.765  1.00  0.00     0.066 A 
HETATM   23  C   UNL     1      29.394  52.838  40.436  1.00  0.00     0.070 A 
HETATM   24  C   UNL     1      29.508  53.276  39.117  1.00  0.00     0.037 A 
HETATM   25  C   UNL     1      28.707  52.725  38.123  1.00  0.00     0.005 A 
HETATM   26  C   UNL     1      27.771  51.746  38.453  1.00  0.00     0.029 A 
BRANCH  23  27
HETATM   27  O   UNL     1      30.260  53.442  41.305  1.00  0.00    -0.356 OA
HETATM   28  C   UNL     1      31.059  54.508  40.809  1.00  0.00     0.210 C 
ENDBRANCH  23  27
ENDBRANCH  18  21
ENDBRANCH  16  17
ENDBRANCH   2  16
TORSDOF 6
ENDMDL
MODEL 10
REMARK VINA RESULT:      -7.2      2.605      5.191
REMARK  6 active torsions:
REMARK  status: ('A' for Active; 'I' for Inactive)
REMARK    1  A    between atoms: C_2  and  N_3 
REMARK    2  A    between atoms: C_2  and  C_16 
REMARK    3  A    between atoms: N_3  and  C_6 
REMARK    4  A    between atoms: C_16  and  C_17 
REMARK       I    between atoms: C_17  and  N_18 
REMARK    5  A    between atoms: N_18  and  C_19 
REMARK    6  A    between atoms: C_21  and  O_22 
ROOT
HETATM    1  C   UNL     1      24.763  45.291  51.976  1.00  0.00     0.040 C 
HETATM    2  C   UNL     1      25.012  43.796  51.823  1.00  0.00     0.191 C 
ENDROOT
BRANCH   2   3
HETATM    3  N   UNL     1      26.131  43.348  52.731  1.00  0.00    -0.063 N 
HETATM    4  H   UNL     1      25.840  43.644  53.687  1.00  0.00     0.278 HD
HETATM    5  H   UNL     1      26.145  42.323  52.778  1.00  0.00     0.278 HD
BRANCH   3   6
HETATM    6  C   UNL     1      27.558  43.836  52.585  1.00  0.00     0.221 C 
HETATM    7  C   UNL     1      28.094  44.530  53.814  1.00  0.00    -0.011 A 
HETATM    8  C   UNL     1      29.272  44.128  54.464  1.00  0.00     0.009 A 
HETATM    9  C   UNL     1      27.402  45.657  54.312  1.00  0.00     0.011 A 
HETATM   10  C   UNL     1      29.712  44.827  55.599  1.00  0.00     0.019 A 
HETATM   11  S   UNL     1      30.311  42.792  53.916  1.00  0.00    -0.129 SA
HETATM   12  C   UNL     1      28.999  45.919  56.092  1.00  0.00     0.001 A 
HETATM   13  C   UNL     1      27.847  46.339  55.445  1.00  0.00     0.001 A 
HETATM   14  C   UNL     1      29.175  41.862  52.868  1.00  0.00     0.082 C 
HETATM   15  C   UNL     1      28.441  42.780  51.910  1.00  0.00     0.048 C 
ENDBRANCH   3   6
ENDBRANCH   2   3
BRANCH   2  16
HETATM   16  C   UNL     1      25.370  43.479  50.353  1.00  0.00     0.135 C 
BRANCH  16  17
HETATM   17  C   UNL     1      24.521  42.353  49.814  1.00  0.00     0.224 C 
HETATM   18  N   UNL     1      25.055  41.245  49.243  1.00  0.00    -0.327 N 
HETATM   19  H   UNL     1      24.343  40.660  48.812  1.00  0.00     0.169 HD
HETATM   20  O   UNL     1      23.288  42.451  49.908  1.00  0.00    -0.273 OA
BRANCH  18  21
HETATM   21  C   UNL     1      26.374  40.762  49.109  1.00  0.00     0.037 A 
HETATM   22  C   UNL     1      27.053  39.993  50.060  1.00  0.00     0.066 A 
HETATM   23  C   UNL     1      28.365  39.563  49.822  1.00  0.00     0.070 A 
HETATM   24  C   UNL     1      28.997  39.901  48.626  1.00  0.00     0.037 A 
HETATM   25  C   UNL     1      28.321  40.636  47.658  1.00  0.00     0.005 A 
HETATM   26  C   UNL     1      27.013  41.055  47.896  1.00  0.00     0.029 A 
BRANCH  23  27
HETATM   27  O   UNL     1      29.132  38.815  50.671  1.00  0.00    -0.356 OA
HETATM   28  C   UNL     1      29.859  37.725  50.119  1.00  0.00     0.210 C 
ENDBRANCH  23  27
ENDBRANCH  18  21
ENDBRANCH  16  17
ENDBRANCH   2  16
TORSDOF 6
ENDMDL
