MODEL 1
REMARK VINA RESULT:      -8.2      0.000      0.000
REMARK  9 active torsions:
REMARK  status: ('A' for Active; 'I' for Inactive)
REMARK    1  A    between atoms: C_2  and  N_3 
REMARK    2  A    between atoms: N_3  and  C_30 
REMARK    3  A    between atoms: N_3  and  C_5 
REMARK    4  A    between atoms: C_5  and  C_6 
REMARK    5  A    between atoms: C_5  and  C_14 
REMARK    6  A    between atoms: C_8  and  O_9 
REMARK    7  A    between atoms: C_14  and  N_15 
REMARK       I    between atoms: N_15  and  C_16 
REMARK    8  A    between atoms: C_16  and  C_17 
REMARK    9  A    between atoms: C_18  and  N_19 
ROOT
HETATM    1  C   UNL     1      26.170  47.028  52.481  1.00  0.00     0.161 C 
ENDROOT
BRANCH   1   2
HETATM    2  C   UNL     1      26.127  46.746  50.941  1.00  0.00     0.238 C 
BRANCH   2   3
HETATM    3  N   UNL     1      25.036  47.593  50.217  1.00  0.00    -0.062 N 
HETATM    4  H   UNL     1      24.552  48.101  50.966  1.00  0.00     0.280 HD
BRANCH   3   5
HETATM    5  C   UNL     1      23.954  46.726  49.573  1.00  0.00     0.231 C 
HETATM    6  C   UNL     1      22.850  47.537  48.918  1.00  0.00     0.034 C 
ENDBRANCH   3   5
BRANCH   3   7
HETATM    7  C   UNL     1      25.616  48.645  49.285  1.00  0.00     0.231 C 
HETATM    8  C   UNL     1      27.136  48.630  49.277  1.00  0.00     0.034 C 
ENDBRANCH   3   7
ENDBRANCH   2   3
BRANCH   2   9
HETATM    9  C   UNL     1      25.921  45.255  50.693  1.00  0.00    -0.023 A 
HETATM   10  C   UNL     1      26.729  44.535  49.792  1.00  0.00     0.046 A 
HETATM   11  C   UNL     1      26.520  43.169  49.591  1.00  0.00     0.068 A 
HETATM   12  C   UNL     1      25.551  42.495  50.329  1.00  0.00     0.037 A 
HETATM   13  C   UNL     1      24.744  43.194  51.223  1.00  0.00     0.003 A 
HETATM   14  C   UNL     1      24.916  44.567  51.393  1.00  0.00     0.009 A 
BRANCH  11  15
HETATM   15  O   UNL     1      27.266  42.409  48.735  1.00  0.00    -0.356 OA
HETATM   16  C   UNL     1      27.034  41.007  48.846  1.00  0.00     0.210 C 
ENDBRANCH  11  15
ENDBRANCH   2   9
ENDBRANCH   1   2
BRANCH   1  17
HETATM   17  N   UNL     1      27.249  46.345  53.166  1.00  0.00    -0.354 N 
HETATM   18  C   UNL     1      27.168  46.142  54.530  1.00  0.00     0.253 C 
HETATM   19  O   UNL     1      26.170  46.432  55.179  1.00  0.00    -0.268 OA
HETATM   20  H   UNL     1      28.157  46.232  52.726  1.00  0.00     0.162 HD
BRANCH  18  21
HETATM   21  C   UNL     1      28.369  45.525  55.130  1.00  0.00     0.053 A 
HETATM   22  C   UNL     1      28.918  44.329  54.623  1.00  0.00     0.026 A 
HETATM   23  C   UNL     1      30.040  43.823  55.301  1.00  0.00     0.025 A 
HETATM   24  C   UNL     1      30.563  44.449  56.442  1.00  0.00     0.008 A 
HETATM   25  C   UNL     1      29.989  45.618  56.941  1.00  0.00    -0.061 A 
HETATM   26  C   UNL     1      30.536  46.292  58.164  1.00  0.00     0.048 C 
HETATM   27  C   UNL     1      28.888  46.159  56.273  1.00  0.00     0.025 A 
BRANCH  22  28
HETATM   28  N   UNL     1      28.376  43.694  53.488  1.00  0.00    -0.283 NA
HETATM   29  C   UNL     1      27.358  42.641  53.683  1.00  0.00     0.096 C 
HETATM   30  C   UNL     1      28.016  41.356  53.199  1.00  0.00     0.016 C 
HETATM   31  C   UNL     1      28.877  41.853  52.056  1.00  0.00     0.016 C 
HETATM   32  C   UNL     1      29.445  43.157  52.608  1.00  0.00     0.096 C 
ENDBRANCH  22  28
ENDBRANCH  18  21
ENDBRANCH   1  17
TORSDOF 9
ENDMDL
MODEL 2
REMARK VINA RESULT:      -7.6      1.987      4.643
REMARK  9 active torsions:
REMARK  status: ('A' for Active; 'I' for Inactive)
REMARK    1  A    between atoms: C_2  and  N_3 
REMARK    2  A    between atoms: N_3  and  C_30 
REMARK    3  A    between atoms: N_3  and  C_5 
REMARK    4  A    between atoms: C_5  and  C_6 
REMARK    5  A    between atoms: C_5  and  C_14 
REMARK    6  A    between atoms: C_8  and  O_9 
REMARK    7  A    between atoms: C_14  and  N_15 
REMARK       I    between atoms: N_15  and  C_16 
REMARK    8  A    between atoms: C_16  and  C_17 
REMARK    9  A    between atoms: C_18  and  N_19 
ROOT
HETATM    1  C   UNL     1      28.107  43.173  51.115  1.00  0.00     0.161 C 
ENDROOT
BRANCH   1   2
HETATM    2  C   UNL     1      26.557  42.973  51.224  1.00  0.00     0.238 C 
BRANCH   2   3
HETATM    3  N   UNL     1      26.045  41.819  50.308  1.00  0.00    -0.062 N 
HETATM    4  H   UNL     1      25.022  41.878  50.352  1.00  0.00     0.280 HD
BRANCH   3   5
HETATM    5  C   UNL     1      26.379  40.436  50.866  1.00  0.00     0.231 C 
HETATM    6  C   UNL     1      27.490  39.736  50.105  1.00  0.00     0.034 C 
ENDBRANCH   3   5
BRANCH   3   7
HETATM    7  C   UNL     1      26.427  42.001  48.847  1.00  0.00     0.231 C 
HETATM    8  C   UNL     1      25.283  41.654  47.908  1.00  0.00     0.034 C 
ENDBRANCH   3   7
ENDBRANCH   2   3
BRANCH   2   9
HETATM    9  C   UNL     1      25.843  44.285  50.907  1.00  0.00    -0.023 A 
HETATM   10  C   UNL     1      26.515  45.521  50.947  1.00  0.00     0.046 A 
HETATM   11  C   UNL     1      25.836  46.705  50.646  1.00  0.00     0.068 A 
HETATM   12  C   UNL     1      24.505  46.662  50.242  1.00  0.00     0.037 A 
HETATM   13  C   UNL     1      23.827  45.446  50.198  1.00  0.00     0.003 A 
HETATM   14  C   UNL     1      24.486  44.267  50.544  1.00  0.00     0.009 A 
BRANCH  11  15
HETATM   15  O   UNL     1      26.425  47.937  50.663  1.00  0.00    -0.356 OA
HETATM   16  C   UNL     1      26.880  48.384  49.388  1.00  0.00     0.210 C 
ENDBRANCH  11  15
ENDBRANCH   2   9
ENDBRANCH   1   2
BRANCH   1  17
HETATM   17  N   UNL     1      28.697  43.777  52.292  1.00  0.00    -0.354 N 
HETATM   18  C   UNL     1      28.836  43.028  53.445  1.00  0.00     0.253 C 
HETATM   19  O   UNL     1      28.566  41.834  53.488  1.00  0.00    -0.268 OA
HETATM   20  H   UNL     1      28.785  44.786  52.372  1.00  0.00     0.162 HD
BRANCH  18  21
HETATM   21  C   UNL     1      29.358  43.779  54.605  1.00  0.00     0.053 A 
HETATM   22  C   UNL     1      28.892  45.073  54.918  1.00  0.00     0.026 A 
HETATM   23  C   UNL     1      29.491  45.698  56.025  1.00  0.00     0.025 A 
HETATM   24  C   UNL     1      30.521  45.088  56.755  1.00  0.00     0.008 A 
HETATM   25  C   UNL     1      30.984  43.818  56.412  1.00  0.00    -0.061 A 
HETATM   26  C   UNL     1      32.090  43.159  57.182  1.00  0.00     0.048 C 
HETATM   27  C   UNL     1      30.390  43.161  55.332  1.00  0.00     0.025 A 
BRANCH  22  28
HETATM   28  N   UNL     1      27.869  45.689  54.169  1.00  0.00    -0.283 NA
HETATM   29  C   UNL     1      27.798  47.164  54.148  1.00  0.00     0.096 C 
HETATM   30  C   UNL     1      26.497  47.510  54.861  1.00  0.00     0.016 C 
HETATM   31  C   UNL     1      25.598  46.360  54.453  1.00  0.00     0.016 C 
HETATM   32  C   UNL     1      26.534  45.157  54.542  1.00  0.00     0.096 C 
ENDBRANCH  22  28
ENDBRANCH  18  21
ENDBRANCH   1  17
TORSDOF 9
ENDMDL
MODEL 3
REMARK VINA RESULT:      -7.4      3.578      6.665
REMARK  9 active torsions:
REMARK  status: ('A' for Active; 'I' for Inactive)
REMARK    1  A    between atoms: C_2  and  N_3 
REMARK    2  A    between atoms: N_3  and  C_30 
REMARK    3  A    between atoms: N_3  and  C_5 
REMARK    4  A    between atoms: C_5  and  C_6 
REMARK    5  A    between atoms: C_5  and  C_14 
REMARK    6  A    between atoms: C_8  and  O_9 
REMARK    7  A    between atoms: C_14  and  N_15 
REMARK       I    between atoms: N_15  and  C_16 
REMARK    8  A    between atoms: C_16  and  C_17 
REMARK    9  A    between atoms: C_18  and  N_19 
ROOT
HETATM    1  C   UNL     1      23.030  47.130  48.804  1.00  0.00     0.161 C 
ENDROOT
BRANCH   1   2
HETATM    2  C   UNL     1      21.470  47.213  48.913  1.00  0.00     0.238 C 
BRANCH   2   3
HETATM    3  N   UNL     1      20.756  46.455  47.753  1.00  0.00    -0.062 N 
HETATM    4  H   UNL     1      20.137  47.150  47.321  1.00  0.00     0.280 HD
BRANCH   3   5
HETATM    5  C   UNL     1      19.818  45.360  48.258  1.00  0.00     0.231 C 
HETATM    6  C   UNL     1      18.352  45.659  47.997  1.00  0.00     0.034 C 
ENDBRANCH   3   5
BRANCH   3   7
HETATM    7  C   UNL     1      21.711  45.992  46.664  1.00  0.00     0.231 C 
HETATM    8  C   UNL     1      21.062  46.000  45.290  1.00  0.00     0.034 C 
ENDBRANCH   3   7
ENDBRANCH   2   3
BRANCH   2   9
HETATM    9  C   UNL     1      21.033  48.675  48.967  1.00  0.00    -0.023 A 
HETATM   10  C   UNL     1      19.845  49.069  49.612  1.00  0.00     0.046 A 
HETATM   11  C   UNL     1      19.474  50.415  49.651  1.00  0.00     0.068 A 
HETATM   12  C   UNL     1      20.310  51.385  49.105  1.00  0.00     0.037 A 
HETATM   13  C   UNL     1      21.488  51.010  48.463  1.00  0.00     0.003 A 
HETATM   14  C   UNL     1      21.839  49.663  48.380  1.00  0.00     0.009 A 
BRANCH  11  15
HETATM   15  O   UNL     1      18.338  50.867  50.260  1.00  0.00    -0.356 OA
HETATM   16  C   UNL     1      17.954  52.185  49.873  1.00  0.00     0.210 C 
ENDBRANCH  11  15
ENDBRANCH   2   9
ENDBRANCH   1   2
BRANCH   1  17
HETATM   17  N   UNL     1      23.670  46.621  50.000  1.00  0.00    -0.354 N 
HETATM   18  C   UNL     1      24.813  47.234  50.474  1.00  0.00     0.253 C 
HETATM   19  O   UNL     1      25.262  48.260  49.977  1.00  0.00    -0.268 OA
HETATM   20  H   UNL     1      23.450  45.694  50.354  1.00  0.00     0.162 HD
BRANCH  18  21
HETATM   21  C   UNL     1      25.429  46.566  51.640  1.00  0.00     0.053 A 
HETATM   22  C   UNL     1      25.674  45.178  51.652  1.00  0.00     0.026 A 
HETATM   23  C   UNL     1      26.231  44.655  52.831  1.00  0.00     0.025 A 
HETATM   24  C   UNL     1      26.493  45.460  53.949  1.00  0.00     0.008 A 
HETATM   25  C   UNL     1      26.220  46.828  53.923  1.00  0.00    -0.061 A 
HETATM   26  C   UNL     1      26.491  47.697  55.116  1.00  0.00     0.048 C 
HETATM   27  C   UNL     1      25.690  47.380  52.755  1.00  0.00     0.025 A 
BRANCH  22  28
HETATM   28  N   UNL     1      25.390  44.370  50.532  1.00  0.00    -0.283 NA
HETATM   29  C   UNL     1      24.630  43.120  50.735  1.00  0.00     0.096 C 
HETATM   30  C   UNL     1      25.605  42.001  50.393  1.00  0.00     0.016 C 
HETATM   31  C   UNL     1      26.420  42.623  49.277  1.00  0.00     0.016 C 
HETATM   32  C   UNL     1      26.624  44.053  49.769  1.00  0.00     0.096 C 
ENDBRANCH  22  28
ENDBRANCH  18  21
ENDBRANCH   1  17
TORSDOF 9
ENDMDL
MODEL 4
REMARK VINA RESULT:      -7.3      2.457      6.158
REMARK  9 active torsions:
REMARK  status: ('A' for Active; 'I' for Inactive)
REMARK    1  A    between atoms: C_2  and  N_3 
REMARK    2  A    between atoms: N_3  and  C_30 
REMARK    3  A    between atoms: N_3  and  C_5 
REMARK    4  A    between atoms: C_5  and  C_6 
REMARK    5  A    between atoms: C_5  and  C_14 
REMARK    6  A    between atoms: C_8  and  O_9 
REMARK    7  A    between atoms: C_14  and  N_15 
REMARK       I    between atoms: N_15  and  C_16 
REMARK    8  A    between atoms: C_16  and  C_17 
REMARK    9  A    between atoms: C_18  and  N_19 
ROOT
HETATM    1  C   UNL     1      25.281  44.912  50.323  1.00  0.00     0.161 C 
ENDROOT
BRANCH   1   2
HETATM    2  C   UNL     1      26.040  46.119  50.971  1.00  0.00     0.238 C 
BRANCH   2   3
HETATM    3  N   UNL     1      25.563  46.401  52.429  1.00  0.00    -0.062 N 
HETATM    4  H   UNL     1      24.820  47.102  52.335  1.00  0.00     0.280 HD
BRANCH   3   5
HETATM    5  C   UNL     1      26.637  47.086  53.275  1.00  0.00     0.231 C 
HETATM    6  C   UNL     1      26.066  47.898  54.423  1.00  0.00     0.034 C 
ENDBRANCH   3   5
BRANCH   3   7
HETATM    7  C   UNL     1      24.935  45.189  53.098  1.00  0.00     0.231 C 
HETATM    8  C   UNL     1      25.917  44.457  53.998  1.00  0.00     0.034 C 
ENDBRANCH   3   7
ENDBRANCH   2   3
BRANCH   2   9
HETATM    9  C   UNL     1      25.888  47.358  50.093  1.00  0.00    -0.023 A 
HETATM   10  C   UNL     1      24.625  47.909  49.802  1.00  0.00     0.046 A 
HETATM   11  C   UNL     1      24.517  49.047  49.000  1.00  0.00     0.068 A 
HETATM   12  C   UNL     1      25.664  49.683  48.534  1.00  0.00     0.037 A 
HETATM   13  C   UNL     1      26.920  49.150  48.813  1.00  0.00     0.003 A 
HETATM   14  C   UNL     1      27.031  47.986  49.573  1.00  0.00     0.009 A 
BRANCH  11  15
HETATM   15  O   UNL     1      23.326  49.635  48.680  1.00  0.00    -0.356 OA
HETATM   16  C   UNL     1      22.423  48.780  47.981  1.00  0.00     0.210 C 
ENDBRANCH  11  15
ENDBRANCH   2   9
ENDBRANCH   1   2
BRANCH   1  17
HETATM   17  N   UNL     1      26.105  43.733  50.153  1.00  0.00    -0.354 N 
HETATM   18  C   UNL     1      25.598  42.494  50.495  1.00  0.00     0.253 C 
HETATM   19  O   UNL     1      24.437  42.335  50.851  1.00  0.00    -0.268 OA
HETATM   20  H   UNL     1      27.109  43.813  50.025  1.00  0.00     0.162 HD
BRANCH  18  21
HETATM   21  C   UNL     1      26.563  41.382  50.372  1.00  0.00     0.053 A 
HETATM   22  C   UNL     1      27.701  41.296  51.200  1.00  0.00     0.026 A 
HETATM   23  C   UNL     1      28.563  40.211  50.963  1.00  0.00     0.025 A 
HETATM   24  C   UNL     1      28.326  39.286  49.936  1.00  0.00     0.008 A 
HETATM   25  C   UNL     1      27.206  39.404  49.112  1.00  0.00    -0.061 A 
HETATM   26  C   UNL     1      26.947  38.424  48.007  1.00  0.00     0.048 C 
HETATM   27  C   UNL     1      26.319  40.458  49.341  1.00  0.00     0.025 A 
BRANCH  22  28
HETATM   28  N   UNL     1      27.944  42.239  52.219  1.00  0.00    -0.283 NA
HETATM   29  C   UNL     1      29.019  43.234  52.021  1.00  0.00     0.096 C 
HETATM   30  C   UNL     1      30.069  42.899  53.072  1.00  0.00     0.016 C 
HETATM   31  C   UNL     1      29.217  42.417  54.229  1.00  0.00     0.016 C 
HETATM   32  C   UNL     1      28.152  41.575  53.530  1.00  0.00     0.096 C 
ENDBRANCH  22  28
ENDBRANCH  18  21
ENDBRANCH   1  17
TORSDOF 9
ENDMDL
MODEL 5
REMARK VINA RESULT:      -7.2      2.445      4.622
REMARK  9 active torsions:
REMARK  status: ('A' for Active; 'I' for Inactive)
REMARK    1  A    between atoms: C_2  and  N_3 
REMARK    2  A    between atoms: N_3  and  C_30 
REMARK    3  A    between atoms: N_3  and  C_5 
REMARK    4  A    between atoms: C_5  and  C_6 
REMARK    5  A    between atoms: C_5  and  C_14 
REMARK    6  A    between atoms: C_8  and  O_9 
REMARK    7  A    between atoms: C_14  and  N_15 
REMARK       I    between atoms: N_15  and  C_16 
REMARK    8  A    between atoms: C_16  and  C_17 
REMARK    9  A    between atoms: C_18  and  N_19 
ROOT
HETATM    1  C   UNL     1      24.979  45.839  49.777  1.00  0.00     0.161 C 
ENDROOT
BRANCH   1   2
HETATM    2  C   UNL     1      23.568  46.515  49.851  1.00  0.00     0.238 C 
BRANCH   2   3
HETATM    3  N   UNL     1      22.493  45.727  49.041  1.00  0.00    -0.062 N 
HETATM    4  H   UNL     1      21.594  46.116  49.343  1.00  0.00     0.280 HD
BRANCH   3   5
HETATM    5  C   UNL     1      22.429  44.251  49.434  1.00  0.00     0.231 C 
HETATM    6  C   UNL     1      23.062  43.330  48.406  1.00  0.00     0.034 C 
ENDBRANCH   3   5
BRANCH   3   7
HETATM    7  C   UNL     1      22.585  45.959  47.541  1.00  0.00     0.231 C 
HETATM    8  C   UNL     1      21.220  46.180  46.910  1.00  0.00     0.034 C 
ENDBRANCH   3   7
ENDBRANCH   2   3
BRANCH   2   9
HETATM    9  C   UNL     1      23.662  47.963  49.378  1.00  0.00    -0.023 A 
HETATM   10  C   UNL     1      24.814  48.459  48.739  1.00  0.00     0.046 A 
HETATM   11  C   UNL     1      24.869  49.788  48.311  1.00  0.00     0.068 A 
HETATM   12  C   UNL     1      23.757  50.613  48.457  1.00  0.00     0.037 A 
HETATM   13  C   UNL     1      22.611  50.136  49.087  1.00  0.00     0.003 A 
HETATM   14  C   UNL     1      22.568  48.825  49.559  1.00  0.00     0.009 A 
BRANCH  11  15
HETATM   15  O   UNL     1      25.952  50.335  47.684  1.00  0.00    -0.356 OA
HETATM   16  C   UNL     1      27.180  50.169  48.390  1.00  0.00     0.210 C 
ENDBRANCH  11  15
ENDBRANCH   2   9
ENDBRANCH   1   2
BRANCH   1  17
HETATM   17  N   UNL     1      25.795  46.069  50.951  1.00  0.00    -0.354 N 
HETATM   18  C   UNL     1      25.481  45.428  52.134  1.00  0.00     0.253 C 
HETATM   19  O   UNL     1      24.590  44.591  52.210  1.00  0.00    -0.268 OA
HETATM   20  H   UNL     1      26.430  46.861  50.998  1.00  0.00     0.162 HD
BRANCH  18  21
HETATM   21  C   UNL     1      26.323  45.817  53.285  1.00  0.00     0.053 A 
HETATM   22  C   UNL     1      27.347  44.978  53.768  1.00  0.00     0.026 A 
HETATM   23  C   UNL     1      28.055  45.443  54.890  1.00  0.00     0.025 A 
HETATM   24  C   UNL     1      27.736  46.656  55.518  1.00  0.00     0.008 A 
HETATM   25  C   UNL     1      26.702  47.459  55.037  1.00  0.00    -0.061 A 
HETATM   26  C   UNL     1      26.349  48.755  55.705  1.00  0.00     0.048 C 
HETATM   27  C   UNL     1      25.998  47.035  53.908  1.00  0.00     0.025 A 
BRANCH  22  28
HETATM   28  N   UNL     1      27.650  43.751  53.144  1.00  0.00    -0.283 NA
HETATM   29  C   UNL     1      27.667  42.524  53.967  1.00  0.00     0.096 C 
HETATM   30  C   UNL     1      29.117  42.061  53.963  1.00  0.00     0.016 C 
HETATM   31  C   UNL     1      29.572  42.460  52.573  1.00  0.00     0.016 C 
HETATM   32  C   UNL     1      28.927  43.831  52.390  1.00  0.00     0.096 C 
ENDBRANCH  22  28
ENDBRANCH  18  21
ENDBRANCH   1  17
TORSDOF 9
ENDMDL
MODEL 6
REMARK VINA RESULT:      -7.0      2.666      5.078
REMARK  9 active torsions:
REMARK  status: ('A' for Active; 'I' for Inactive)
REMARK    1  A    between atoms: C_2  and  N_3 
REMARK    2  A    between atoms: N_3  and  C_30 
REMARK    3  A    between atoms: N_3  and  C_5 
REMARK    4  A    between atoms: C_5  and  C_6 
REMARK    5  A    between atoms: C_5  and  C_14 
REMARK    6  A    between atoms: C_8  and  O_9 
REMARK    7  A    between atoms: C_14  and  N_15 
REMARK       I    between atoms: N_15  and  C_16 
REMARK    8  A    between atoms: C_16  and  C_17 
REMARK    9  A    between atoms: C_18  and  N_19 
ROOT
HETATM    1  C   UNL     1      25.030  46.098  49.643  1.00  0.00     0.161 C 
ENDROOT
BRANCH   1   2
HETATM    2  C   UNL     1      23.580  46.681  49.743  1.00  0.00     0.238 C 
BRANCH   2   3
HETATM    3  N   UNL     1      22.532  45.785  49.014  1.00  0.00    -0.062 N 
HETATM    4  H   UNL     1      21.627  46.234  49.192  1.00  0.00     0.280 HD
BRANCH   3   5
HETATM    5  C   UNL     1      22.408  44.397  49.643  1.00  0.00     0.231 C 
HETATM    6  C   UNL     1      22.810  43.276  48.702  1.00  0.00     0.034 C 
ENDBRANCH   3   5
BRANCH   3   7
HETATM    7  C   UNL     1      22.714  45.761  47.504  1.00  0.00     0.231 C 
HETATM    8  C   UNL     1      21.459  46.202  46.769  1.00  0.00     0.034 C 
ENDBRANCH   3   7
ENDBRANCH   2   3
BRANCH   2   9
HETATM    9  C   UNL     1      23.557  48.107  49.201  1.00  0.00    -0.023 A 
HETATM   10  C   UNL     1      22.376  48.874  49.186  1.00  0.00     0.046 A 
HETATM   11  C   UNL     1      22.388  50.180  48.689  1.00  0.00     0.068 A 
HETATM   12  C   UNL     1      23.583  50.754  48.264  1.00  0.00     0.037 A 
HETATM   13  C   UNL     1      24.758  50.007  48.272  1.00  0.00     0.003 A 
HETATM   14  C   UNL     1      24.743  48.687  48.723  1.00  0.00     0.009 A 
BRANCH  11  15
HETATM   15  O   UNL     1      21.282  50.981  48.646  1.00  0.00    -0.356 OA
HETATM   16  C   UNL     1      20.046  50.270  48.673  1.00  0.00     0.210 C 
ENDBRANCH  11  15
ENDBRANCH   2   9
ENDBRANCH   1   2
BRANCH   1  17
HETATM   17  N   UNL     1      25.818  46.293  50.843  1.00  0.00    -0.354 N 
HETATM   18  C   UNL     1      25.583  45.498  51.948  1.00  0.00     0.253 C 
HETATM   19  O   UNL     1      24.795  44.561  51.927  1.00  0.00    -0.268 OA
HETATM   20  H   UNL     1      26.358  47.143  50.980  1.00  0.00     0.162 HD
BRANCH  18  21
HETATM   21  C   UNL     1      26.378  45.856  53.141  1.00  0.00     0.053 A 
HETATM   22  C   UNL     1      27.362  44.990  53.661  1.00  0.00     0.026 A 
HETATM   23  C   UNL     1      28.026  45.427  54.820  1.00  0.00     0.025 A 
HETATM   24  C   UNL     1      27.703  46.639  55.448  1.00  0.00     0.008 A 
HETATM   25  C   UNL     1      26.709  47.470  54.929  1.00  0.00    -0.061 A 
HETATM   26  C   UNL     1      26.353  48.764  55.597  1.00  0.00     0.048 C 
HETATM   27  C   UNL     1      26.050  47.073  53.764  1.00  0.00     0.025 A 
BRANCH  22  28
HETATM   28  N   UNL     1      27.668  43.764  53.037  1.00  0.00    -0.283 NA
HETATM   29  C   UNL     1      27.442  42.511  53.787  1.00  0.00     0.096 C 
HETATM   30  C   UNL     1      28.829  41.923  54.006  1.00  0.00     0.016 C 
HETATM   31  C   UNL     1      29.549  42.329  52.736  1.00  0.00     0.016 C 
HETATM   32  C   UNL     1      29.058  43.757  52.516  1.00  0.00     0.096 C 
ENDBRANCH  22  28
ENDBRANCH  18  21
ENDBRANCH   1  17
TORSDOF 9
ENDMDL
MODEL 7
REMARK VINA RESULT:      -6.9     12.518     15.047
REMARK  9 active torsions:
REMARK  status: ('A' for Active; 'I' for Inactive)
REMARK    1  A    between atoms: C_2  and  N_3 
REMARK    2  A    between atoms: N_3  and  C_30 
REMARK    3  A    between atoms: N_3  and  C_5 
REMARK    4  A    between atoms: C_5  and  C_6 
REMARK    5  A    between atoms: C_5  and  C_14 
REMARK    6  A    between atoms: C_8  and  O_9 
REMARK    7  A    between atoms: C_14  and  N_15 
REMARK       I    between atoms: N_15  and  C_16 
REMARK    8  A    between atoms: C_16  and  C_17 
REMARK    9  A    between atoms: C_18  and  N_19 
ROOT
HETATM    1  C   UNL     1      32.068  49.196  42.480  1.00  0.00     0.161 C 
ENDROOT
BRANCH   1   2
HETATM    2  C   UNL     1      32.256  50.751  42.507  1.00  0.00     0.238 C 
BRANCH   2   3
HETATM    3  N   UNL     1      31.813  51.422  41.171  1.00  0.00    -0.062 N 
HETATM    4  H   UNL     1      31.056  50.828  40.813  1.00  0.00     0.280 HD
BRANCH   3   5
HETATM    5  C   UNL     1      32.897  51.359  40.096  1.00  0.00     0.231 C 
HETATM    6  C   UNL     1      33.200  52.710  39.472  1.00  0.00     0.034 C 
ENDBRANCH   3   5
BRANCH   3   7
HETATM    7  C   UNL     1      31.220  52.809  41.366  1.00  0.00     0.231 C 
HETATM    8  C   UNL     1      30.302  52.876  42.576  1.00  0.00     0.034 C 
ENDBRANCH   3   7
ENDBRANCH   2   3
BRANCH   2   9
HETATM    9  C   UNL     1      33.706  51.091  42.840  1.00  0.00    -0.023 A 
HETATM   10  C   UNL     1      34.781  50.530  42.125  1.00  0.00     0.046 A 
HETATM   11  C   UNL     1      36.098  50.865  42.448  1.00  0.00     0.068 A 
HETATM   12  C   UNL     1      36.354  51.807  43.440  1.00  0.00     0.037 A 
HETATM   13  C   UNL     1      35.301  52.370  44.156  1.00  0.00     0.003 A 
HETATM   14  C   UNL     1      33.987  52.004  43.870  1.00  0.00     0.009 A 
BRANCH  11  15
HETATM   15  O   UNL     1      37.187  50.361  41.796  1.00  0.00    -0.356 OA
HETATM   16  C   UNL     1      38.400  51.062  42.058  1.00  0.00     0.210 C 
ENDBRANCH  11  15
ENDBRANCH   2   9
ENDBRANCH   1   2
BRANCH   1  17
HETATM   17  N   UNL     1      30.930  48.762  41.696  1.00  0.00    -0.354 N 
HETATM   18  C   UNL     1      31.123  47.891  40.642  1.00  0.00     0.253 C 
HETATM   19  O   UNL     1      32.212  47.387  40.397  1.00  0.00    -0.268 OA
HETATM   20  H   UNL     1      30.047  49.262  41.739  1.00  0.00     0.162 HD
BRANCH  18  21
HETATM   21  C   UNL     1      29.905  47.600  39.856  1.00  0.00     0.053 A 
HETATM   22  C   UNL     1      29.096  48.632  39.339  1.00  0.00     0.026 A 
HETATM   23  C   UNL     1      27.946  48.229  38.639  1.00  0.00     0.025 A 
HETATM   24  C   UNL     1      27.600  46.877  38.495  1.00  0.00     0.008 A 
HETATM   25  C   UNL     1      28.403  45.873  39.036  1.00  0.00    -0.061 A 
HETATM   26  C   UNL     1      28.040  44.425  38.893  1.00  0.00     0.048 C 
HETATM   27  C   UNL     1      29.566  46.243  39.715  1.00  0.00     0.025 A 
BRANCH  22  28
HETATM   28  N   UNL     1      29.438  49.989  39.504  1.00  0.00    -0.283 NA
HETATM   29  C   UNL     1      28.416  50.918  40.028  1.00  0.00     0.096 C 
HETATM   30  C   UNL     1      28.122  51.876  38.881  1.00  0.00     0.016 C 
HETATM   31  C   UNL     1      29.477  51.995  38.214  1.00  0.00     0.016 C 
HETATM   32  C   UNL     1      29.996  50.560  38.252  1.00  0.00     0.096 C 
ENDBRANCH  22  28
ENDBRANCH  18  21
ENDBRANCH   1  17
TORSDOF 9
ENDMDL
MODEL 8
REMARK VINA RESULT:      -6.7     12.415     14.595
REMARK  9 active torsions:
REMARK  status: ('A' for Active; 'I' for Inactive)
REMARK    1  A    between atoms: C_2  and  N_3 
REMARK    2  A    between atoms: N_3  and  C_30 
REMARK    3  A    between atoms: N_3  and  C_5 
REMARK    4  A    between atoms: C_5  and  C_6 
REMARK    5  A    between atoms: C_5  and  C_14 
REMARK    6  A    between atoms: C_8  and  O_9 
REMARK    7  A    between atoms: C_14  and  N_15 
REMARK       I    between atoms: N_15  and  C_16 
REMARK    8  A    between atoms: C_16  and  C_17 
REMARK    9  A    between atoms: C_18  and  N_19 
ROOT
HETATM    1  C   UNL     1      31.504  49.028  40.991  1.00  0.00     0.161 C 
ENDROOT
BRANCH   1   2
HETATM    2  C   UNL     1      31.048  50.127  42.009  1.00  0.00     0.238 C 
BRANCH   2   3
HETATM    3  N   UNL     1      30.169  51.226  41.336  1.00  0.00    -0.062 N 
HETATM    4  H   UNL     1      30.394  52.092  41.838  1.00  0.00     0.280 HD
BRANCH   3   5
HETATM    5  C   UNL     1      28.675  51.012  41.579  1.00  0.00     0.231 C 
HETATM    6  C   UNL     1      27.825  52.199  41.162  1.00  0.00     0.034 C 
ENDBRANCH   3   5
BRANCH   3   7
HETATM    7  C   UNL     1      30.526  51.467  39.877  1.00  0.00     0.231 C 
HETATM    8  C   UNL     1      31.519  52.605  39.710  1.00  0.00     0.034 C 
ENDBRANCH   3   7
ENDBRANCH   2   3
BRANCH   2   9
HETATM    9  C   UNL     1      32.268  50.740  42.690  1.00  0.00    -0.023 A 
HETATM   10  C   UNL     1      33.550  50.674  42.111  1.00  0.00     0.046 A 
HETATM   11  C   UNL     1      34.648  51.249  42.755  1.00  0.00     0.068 A 
HETATM   12  C   UNL     1      34.470  51.948  43.947  1.00  0.00     0.037 A 
HETATM   13  C   UNL     1      33.208  52.020  44.532  1.00  0.00     0.003 A 
HETATM   14  C   UNL     1      32.117  51.407  43.917  1.00  0.00     0.009 A 
BRANCH  11  15
HETATM   15  O   UNL     1      35.917  51.226  42.251  1.00  0.00    -0.356 OA
HETATM   16  C   UNL     1      36.018  51.684  40.904  1.00  0.00     0.210 C 
ENDBRANCH  11  15
ENDBRANCH   2   9
ENDBRANCH   1   2
BRANCH   1  17
HETATM   17  N   UNL     1      30.480  48.044  40.701  1.00  0.00    -0.354 N 
HETATM   18  C   UNL     1      30.273  47.642  39.396  1.00  0.00     0.253 C 
HETATM   19  O   UNL     1      30.988  48.012  38.474  1.00  0.00    -0.268 OA
HETATM   20  H   UNL     1      29.757  47.829  41.382  1.00  0.00     0.162 HD
BRANCH  18  21
HETATM   21  C   UNL     1      29.138  46.712  39.214  1.00  0.00     0.053 A 
HETATM   22  C   UNL     1      27.802  47.158  39.269  1.00  0.00     0.026 A 
HETATM   23  C   UNL     1      26.811  46.174  39.116  1.00  0.00     0.025 A 
HETATM   24  C   UNL     1      27.130  44.817  38.957  1.00  0.00     0.008 A 
HETATM   25  C   UNL     1      28.460  44.395  38.930  1.00  0.00    -0.061 A 
HETATM   26  C   UNL     1      28.812  42.947  38.766  1.00  0.00     0.048 C 
HETATM   27  C   UNL     1      29.467  45.355  39.054  1.00  0.00     0.025 A 
BRANCH  22  28
HETATM   28  N   UNL     1      27.486  48.520  39.449  1.00  0.00    -0.283 NA
HETATM   29  C   UNL     1      26.194  48.871  40.073  1.00  0.00     0.096 C 
HETATM   30  C   UNL     1      25.401  49.573  38.978  1.00  0.00     0.016 C 
HETATM   31  C   UNL     1      26.490  50.305  38.219  1.00  0.00     0.016 C 
HETATM   32  C   UNL     1      27.617  49.276  38.178  1.00  0.00     0.096 C 
ENDBRANCH  22  28
ENDBRANCH  18  21
ENDBRANCH   1  17
TORSDOF 9
ENDMDL
MODEL 9
REMARK VINA RESULT:      -6.7      2.763      5.448
REMARK  9 active torsions:
REMARK  status: ('A' for Active; 'I' for Inactive)
REMARK    1  A    between atoms: C_2  and  N_3 
REMARK    2  A    between atoms: N_3  and  C_30 
REMARK    3  A    between atoms: N_3  and  C_5 
REMARK    4  A    between atoms: C_5  and  C_6 
REMARK    5  A    between atoms: C_5  and  C_14 
REMARK    6  A    between atoms: C_8  and  O_9 
REMARK    7  A    between atoms: C_14  and  N_15 
REMARK       I    between atoms: N_15  and  C_16 
REMARK    8  A    between atoms: C_16  and  C_17 
REMARK    9  A    between atoms: C_18  and  N_19 
ROOT
HETATM    1  C   UNL     1      26.157  40.314  50.764  1.00  0.00     0.161 C 
ENDROOT
BRANCH   1   2
HETATM    2  C   UNL     1      26.017  40.761  49.269  1.00  0.00     0.238 C 
BRANCH   2   3
HETATM    3  N   UNL     1      24.533  41.031  48.871  1.00  0.00    -0.062 N 
HETATM    4  H   UNL     1      23.974  40.553  49.586  1.00  0.00     0.280 HD
BRANCH   3   5
HETATM    5  C   UNL     1      24.146  40.353  47.557  1.00  0.00     0.231 C 
HETATM    6  C   UNL     1      22.645  40.286  47.338  1.00  0.00     0.034 C 
ENDBRANCH   3   5
BRANCH   3   7
HETATM    7  C   UNL     1      24.154  42.503  48.938  1.00  0.00     0.231 C 
HETATM    8  C   UNL     1      23.279  42.815  50.141  1.00  0.00     0.034 C 
ENDBRANCH   3   7
ENDBRANCH   2   3
BRANCH   2   9
HETATM    9  C   UNL     1      26.650  39.716  48.355  1.00  0.00    -0.023 A 
HETATM   10  C   UNL     1      27.188  40.058  47.100  1.00  0.00     0.046 A 
HETATM   11  C   UNL     1      27.767  39.081  46.287  1.00  0.00     0.068 A 
HETATM   12  C   UNL     1      27.873  37.769  46.742  1.00  0.00     0.037 A 
HETATM   13  C   UNL     1      27.345  37.415  47.981  1.00  0.00     0.003 A 
HETATM   14  C   UNL     1      26.723  38.378  48.776  1.00  0.00     0.009 A 
BRANCH  11  15
HETATM   15  O   UNL     1      28.309  39.342  45.061  1.00  0.00    -0.356 OA
HETATM   16  C   UNL     1      28.307  40.723  44.705  1.00  0.00     0.210 C 
ENDBRANCH  11  15
ENDBRANCH   2   9
ENDBRANCH   1   2
BRANCH   1  17
HETATM   17  N   UNL     1      26.549  41.386  51.656  1.00  0.00    -0.354 N 
HETATM   18  C   UNL     1      27.889  41.671  51.829  1.00  0.00     0.253 C 
HETATM   19  O   UNL     1      28.768  41.115  51.182  1.00  0.00    -0.268 OA
HETATM   20  H   UNL     1      25.895  41.765  52.334  1.00  0.00     0.162 HD
BRANCH  18  21
HETATM   21  C   UNL     1      28.169  42.716  52.837  1.00  0.00     0.053 A 
HETATM   22  C   UNL     1      27.492  43.952  52.826  1.00  0.00     0.026 A 
HETATM   23  C   UNL     1      27.870  44.877  53.814  1.00  0.00     0.025 A 
HETATM   24  C   UNL     1      28.890  44.603  54.736  1.00  0.00     0.008 A 
HETATM   25  C   UNL     1      29.564  43.381  54.713  1.00  0.00    -0.061 A 
HETATM   26  C   UNL     1      30.662  43.080  55.690  1.00  0.00     0.048 C 
HETATM   27  C   UNL     1      29.192  42.432  53.758  1.00  0.00     0.025 A 
BRANCH  22  28
HETATM   28  N   UNL     1      26.480  44.230  51.885  1.00  0.00    -0.283 NA
HETATM   29  C   UNL     1      26.851  44.908  50.625  1.00  0.00     0.096 C 
HETATM   30  C   UNL     1      26.167  46.267  50.688  1.00  0.00     0.016 C 
HETATM   31  C   UNL     1      24.883  45.941  51.424  1.00  0.00     0.016 C 
HETATM   32  C   UNL     1      25.355  44.973  52.506  1.00  0.00     0.096 C 
ENDBRANCH  22  28
ENDBRANCH  18  21
ENDBRANCH   1  17
TORSDOF 9
ENDMDL
MODEL 10
REMARK VINA RESULT:      -6.7      3.016      5.805
REMARK  9 active torsions:
REMARK  status: ('A' for Active; 'I' for Inactive)
REMARK    1  A    between atoms: C_2  and  N_3 
REMARK    2  A    between atoms: N_3  and  C_30 
REMARK    3  A    between atoms: N_3  and  C_5 
REMARK    4  A    between atoms: C_5  and  C_6 
REMARK    5  A    between atoms: C_5  and  C_14 
REMARK    6  A    between atoms: C_8  and  O_9 
REMARK    7  A    between atoms: C_14  and  N_15 
REMARK       I    between atoms: N_15  and  C_16 
REMARK    8  A    between atoms: C_16  and  C_17 
REMARK    9  A    between atoms: C_18  and  N_19 
ROOT
HETATM    1  C   UNL     1      22.914  46.020  48.516  1.00  0.00     0.161 C 
ENDROOT
BRANCH   1   2
HETATM    2  C   UNL     1      21.844  47.051  49.010  1.00  0.00     0.238 C 
BRANCH   2   3
HETATM    3  N   UNL     1      20.465  46.853  48.309  1.00  0.00    -0.062 N 
HETATM    4  H   UNL     1      19.827  47.497  48.789  1.00  0.00     0.280 HD
BRANCH   3   5
HETATM    5  C   UNL     1      19.875  45.465  48.559  1.00  0.00     0.231 C 
HETATM    6  C   UNL     1      19.647  44.674  47.284  1.00  0.00     0.034 C 
ENDBRANCH   3   5
BRANCH   3   7
HETATM    7  C   UNL     1      20.474  47.262  46.845  1.00  0.00     0.231 C 
HETATM    8  C   UNL     1      19.374  48.259  46.521  1.00  0.00     0.034 C 
ENDBRANCH   3   7
ENDBRANCH   2   3
BRANCH   2   9
HETATM    9  C   UNL     1      22.364  48.472  48.810  1.00  0.00    -0.023 A 
HETATM   10  C   UNL     1      23.605  48.727  48.196  1.00  0.00     0.046 A 
HETATM   11  C   UNL     1      24.052  50.039  48.021  1.00  0.00     0.068 A 
HETATM   12  C   UNL     1      23.241  51.107  48.396  1.00  0.00     0.037 A 
HETATM   13  C   UNL     1      22.012  50.871  49.004  1.00  0.00     0.003 A 
HETATM   14  C   UNL     1      21.582  49.563  49.225  1.00  0.00     0.009 A 
BRANCH  11  15
HETATM   15  O   UNL     1      25.242  50.359  47.433  1.00  0.00    -0.356 OA
HETATM   16  C   UNL     1      26.388  49.902  48.148  1.00  0.00     0.210 C 
ENDBRANCH  11  15
ENDBRANCH   2   9
ENDBRANCH   1   2
BRANCH   1  17
HETATM   17  N   UNL     1      24.016  45.839  49.438  1.00  0.00    -0.354 N 
HETATM   18  C   UNL     1      23.932  44.868  50.417  1.00  0.00     0.253 C 
HETATM   19  O   UNL     1      22.997  44.079  50.480  1.00  0.00    -0.268 OA
HETATM   20  H   UNL     1      24.730  46.554  49.544  1.00  0.00     0.162 HD
BRANCH  18  21
HETATM   21  C   UNL     1      25.071  44.845  51.358  1.00  0.00     0.053 A 
HETATM   22  C   UNL     1      25.981  43.769  51.391  1.00  0.00     0.026 A 
HETATM   23  C   UNL     1      27.002  43.847  52.354  1.00  0.00     0.025 A 
HETATM   24  C   UNL     1      27.089  44.915  53.258  1.00  0.00     0.008 A 
HETATM   25  C   UNL     1      26.163  45.958  53.224  1.00  0.00    -0.061 A 
HETATM   26  C   UNL     1      26.244  47.101  54.191  1.00  0.00     0.048 C 
HETATM   27  C   UNL     1      25.153  45.920  52.260  1.00  0.00     0.025 A 
BRANCH  22  28
HETATM   28  N   UNL     1      25.877  42.688  50.492  1.00  0.00    -0.283 NA
HETATM   29  C   UNL     1      26.137  41.323  50.993  1.00  0.00     0.096 C 
HETATM   30  C   UNL     1      27.398  40.868  50.271  1.00  0.00     0.016 C 
HETATM   31  C   UNL     1      27.243  41.531  48.916  1.00  0.00     0.016 C 
HETATM   32  C   UNL     1      26.706  42.912  49.281  1.00  0.00     0.096 C 
ENDBRANCH  22  28
ENDBRANCH  18  21
ENDBRANCH   1  17
TORSDOF 9
ENDMDL
