MODEL 1
REMARK VINA RESULT:      -8.9      0.000      0.000
REMARK  4 active torsions:
REMARK  status: ('A' for Active; 'I' for Inactive)
REMARK    1  A    between atoms: C_7  and  C_8 
REMARK    2  A    between atoms: C_8  and  N_9 
REMARK    3  A    between atoms: C_13  and  C_14 
REMARK    4  A    between atoms: C_16  and  C_17 
ROOT
HETATM    1  N   UNL     1      25.835  46.566  51.331  1.00  0.00    -0.067 N 
HETATM    2  H   UNL     1      24.854  46.827  51.178  1.00  0.00     0.280 HD
HETATM    3  C   UNL     1      25.858  45.101  51.710  1.00  0.00     0.236 C 
HETATM    4  C   UNL     1      25.214  44.876  53.073  1.00  0.00     0.040 C 
HETATM    5  C   UNL     1      25.828  45.744  54.175  1.00  0.00     0.058 C 
HETATM    6  C   UNL     1      25.768  47.215  53.752  1.00  0.00     0.040 C 
HETATM    7  C   UNL     1      26.411  47.473  52.395  1.00  0.00     0.236 C 
ENDROOT
BRANCH   1   8
HETATM    8  C   UNL     1      26.561  46.817  50.017  1.00  0.00     0.276 C 
BRANCH   8   9
HETATM    9  C   UNL     1      26.182  48.081  49.344  1.00  0.00     0.003 A 
HETATM   10  C   UNL     1      24.855  48.557  49.089  1.00  0.00     0.007 A 
HETATM   11  C   UNL     1      23.549  48.087  49.333  1.00  0.00     0.015 A 
HETATM   12  C   UNL     1      25.006  49.787  48.459  1.00  0.00     0.085 A 
HETATM   13  C   UNL     1      22.463  48.881  48.937  1.00  0.00     0.001 A 
HETATM   14  C   UNL     1      22.660  50.112  48.309  1.00  0.00     0.003 A 
HETATM   15  C   UNL     1      23.948  50.596  48.054  1.00  0.00     0.038 A 
HETATM   16  O   UNL     1      26.325  50.076  48.305  1.00  0.00    -0.321 OA
HETATM   17  C   UNL     1      27.029  49.040  48.824  1.00  0.00     0.152 A 
ENDBRANCH   8   9
ENDBRANCH   1   8
BRANCH   5  18
HETATM   18  C   UNL     1      27.235  45.317  54.468  1.00  0.00     0.108 A 
HETATM   19  N   UNL     1      27.788  44.189  54.074  1.00  0.00    -0.229 NA
HETATM   20  C   UNL     1      29.079  44.176  54.591  1.00  0.00     0.157 A 
HETATM   21  C   UNL     1      29.285  45.344  55.302  1.00  0.00     0.126 A 
HETATM   22  N   UNL     1      28.118  46.056  55.214  1.00  0.00    -0.352 N 
HETATM   23  H   UNL     1      27.941  46.960  55.637  1.00  0.00     0.166 HD
BRANCH  20  24
HETATM   24  C   UNL     1      30.027  43.028  54.371  1.00  0.00     0.436 C 
HETATM   25  F   UNL     1      29.394  41.825  54.447  1.00  0.00    -0.165 F 
HETATM   26  F   UNL     1      30.619  43.086  53.152  1.00  0.00    -0.165 F 
HETATM   27  F   UNL     1      31.018  43.008  55.299  1.00  0.00    -0.165 F 
ENDBRANCH  20  24
ENDBRANCH   5  18
TORSDOF 4
ENDMDL
MODEL 2
REMARK VINA RESULT:      -8.7      4.783      8.365
REMARK  4 active torsions:
REMARK  status: ('A' for Active; 'I' for Inactive)
REMARK    1  A    between atoms: C_7  and  C_8 
REMARK    2  A    between atoms: C_8  and  N_9 
REMARK    3  A    between atoms: C_13  and  C_14 
REMARK    4  A    between atoms: C_16  and  C_17 
ROOT
HETATM    1  N   UNL     1      25.941  46.221  52.105  1.00  0.00    -0.067 N 
HETATM    2  H   UNL     1      26.703  45.536  52.058  1.00  0.00     0.280 HD
HETATM    3  C   UNL     1      24.687  45.537  51.605  1.00  0.00     0.236 C 
HETATM    4  C   UNL     1      24.790  45.223  50.117  1.00  0.00     0.040 C 
HETATM    5  C   UNL     1      25.127  46.452  49.269  1.00  0.00     0.058 C 
HETATM    6  C   UNL     1      26.408  47.098  49.804  1.00  0.00     0.040 C 
HETATM    7  C   UNL     1      26.334  47.431  51.289  1.00  0.00     0.236 C 
ENDROOT
BRANCH   1   8
HETATM    8  C   UNL     1      25.813  46.627  53.567  1.00  0.00     0.276 C 
BRANCH   8   9
HETATM    9  C   UNL     1      27.032  46.388  54.374  1.00  0.00     0.003 A 
HETATM   10  C   UNL     1      27.853  45.213  54.367  1.00  0.00     0.007 A 
HETATM   11  C   UNL     1      27.841  43.977  53.691  1.00  0.00     0.015 A 
HETATM   12  C   UNL     1      28.883  45.463  55.266  1.00  0.00     0.085 A 
HETATM   13  C   UNL     1      28.869  43.059  53.949  1.00  0.00     0.001 A 
HETATM   14  C   UNL     1      29.887  43.352  54.858  1.00  0.00     0.003 A 
HETATM   15  C   UNL     1      29.915  44.572  55.543  1.00  0.00     0.038 A 
HETATM   16  O   UNL     1      28.732  46.694  55.822  1.00  0.00    -0.321 OA
HETATM   17  C   UNL     1      27.609  47.240  55.295  1.00  0.00     0.152 A 
ENDBRANCH   8   9
ENDBRANCH   1   8
BRANCH   5  18
HETATM   18  C   UNL     1      23.986  47.424  49.261  1.00  0.00     0.108 A 
HETATM   19  N   UNL     1      24.094  48.729  49.391  1.00  0.00    -0.229 NA
HETATM   20  C   UNL     1      22.801  49.240  49.367  1.00  0.00     0.157 A 
HETATM   21  C   UNL     1      21.911  48.193  49.208  1.00  0.00     0.126 A 
HETATM   22  N   UNL     1      22.669  47.055  49.139  1.00  0.00    -0.352 N 
HETATM   23  H   UNL     1      22.315  46.112  49.029  1.00  0.00     0.166 HD
BRANCH  20  24
HETATM   24  C   UNL     1      22.509  50.711  49.510  1.00  0.00     0.436 C 
HETATM   25  F   UNL     1      21.829  50.983  50.658  1.00  0.00    -0.165 F 
HETATM   26  F   UNL     1      23.644  51.452  49.537  1.00  0.00    -0.165 F 
HETATM   27  F   UNL     1      21.748  51.175  48.485  1.00  0.00    -0.165 F 
ENDBRANCH  20  24
ENDBRANCH   5  18
TORSDOF 4
ENDMDL
MODEL 3
REMARK VINA RESULT:      -8.7      2.201      3.561
REMARK  4 active torsions:
REMARK  status: ('A' for Active; 'I' for Inactive)
REMARK    1  A    between atoms: C_7  and  C_8 
REMARK    2  A    between atoms: C_8  and  N_9 
REMARK    3  A    between atoms: C_13  and  C_14 
REMARK    4  A    between atoms: C_16  and  C_17 
ROOT
HETATM    1  N   UNL     1      25.046  44.621  50.323  1.00  0.00    -0.067 N 
HETATM    2  H   UNL     1      24.515  44.635  49.445  1.00  0.00     0.280 HD
HETATM    3  C   UNL     1      26.509  44.474  49.963  1.00  0.00     0.236 C 
HETATM    4  C   UNL     1      26.790  43.104  49.357  1.00  0.00     0.040 C 
HETATM    5  C   UNL     1      26.318  41.950  50.244  1.00  0.00     0.058 C 
HETATM    6  C   UNL     1      24.833  42.135  50.568  1.00  0.00     0.040 C 
HETATM    7  C   UNL     1      24.521  43.494  51.182  1.00  0.00     0.236 C 
ENDROOT
BRANCH   1   8
HETATM    8  C   UNL     1      24.770  45.947  51.018  1.00  0.00     0.276 C 
BRANCH   8   9
HETATM    9  C   UNL     1      24.544  47.082  50.094  1.00  0.00     0.003 A 
HETATM   10  C   UNL     1      25.521  48.019  49.624  1.00  0.00     0.007 A 
HETATM   11  C   UNL     1      26.902  48.223  49.821  1.00  0.00     0.015 A 
HETATM   12  C   UNL     1      24.844  48.880  48.769  1.00  0.00     0.085 A 
HETATM   13  C   UNL     1      27.530  49.276  49.143  1.00  0.00     0.001 A 
HETATM   14  C   UNL     1      26.811  50.116  48.290  1.00  0.00     0.003 A 
HETATM   15  C   UNL     1      25.440  49.935  48.084  1.00  0.00     0.038 A 
HETATM   16  O   UNL     1      23.530  48.538  48.703  1.00  0.00    -0.321 OA
HETATM   17  C   UNL     1      23.351  47.466  49.514  1.00  0.00     0.152 A 
ENDBRANCH   8   9
ENDBRANCH   1   8
BRANCH   5  18
HETATM   18  C   UNL     1      27.144  41.866  51.493  1.00  0.00     0.108 A 
HETATM   19  N   UNL     1      28.002  42.777  51.904  1.00  0.00    -0.229 NA
HETATM   20  C   UNL     1      28.572  42.288  53.074  1.00  0.00     0.157 A 
HETATM   21  C   UNL     1      28.016  41.053  53.358  1.00  0.00     0.126 A 
HETATM   22  N   UNL     1      27.116  40.800  52.357  1.00  0.00    -0.352 N 
HETATM   23  H   UNL     1      26.544  39.968  52.270  1.00  0.00     0.166 HD
BRANCH  20  24
HETATM   24  C   UNL     1      29.626  43.044  53.839  1.00  0.00     0.436 C 
HETATM   25  F   UNL     1      30.846  42.957  53.240  1.00  0.00    -0.165 F 
HETATM   26  F   UNL     1      29.328  44.363  53.940  1.00  0.00    -0.165 F 
HETATM   27  F   UNL     1      29.773  42.565  55.101  1.00  0.00    -0.165 F 
ENDBRANCH  20  24
ENDBRANCH   5  18
TORSDOF 4
ENDMDL
MODEL 4
REMARK VINA RESULT:      -8.6      2.801      5.012
REMARK  4 active torsions:
REMARK  status: ('A' for Active; 'I' for Inactive)
REMARK    1  A    between atoms: C_7  and  C_8 
REMARK    2  A    between atoms: C_8  and  N_9 
REMARK    3  A    between atoms: C_13  and  C_14 
REMARK    4  A    between atoms: C_16  and  C_17 
ROOT
HETATM    1  N   UNL     1      24.779  43.560  49.870  1.00  0.00    -0.067 N 
HETATM    2  H   UNL     1      24.411  43.466  48.917  1.00  0.00     0.280 HD
HETATM    3  C   UNL     1      26.246  43.918  49.756  1.00  0.00     0.236 C 
HETATM    4  C   UNL     1      27.049  42.759  49.178  1.00  0.00     0.040 C 
HETATM    5  C   UNL     1      26.855  41.452  49.952  1.00  0.00     0.058 C 
HETATM    6  C   UNL     1      25.361  41.126  50.028  1.00  0.00     0.040 C 
HETATM    7  C   UNL     1      24.530  42.264  50.608  1.00  0.00     0.236 C 
ENDROOT
BRANCH   1   8
HETATM    8  C   UNL     1      23.980  44.673  50.536  1.00  0.00     0.276 C 
BRANCH   8   9
HETATM    9  C   UNL     1      24.801  45.628  51.315  1.00  0.00     0.003 A 
HETATM   10  C   UNL     1      25.468  45.376  52.558  1.00  0.00     0.007 A 
HETATM   11  C   UNL     1      25.599  44.277  53.430  1.00  0.00     0.015 A 
HETATM   12  C   UNL     1      26.122  46.559  52.886  1.00  0.00     0.085 A 
HETATM   13  C   UNL     1      26.384  44.421  54.582  1.00  0.00     0.001 A 
HETATM   14  C   UNL     1      27.026  45.627  54.872  1.00  0.00     0.003 A 
HETATM   15  C   UNL     1      26.906  46.732  54.023  1.00  0.00     0.038 A 
HETATM   16  O   UNL     1      25.883  47.504  51.940  1.00  0.00    -0.321 OA
HETATM   17  C   UNL     1      25.075  46.945  51.005  1.00  0.00     0.152 A 
ENDBRANCH   8   9
ENDBRANCH   1   8
BRANCH   5  18
HETATM   18  C   UNL     1      27.464  41.547  51.319  1.00  0.00     0.108 A 
HETATM   19  N   UNL     1      28.415  42.385  51.675  1.00  0.00    -0.229 NA
HETATM   20  C   UNL     1      28.708  42.113  53.007  1.00  0.00     0.157 A 
HETATM   21  C   UNL     1      27.890  41.085  53.441  1.00  0.00     0.126 A 
HETATM   22  N   UNL     1      27.108  40.740  52.371  1.00  0.00    -0.352 N 
HETATM   23  H   UNL     1      26.405  40.011  52.361  1.00  0.00     0.166 HD
BRANCH  20  24
HETATM   24  C   UNL     1      29.770  42.859  53.771  1.00  0.00     0.436 C 
HETATM   25  F   UNL     1      31.019  42.572  53.313  1.00  0.00    -0.165 F 
HETATM   26  F   UNL     1      29.612  44.202  53.675  1.00  0.00    -0.165 F 
HETATM   27  F   UNL     1      29.754  42.544  55.092  1.00  0.00    -0.165 F 
ENDBRANCH  20  24
ENDBRANCH   5  18
TORSDOF 4
ENDMDL
MODEL 5
REMARK VINA RESULT:      -8.5      4.451      8.024
REMARK  4 active torsions:
REMARK  status: ('A' for Active; 'I' for Inactive)
REMARK    1  A    between atoms: C_7  and  C_8 
REMARK    2  A    between atoms: C_8  and  N_9 
REMARK    3  A    between atoms: C_13  and  C_14 
REMARK    4  A    between atoms: C_16  and  C_17 
ROOT
HETATM    1  N   UNL     1      27.460  44.296  52.315  1.00  0.00    -0.067 N 
HETATM    2  H   UNL     1      27.154  45.189  52.716  1.00  0.00     0.280 HD
HETATM    3  C   UNL     1      27.859  44.559  50.878  1.00  0.00     0.236 C 
HETATM    4  C   UNL     1      26.647  44.930  50.033  1.00  0.00     0.040 C 
HETATM    5  C   UNL     1      25.521  43.897  50.116  1.00  0.00     0.058 C 
HETATM    6  C   UNL     1      25.144  43.677  51.583  1.00  0.00     0.040 C 
HETATM    7  C   UNL     1      26.334  43.297  52.455  1.00  0.00     0.236 C 
ENDROOT
BRANCH   1   8
HETATM    8  C   UNL     1      28.646  43.829  53.150  1.00  0.00     0.276 C 
BRANCH   8   9
HETATM    9  C   UNL     1      28.865  44.614  54.386  1.00  0.00     0.003 A 
HETATM   10  C   UNL     1      29.790  44.320  55.440  1.00  0.00     0.007 A 
HETATM   11  C   UNL     1      30.735  43.308  55.702  1.00  0.00     0.015 A 
HETATM   12  C   UNL     1      29.649  45.346  56.368  1.00  0.00     0.085 A 
HETATM   13  C   UNL     1      31.493  43.383  56.879  1.00  0.00     0.001 A 
HETATM   14  C   UNL     1      31.321  44.434  57.783  1.00  0.00     0.003 A 
HETATM   15  C   UNL     1      30.386  45.446  57.545  1.00  0.00     0.038 A 
HETATM   16  O   UNL     1      28.697  46.224  55.955  1.00  0.00    -0.321 OA
HETATM   17  C   UNL     1      28.217  45.771  54.770  1.00  0.00     0.152 A 
ENDBRANCH   8   9
ENDBRANCH   1   8
BRANCH   5  18
HETATM   18  C   UNL     1      25.926  42.613  49.457  1.00  0.00     0.108 A 
HETATM   19  N   UNL     1      27.066  42.401  48.834  1.00  0.00    -0.229 NA
HETATM   20  C   UNL     1      27.016  41.101  48.342  1.00  0.00     0.157 A 
HETATM   21  C   UNL     1      25.805  40.536  48.701  1.00  0.00     0.126 A 
HETATM   22  N   UNL     1      25.129  41.496  49.406  1.00  0.00    -0.352 N 
HETATM   23  H   UNL     1      24.203  41.397  49.804  1.00  0.00     0.166 HD
BRANCH  20  24
HETATM   24  C   UNL     1      28.140  40.493  47.547  1.00  0.00     0.436 C 
HETATM   25  F   UNL     1      29.287  40.403  48.276  1.00  0.00    -0.165 F 
HETATM   26  F   UNL     1      27.842  39.239  47.125  1.00  0.00    -0.165 F 
HETATM   27  F   UNL     1      28.433  41.230  46.445  1.00  0.00    -0.165 F 
ENDBRANCH  20  24
ENDBRANCH   5  18
TORSDOF 4
ENDMDL
MODEL 6
REMARK VINA RESULT:      -8.4     11.476     13.119
REMARK  4 active torsions:
REMARK  status: ('A' for Active; 'I' for Inactive)
REMARK    1  A    between atoms: C_7  and  C_8 
REMARK    2  A    between atoms: C_8  and  N_9 
REMARK    3  A    between atoms: C_13  and  C_14 
REMARK    4  A    between atoms: C_16  and  C_17 
ROOT
HETATM    1  N   UNL     1      27.474  50.849  39.784  1.00  0.00    -0.067 N 
HETATM    2  H   UNL     1      26.619  51.245  39.378  1.00  0.00     0.280 HD
HETATM    3  C   UNL     1      27.537  51.293  41.229  1.00  0.00     0.236 C 
HETATM    4  C   UNL     1      27.761  52.797  41.331  1.00  0.00     0.040 C 
HETATM    5  C   UNL     1      28.989  53.273  40.549  1.00  0.00     0.058 C 
HETATM    6  C   UNL     1      28.871  52.812  39.094  1.00  0.00     0.040 C 
HETATM    7  C   UNL     1      28.653  51.311  38.959  1.00  0.00     0.236 C 
ENDROOT
BRANCH   1   8
HETATM    8  C   UNL     1      27.347  49.335  39.667  1.00  0.00     0.276 C 
BRANCH   8   9
HETATM    9  C   UNL     1      28.638  48.627  39.516  1.00  0.00     0.003 A 
HETATM   10  C   UNL     1      29.691  48.538  40.484  1.00  0.00     0.007 A 
HETATM   11  C   UNL     1      29.906  49.022  41.790  1.00  0.00     0.015 A 
HETATM   12  C   UNL     1      30.682  47.759  39.899  1.00  0.00     0.085 A 
HETATM   13  C   UNL     1      31.102  48.691  42.442  1.00  0.00     0.001 A 
HETATM   14  C   UNL     1      32.070  47.902  41.817  1.00  0.00     0.003 A 
HETATM   15  C   UNL     1      31.879  47.415  40.520  1.00  0.00     0.038 A 
HETATM   16  O   UNL     1      30.307  47.386  38.646  1.00  0.00    -0.321 OA
HETATM   17  C   UNL     1      29.084  47.924  38.414  1.00  0.00     0.152 A 
ENDBRANCH   8   9
ENDBRANCH   1   8
BRANCH   5  18
HETATM   18  C   UNL     1      30.252  52.768  41.182  1.00  0.00     0.108 A 
HETATM   19  N   UNL     1      30.456  52.632  42.475  1.00  0.00    -0.229 NA
HETATM   20  C   UNL     1      31.761  52.176  42.627  1.00  0.00     0.157 A 
HETATM   21  C   UNL     1      32.330  52.033  41.374  1.00  0.00     0.126 A 
HETATM   22  N   UNL     1      31.369  52.405  40.472  1.00  0.00    -0.352 N 
HETATM   23  H   UNL     1      31.475  52.420  39.465  1.00  0.00     0.166 HD
BRANCH  20  24
HETATM   24  C   UNL     1      32.376  51.917  43.976  1.00  0.00     0.436 C 
HETATM   25  F   UNL     1      31.716  52.574  44.969  1.00  0.00    -0.165 F 
HETATM   26  F   UNL     1      32.359  50.599  44.295  1.00  0.00    -0.165 F 
HETATM   27  F   UNL     1      33.670  52.327  44.026  1.00  0.00    -0.165 F 
ENDBRANCH  20  24
ENDBRANCH   5  18
TORSDOF 4
ENDMDL
MODEL 7
REMARK VINA RESULT:      -8.4      4.010      8.279
REMARK  4 active torsions:
REMARK  status: ('A' for Active; 'I' for Inactive)
REMARK    1  A    between atoms: C_7  and  C_8 
REMARK    2  A    between atoms: C_8  and  N_9 
REMARK    3  A    between atoms: C_13  and  C_14 
REMARK    4  A    between atoms: C_16  and  C_17 
ROOT
HETATM    1  N   UNL     1      26.973  44.444  53.143  1.00  0.00    -0.067 N 
HETATM    2  H   UNL     1      26.973  43.454  53.410  1.00  0.00     0.280 HD
HETATM    3  C   UNL     1      25.529  44.896  53.084  1.00  0.00     0.236 C 
HETATM    4  C   UNL     1      24.789  44.219  51.937  1.00  0.00     0.040 C 
HETATM    5  C   UNL     1      25.485  44.404  50.585  1.00  0.00     0.058 C 
HETATM    6  C   UNL     1      26.933  43.921  50.692  1.00  0.00     0.040 C 
HETATM    7  C   UNL     1      27.703  44.585  51.827  1.00  0.00     0.236 C 
ENDROOT
BRANCH   1   8
HETATM    8  C   UNL     1      27.749  45.185  54.224  1.00  0.00     0.276 C 
BRANCH   8   9
HETATM    9  C   UNL     1      28.914  44.441  54.754  1.00  0.00     0.003 A 
HETATM   10  C   UNL     1      29.667  44.747  55.935  1.00  0.00     0.007 A 
HETATM   11  C   UNL     1      29.621  45.740  56.933  1.00  0.00     0.015 A 
HETATM   12  C   UNL     1      30.642  43.761  56.031  1.00  0.00     0.085 A 
HETATM   13  C   UNL     1      30.553  45.687  57.979  1.00  0.00     0.001 A 
HETATM   14  C   UNL     1      31.514  44.676  58.039  1.00  0.00     0.003 A 
HETATM   15  C   UNL     1      31.580  43.683  57.056  1.00  0.00     0.038 A 
HETATM   16  O   UNL     1      30.538  42.896  54.988  1.00  0.00    -0.321 OA
HETATM   17  C   UNL     1      29.508  43.318  54.214  1.00  0.00     0.152 A 
ENDBRANCH   8   9
ENDBRANCH   1   8
BRANCH   5  18
HETATM   18  C   UNL     1      25.417  45.835  50.143  1.00  0.00     0.108 A 
HETATM   19  N   UNL     1      26.415  46.524  49.631  1.00  0.00    -0.229 NA
HETATM   20  C   UNL     1      25.934  47.808  49.398  1.00  0.00     0.157 A 
HETATM   21  C   UNL     1      24.606  47.862  49.780  1.00  0.00     0.126 A 
HETATM   22  N   UNL     1      24.290  46.613  50.244  1.00  0.00    -0.352 N 
HETATM   23  H   UNL     1      23.389  46.325  50.607  1.00  0.00     0.166 HD
BRANCH  20  24
HETATM   24  C   UNL     1      26.796  48.904  48.829  1.00  0.00     0.436 C 
HETATM   25  F   UNL     1      26.342  49.328  47.617  1.00  0.00    -0.165 F 
HETATM   26  F   UNL     1      26.833  49.990  49.639  1.00  0.00    -0.165 F 
HETATM   27  F   UNL     1      28.077  48.493  48.645  1.00  0.00    -0.165 F 
ENDBRANCH  20  24
ENDBRANCH   5  18
TORSDOF 4
ENDMDL
MODEL 8
REMARK VINA RESULT:      -8.3     11.737     13.341
REMARK  4 active torsions:
REMARK  status: ('A' for Active; 'I' for Inactive)
REMARK    1  A    between atoms: C_7  and  C_8 
REMARK    2  A    between atoms: C_8  and  N_9 
REMARK    3  A    between atoms: C_13  and  C_14 
REMARK    4  A    between atoms: C_16  and  C_17 
ROOT
HETATM    1  N   UNL     1      27.241  51.632  38.892  1.00  0.00    -0.067 N 
HETATM    2  H   UNL     1      26.456  52.280  38.766  1.00  0.00     0.280 HD
HETATM    3  C   UNL     1      27.346  51.331  40.372  1.00  0.00     0.236 C 
HETATM    4  C   UNL     1      27.777  52.567  41.153  1.00  0.00     0.040 C 
HETATM    5  C   UNL     1      29.071  53.189  40.620  1.00  0.00     0.058 C 
HETATM    6  C   UNL     1      28.910  53.487  39.127  1.00  0.00     0.040 C 
HETATM    7  C   UNL     1      28.485  52.269  38.316  1.00  0.00     0.236 C 
ENDROOT
BRANCH   1   8
HETATM    8  C   UNL     1      26.904  50.383  38.088  1.00  0.00     0.276 C 
BRANCH   8   9
HETATM    9  C   UNL     1      27.270  49.113  38.756  1.00  0.00     0.003 A 
HETATM   10  C   UNL     1      28.592  48.620  39.006  1.00  0.00     0.007 A 
HETATM   11  C   UNL     1      29.903  49.071  38.752  1.00  0.00     0.015 A 
HETATM   12  C   UNL     1      28.429  47.410  39.670  1.00  0.00     0.085 A 
HETATM   13  C   UNL     1      30.981  48.286  39.186  1.00  0.00     0.001 A 
HETATM   14  C   UNL     1      30.771  47.078  39.853  1.00  0.00     0.003 A 
HETATM   15  C   UNL     1      29.478  46.610  40.111  1.00  0.00     0.038 A 
HETATM   16  O   UNL     1      27.107  47.135  39.824  1.00  0.00    -0.321 OA
HETATM   17  C   UNL     1      26.413  48.153  39.259  1.00  0.00     0.152 A 
ENDBRANCH   8   9
ENDBRANCH   1   8
BRANCH   5  18
HETATM   18  C   UNL     1      30.240  52.286  40.874  1.00  0.00     0.108 A 
HETATM   19  N   UNL     1      30.277  51.316  41.763  1.00  0.00    -0.229 NA
HETATM   20  C   UNL     1      31.551  50.762  41.696  1.00  0.00     0.157 A 
HETATM   21  C   UNL     1      32.276  51.430  40.725  1.00  0.00     0.126 A 
HETATM   22  N   UNL     1      31.439  52.385  40.212  1.00  0.00    -0.352 N 
HETATM   23  H   UNL     1      31.673  53.049  39.484  1.00  0.00     0.166 HD
BRANCH  20  24
HETATM   24  C   UNL     1      31.988  49.627  42.584  1.00  0.00     0.436 C 
HETATM   25  F   UNL     1      30.972  48.755  42.829  1.00  0.00    -0.165 F 
HETATM   26  F   UNL     1      32.998  48.912  42.030  1.00  0.00    -0.165 F 
HETATM   27  F   UNL     1      32.423  50.072  43.791  1.00  0.00    -0.165 F 
ENDBRANCH  20  24
ENDBRANCH   5  18
TORSDOF 4
ENDMDL
MODEL 9
REMARK VINA RESULT:      -8.3      5.223      8.276
REMARK  4 active torsions:
REMARK  status: ('A' for Active; 'I' for Inactive)
REMARK    1  A    between atoms: C_7  and  C_8 
REMARK    2  A    between atoms: C_8  and  N_9 
REMARK    3  A    between atoms: C_13  and  C_14 
REMARK    4  A    between atoms: C_16  and  C_17 
ROOT
HETATM    1  N   UNL     1      28.023  43.069  52.429  1.00  0.00    -0.067 N 
HETATM    2  H   UNL     1      27.330  43.616  52.951  1.00  0.00     0.280 HD
HETATM    3  C   UNL     1      28.016  43.574  51.002  1.00  0.00     0.236 C 
HETATM    4  C   UNL     1      26.702  43.235  50.307  1.00  0.00     0.040 C 
HETATM    5  C   UNL     1      26.360  41.745  50.370  1.00  0.00     0.058 C 
HETATM    6  C   UNL     1      26.366  41.286  51.831  1.00  0.00     0.040 C 
HETATM    7  C   UNL     1      27.670  41.605  52.552  1.00  0.00     0.236 C 
ENDROOT
BRANCH   1   8
HETATM    8  C   UNL     1      29.366  43.316  53.104  1.00  0.00     0.276 C 
BRANCH   8   9
HETATM    9  C   UNL     1      29.301  44.216  54.277  1.00  0.00     0.003 A 
HETATM   10  C   UNL     1      30.081  44.127  55.476  1.00  0.00     0.007 A 
HETATM   11  C   UNL     1      31.085  43.269  55.967  1.00  0.00     0.015 A 
HETATM   12  C   UNL     1      29.681  45.196  56.271  1.00  0.00     0.085 A 
HETATM   13  C   UNL     1      31.640  43.533  57.227  1.00  0.00     0.001 A 
HETATM   14  C   UNL     1      31.211  44.620  57.991  1.00  0.00     0.003 A 
HETATM   15  C   UNL     1      30.212  45.482  57.525  1.00  0.00     0.038 A 
HETATM   16  O   UNL     1      28.709  45.909  55.643  1.00  0.00    -0.321 OA
HETATM   17  C   UNL     1      28.472  45.307  54.452  1.00  0.00     0.152 A 
ENDBRANCH   8   9
ENDBRANCH   1   8
BRANCH   5  18
HETATM   18  C   UNL     1      27.318  40.942  49.542  1.00  0.00     0.108 A 
HETATM   19  N   UNL     1      27.900  39.823  49.917  1.00  0.00    -0.229 NA
HETATM   20  C   UNL     1      28.731  39.436  48.871  1.00  0.00     0.157 A 
HETATM   21  C   UNL     1      28.619  40.361  47.848  1.00  0.00     0.126 A 
HETATM   22  N   UNL     1      27.723  41.302  48.281  1.00  0.00    -0.352 N 
HETATM   23  H   UNL     1      27.428  42.121  47.763  1.00  0.00     0.166 HD
BRANCH  20  24
HETATM   24  C   UNL     1      29.589  38.200  48.934  1.00  0.00     0.436 C 
HETATM   25  F   UNL     1      30.888  38.498  49.214  1.00  0.00    -0.165 F 
HETATM   26  F   UNL     1      29.166  37.338  49.891  1.00  0.00    -0.165 F 
HETATM   27  F   UNL     1      29.587  37.526  47.755  1.00  0.00    -0.165 F 
ENDBRANCH  20  24
ENDBRANCH   5  18
TORSDOF 4
ENDMDL
MODEL 10
REMARK VINA RESULT:      -8.2      4.550      8.171
REMARK  4 active torsions:
REMARK  status: ('A' for Active; 'I' for Inactive)
REMARK    1  A    between atoms: C_7  and  C_8 
REMARK    2  A    between atoms: C_8  and  N_9 
REMARK    3  A    between atoms: C_13  and  C_14 
REMARK    4  A    between atoms: C_16  and  C_17 
ROOT
HETATM    1  N   UNL     1      26.509  45.281  52.343  1.00  0.00    -0.067 N 
HETATM    2  H   UNL     1      27.312  45.879  52.568  1.00  0.00     0.280 HD
HETATM    3  C   UNL     1      26.834  44.553  51.056  1.00  0.00     0.236 C 
HETATM    4  C   UNL     1      26.897  45.520  49.880  1.00  0.00     0.040 C 
HETATM    5  C   UNL     1      25.630  46.366  49.734  1.00  0.00     0.058 C 
HETATM    6  C   UNL     1      25.352  47.092  51.052  1.00  0.00     0.040 C 
HETATM    7  C   UNL     1      25.277  46.151  52.248  1.00  0.00     0.236 C 
ENDROOT
BRANCH   1   8
HETATM    8  C   UNL     1      26.348  44.315  53.509  1.00  0.00     0.276 C 
BRANCH   8   9
HETATM    9  C   UNL     1      27.600  43.634  53.911  1.00  0.00     0.003 A 
HETATM   10  C   UNL     1      28.659  44.177  54.710  1.00  0.00     0.007 A 
HETATM   11  C   UNL     1      28.914  45.407  55.348  1.00  0.00     0.015 A 
HETATM   12  C   UNL     1      29.602  43.163  54.833  1.00  0.00     0.085 A 
HETATM   13  C   UNL     1      30.100  45.552  56.081  1.00  0.00     0.001 A 
HETATM   14  C   UNL     1      31.019  44.505  56.182  1.00  0.00     0.003 A 
HETATM   15  C   UNL     1      30.787  43.277  55.553  1.00  0.00     0.038 A 
HETATM   16  O   UNL     1      29.193  42.058  54.156  1.00  0.00    -0.321 OA
HETATM   17  C   UNL     1      27.996  42.351  53.589  1.00  0.00     0.152 A 
ENDBRANCH   8   9
ENDBRANCH   1   8
BRANCH   5  18
HETATM   18  C   UNL     1      24.466  45.515  49.322  1.00  0.00     0.108 A 
HETATM   19  N   UNL     1      24.548  44.307  48.806  1.00  0.00    -0.229 NA
HETATM   20  C   UNL     1      23.245  43.900  48.537  1.00  0.00     0.157 A 
HETATM   21  C   UNL     1      22.376  44.905  48.921  1.00  0.00     0.126 A 
HETATM   22  N   UNL     1      23.156  45.916  49.417  1.00  0.00    -0.352 N 
HETATM   23  H   UNL     1      22.821  46.802  49.777  1.00  0.00     0.166 HD
BRANCH  20  24
HETATM   24  C   UNL     1      22.927  42.566  47.916  1.00  0.00     0.436 C 
HETATM   25  F   UNL     1      23.936  42.125  47.115  1.00  0.00    -0.165 F 
HETATM   26  F   UNL     1      22.719  41.608  48.853  1.00  0.00    -0.165 F 
HETATM   27  F   UNL     1      21.811  42.624  47.144  1.00  0.00    -0.165 F 
ENDBRANCH  20  24
ENDBRANCH   5  18
TORSDOF 4
ENDMDL
