MODEL 1
REMARK VINA RESULT:      -9.5      0.000      0.000
REMARK  3 active torsions:
REMARK  status: ('A' for Active; 'I' for Inactive)
REMARK    1  A    between atoms: C_3  and  O_4 
REMARK    2  A    between atoms: C_6  and  C_7 
REMARK    3  A    between atoms: N_8  and  N_9 
ROOT
HETATM    1  N   UNL     1      26.139  46.261  52.702  1.00  0.00    -0.189 N 
HETATM    2  C   UNL     1      26.279  46.968  53.910  1.00  0.00     0.298 A 
HETATM    3  O   UNL     1      25.602  47.919  54.289  1.00  0.00    -0.264 OA
HETATM    4  C   UNL     1      27.329  46.424  54.713  1.00  0.00     0.133 A 
HETATM    5  C   UNL     1      28.039  45.308  54.380  1.00  0.00     0.103 A 
HETATM    6  N   UNL     1      27.796  44.570  53.222  1.00  0.00    -0.239 NA
HETATM    7  C   UNL     1      26.867  45.092  52.474  1.00  0.00     0.239 A 
HETATM    8  N   UNL     1      27.807  46.880  55.909  1.00  0.00    -0.349 N 
HETATM    9  H   UNL     1      27.456  47.691  56.401  1.00  0.00     0.166 HD
HETATM   10  C   UNL     1      28.847  46.072  56.331  1.00  0.00     0.045 A 
HETATM   11  C   UNL     1      29.008  45.061  55.375  1.00  0.00     0.024 A 
HETATM   12  C   UNL     1      29.647  46.160  57.478  1.00  0.00     0.032 A 
HETATM   13  C   UNL     1      30.639  45.187  57.646  1.00  0.00     0.026 A 
HETATM   14  C   UNL     1      30.814  44.171  56.707  1.00  0.00     0.035 A 
HETATM   15 CL   UNL     1      32.048  42.995  56.955  1.00  0.00    -0.084 Cl
HETATM   16  C   UNL     1      30.009  44.089  55.568  1.00  0.00     0.040 A 
ENDROOT
BRANCH   1  17
HETATM   17  N   UNL     1      25.194  46.565  51.730  1.00  0.00    -0.175 NA
HETATM   18  C   UNL     1      25.511  47.419  50.810  1.00  0.00     0.150 C 
BRANCH  18  19
HETATM   19  C   UNL     1      24.549  47.833  49.768  1.00  0.00    -0.014 A 
HETATM   20  C   UNL     1      24.770  49.039  49.100  1.00  0.00     0.049 A 
HETATM   21  C   UNL     1      23.879  49.441  48.111  1.00  0.00     0.066 A 
HETATM   22  C   UNL     1      22.774  48.662  47.779  1.00  0.00     0.036 A 
HETATM   23  C   UNL     1      22.556  47.456  48.450  1.00  0.00     0.004 A 
HETATM   24  C   UNL     1      23.443  47.039  49.447  1.00  0.00     0.013 A 
BRANCH  21  25
HETATM   25  O   UNL     1      24.129  50.624  47.480  1.00  0.00    -0.361 OA
HETATM   26  H   UNL     1      25.084  50.697  47.316  1.00  0.00     0.217 HD
ENDBRANCH  21  25
ENDBRANCH  18  19
ENDBRANCH   1  17
TORSDOF 3
ENDMDL
MODEL 2
REMARK VINA RESULT:      -9.3      3.823      9.013
REMARK  3 active torsions:
REMARK  status: ('A' for Active; 'I' for Inactive)
REMARK    1  A    between atoms: C_3  and  O_4 
REMARK    2  A    between atoms: C_6  and  C_7 
REMARK    3  A    between atoms: N_8  and  N_9 
ROOT
HETATM    1  N   UNL     1      26.716  45.611  53.553  1.00  0.00    -0.189 N 
HETATM    2  C   UNL     1      26.039  44.647  52.785  1.00  0.00     0.298 A 
HETATM    3  O   UNL     1      26.047  43.431  52.955  1.00  0.00    -0.264 OA
HETATM    4  C   UNL     1      25.274  45.256  51.743  1.00  0.00     0.133 A 
HETATM    5  C   UNL     1      25.154  46.605  51.578  1.00  0.00     0.103 A 
HETATM    6  N   UNL     1      25.756  47.531  52.429  1.00  0.00    -0.239 NA
HETATM    7  C   UNL     1      26.485  46.972  53.352  1.00  0.00     0.239 A 
HETATM    8  N   UNL     1      24.546  44.650  50.757  1.00  0.00    -0.349 N 
HETATM    9  H   UNL     1      24.448  43.650  50.643  1.00  0.00     0.166 HD
HETATM   10  C   UNL     1      23.981  45.612  49.940  1.00  0.00     0.045 A 
HETATM   11  C   UNL     1      24.351  46.864  50.448  1.00  0.00     0.024 A 
HETATM   12  C   UNL     1      23.177  45.467  48.802  1.00  0.00     0.032 A 
HETATM   13  C   UNL     1      22.743  46.636  48.168  1.00  0.00     0.026 A 
HETATM   14  C   UNL     1      23.099  47.892  48.659  1.00  0.00     0.035 A 
HETATM   15 CL   UNL     1      22.542  49.305  47.844  1.00  0.00    -0.084 Cl
HETATM   16  C   UNL     1      23.898  48.027  49.796  1.00  0.00     0.040 A 
ENDROOT
BRANCH   1  17
HETATM   17  N   UNL     1      27.532  45.307  54.636  1.00  0.00    -0.175 NA
HETATM   18  C   UNL     1      28.785  45.070  54.415  1.00  0.00     0.150 C 
BRANCH  18  19
HETATM   19  C   UNL     1      29.710  44.694  55.506  1.00  0.00    -0.014 A 
HETATM   20  C   UNL     1      29.849  45.564  56.589  1.00  0.00     0.049 A 
HETATM   21  C   UNL     1      30.708  45.224  57.627  1.00  0.00     0.066 A 
HETATM   22  C   UNL     1      31.429  44.033  57.603  1.00  0.00     0.036 A 
HETATM   23  C   UNL     1      31.287  43.166  56.518  1.00  0.00     0.004 A 
HETATM   24  C   UNL     1      30.428  43.495  55.466  1.00  0.00     0.013 A 
BRANCH  21  25
HETATM   25  O   UNL     1      30.817  46.099  58.668  1.00  0.00    -0.361 OA
HETATM   26  H   UNL     1      31.427  46.812  58.417  1.00  0.00     0.217 HD
ENDBRANCH  21  25
ENDBRANCH  18  19
ENDBRANCH   1  17
TORSDOF 3
ENDMDL
MODEL 3
REMARK VINA RESULT:      -9.0      1.327      2.088
REMARK  3 active torsions:
REMARK  status: ('A' for Active; 'I' for Inactive)
REMARK    1  A    between atoms: C_3  and  O_4 
REMARK    2  A    between atoms: C_6  and  C_7 
REMARK    3  A    between atoms: N_8  and  N_9 
ROOT
HETATM    1  N   UNL     1      26.001  46.231  52.450  1.00  0.00    -0.189 N 
HETATM    2  C   UNL     1      26.804  45.113  52.160  1.00  0.00     0.298 A 
HETATM    3  O   UNL     1      26.754  44.410  51.156  1.00  0.00    -0.264 OA
HETATM    4  C   UNL     1      27.758  44.876  53.198  1.00  0.00     0.133 A 
HETATM    5  C   UNL     1      27.919  45.688  54.282  1.00  0.00     0.103 A 
HETATM    6  N   UNL     1      27.174  46.851  54.477  1.00  0.00    -0.239 NA
HETATM    7  C   UNL     1      26.278  47.040  53.552  1.00  0.00     0.239 A 
HETATM    8  N   UNL     1      28.655  43.851  53.310  1.00  0.00    -0.349 N 
HETATM    9  H   UNL     1      28.765  43.102  52.638  1.00  0.00     0.166 HD
HETATM   10  C   UNL     1      29.373  43.988  54.484  1.00  0.00     0.045 A 
HETATM   11  C   UNL     1      28.924  45.155  55.116  1.00  0.00     0.024 A 
HETATM   12  C   UNL     1      30.377  43.176  55.026  1.00  0.00     0.032 A 
HETATM   13  C   UNL     1      30.933  43.569  56.248  1.00  0.00     0.026 A 
HETATM   14  C   UNL     1      30.502  44.728  56.892  1.00  0.00     0.035 A 
HETATM   15 CL   UNL     1      31.215  45.174  58.396  1.00  0.00    -0.084 Cl
HETATM   16  C   UNL     1      29.502  45.535  56.343  1.00  0.00     0.040 A 
ENDROOT
BRANCH   1  17
HETATM   17  N   UNL     1      24.992  46.698  51.616  1.00  0.00    -0.175 NA
HETATM   18  C   UNL     1      25.328  47.260  50.499  1.00  0.00     0.150 C 
BRANCH  18  19
HETATM   19  C   UNL     1      24.319  47.825  49.578  1.00  0.00    -0.014 A 
HETATM   20  C   UNL     1      24.584  49.056  48.977  1.00  0.00     0.049 A 
HETATM   21  C   UNL     1      23.651  49.600  48.102  1.00  0.00     0.066 A 
HETATM   22  C   UNL     1      22.460  48.937  47.819  1.00  0.00     0.036 A 
HETATM   23  C   UNL     1      22.198  47.706  48.424  1.00  0.00     0.004 A 
HETATM   24  C   UNL     1      23.127  47.147  49.306  1.00  0.00     0.013 A 
BRANCH  21  25
HETATM   25  O   UNL     1      23.945  50.804  47.533  1.00  0.00    -0.361 OA
HETATM   26  H   UNL     1      24.860  51.043  47.758  1.00  0.00     0.217 HD
ENDBRANCH  21  25
ENDBRANCH  18  19
ENDBRANCH   1  17
TORSDOF 3
ENDMDL
MODEL 4
REMARK VINA RESULT:      -8.9      1.854      2.284
REMARK  3 active torsions:
REMARK  status: ('A' for Active; 'I' for Inactive)
REMARK    1  A    between atoms: C_3  and  O_4 
REMARK    2  A    between atoms: C_6  and  C_7 
REMARK    3  A    between atoms: N_8  and  N_9 
ROOT
HETATM    1  N   UNL     1      26.312  46.092  52.780  1.00  0.00    -0.189 N 
HETATM    2  C   UNL     1      26.397  46.794  53.996  1.00  0.00     0.298 A 
HETATM    3  O   UNL     1      25.675  47.715  54.366  1.00  0.00    -0.264 OA
HETATM    4  C   UNL     1      27.449  46.285  54.818  1.00  0.00     0.133 A 
HETATM    5  C   UNL     1      28.210  45.200  54.493  1.00  0.00     0.103 A 
HETATM    6  N   UNL     1      28.021  44.463  53.324  1.00  0.00    -0.239 NA
HETATM    7  C   UNL     1      27.090  44.955  52.559  1.00  0.00     0.239 A 
HETATM    8  N   UNL     1      27.883  46.749  56.028  1.00  0.00    -0.349 N 
HETATM    9  H   UNL     1      27.490  47.542  56.518  1.00  0.00     0.166 HD
HETATM   10  C   UNL     1      28.944  45.979  56.468  1.00  0.00     0.045 A 
HETATM   11  C   UNL     1      29.165  44.983  55.507  1.00  0.00     0.024 A 
HETATM   12  C   UNL     1      29.714  46.088  57.632  1.00  0.00     0.032 A 
HETATM   13  C   UNL     1      30.738  45.153  57.816  1.00  0.00     0.026 A 
HETATM   14  C   UNL     1      30.974  44.152  56.873  1.00  0.00     0.035 A 
HETATM   15 CL   UNL     1      32.247  43.023  57.140  1.00  0.00    -0.084 Cl
HETATM   16  C   UNL     1      30.199  44.049  55.716  1.00  0.00     0.040 A 
ENDROOT
BRANCH   1  17
HETATM   17  N   UNL     1      25.378  46.368  51.789  1.00  0.00    -0.175 NA
HETATM   18  C   UNL     1      24.868  45.376  51.131  1.00  0.00     0.150 C 
BRANCH  18  19
HETATM   19  C   UNL     1      23.904  45.586  50.031  1.00  0.00    -0.014 A 
HETATM   20  C   UNL     1      23.184  44.487  49.559  1.00  0.00     0.049 A 
HETATM   21  C   UNL     1      22.268  44.666  48.529  1.00  0.00     0.066 A 
HETATM   22  C   UNL     1      22.058  45.921  47.964  1.00  0.00     0.036 A 
HETATM   23  C   UNL     1      22.781  47.018  48.438  1.00  0.00     0.004 A 
HETATM   24  C   UNL     1      23.706  46.853  49.472  1.00  0.00     0.013 A 
BRANCH  21  25
HETATM   25  O   UNL     1      21.582  43.569  48.096  1.00  0.00    -0.361 OA
HETATM   26  H   UNL     1      21.262  43.735  47.194  1.00  0.00     0.217 HD
ENDBRANCH  21  25
ENDBRANCH  18  19
ENDBRANCH   1  17
TORSDOF 3
ENDMDL
MODEL 5
REMARK VINA RESULT:      -8.9      3.530      8.847
REMARK  3 active torsions:
REMARK  status: ('A' for Active; 'I' for Inactive)
REMARK    1  A    between atoms: C_3  and  O_4 
REMARK    2  A    between atoms: C_6  and  C_7 
REMARK    3  A    between atoms: N_8  and  N_9 
ROOT
HETATM    1  N   UNL     1      26.667  45.067  53.500  1.00  0.00    -0.189 N 
HETATM    2  C   UNL     1      26.344  46.315  52.938  1.00  0.00     0.298 A 
HETATM    3  O   UNL     1      26.745  47.415  53.305  1.00  0.00    -0.264 OA
HETATM    4  C   UNL     1      25.472  46.169  51.815  1.00  0.00     0.133 A 
HETATM    5  C   UNL     1      25.081  44.965  51.308  1.00  0.00     0.103 A 
HETATM    6  N   UNL     1      25.512  43.745  51.829  1.00  0.00    -0.239 NA
HETATM    7  C   UNL     1      26.273  43.882  52.877  1.00  0.00     0.239 A 
HETATM    8  N   UNL     1      24.887  47.147  51.059  1.00  0.00    -0.349 N 
HETATM    9  H   UNL     1      25.011  48.141  51.204  1.00  0.00     0.166 HD
HETATM   10  C   UNL     1      24.096  46.569  50.084  1.00  0.00     0.045 A 
HETATM   11  C   UNL     1      24.209  45.180  50.221  1.00  0.00     0.024 A 
HETATM   12  C   UNL     1      23.298  47.168  49.101  1.00  0.00     0.032 A 
HETATM   13  C   UNL     1      22.597  46.319  48.237  1.00  0.00     0.026 A 
HETATM   14  C   UNL     1      22.698  44.934  48.354  1.00  0.00     0.035 A 
HETATM   15 CL   UNL     1      21.815  43.927  47.269  1.00  0.00    -0.084 Cl
HETATM   16  C   UNL     1      23.498  44.345  49.336  1.00  0.00     0.040 A 
ENDROOT
BRANCH   1  17
HETATM   17  N   UNL     1      27.501  44.904  54.600  1.00  0.00    -0.175 NA
HETATM   18  C   UNL     1      28.767  44.733  54.391  1.00  0.00     0.150 C 
BRANCH  18  19
HETATM   19  C   UNL     1      29.714  44.506  55.503  1.00  0.00    -0.014 A 
HETATM   20  C   UNL     1      29.808  45.475  56.505  1.00  0.00     0.049 A 
HETATM   21  C   UNL     1      30.687  45.276  57.562  1.00  0.00     0.066 A 
HETATM   22  C   UNL     1      31.474  44.130  57.637  1.00  0.00     0.036 A 
HETATM   23  C   UNL     1      31.378  43.163  56.633  1.00  0.00     0.004 A 
HETATM   24  C   UNL     1      30.498  43.350  55.563  1.00  0.00     0.013 A 
BRANCH  21  25
HETATM   25  O   UNL     1      30.750  46.244  58.522  1.00  0.00    -0.361 OA
HETATM   26  H   UNL     1      30.048  46.895  58.357  1.00  0.00     0.217 HD
ENDBRANCH  21  25
ENDBRANCH  18  19
ENDBRANCH   1  17
TORSDOF 3
ENDMDL
MODEL 6
REMARK VINA RESULT:      -8.6      2.413      3.145
REMARK  3 active torsions:
REMARK  status: ('A' for Active; 'I' for Inactive)
REMARK    1  A    between atoms: C_3  and  O_4 
REMARK    2  A    between atoms: C_6  and  C_7 
REMARK    3  A    between atoms: N_8  and  N_9 
ROOT
HETATM    1  N   UNL     1      25.691  44.971  52.239  1.00  0.00    -0.189 N 
HETATM    2  C   UNL     1      26.752  44.053  52.141  1.00  0.00     0.298 A 
HETATM    3  O   UNL     1      26.915  43.206  51.268  1.00  0.00    -0.264 OA
HETATM    4  C   UNL     1      27.691  44.229  53.203  1.00  0.00     0.133 A 
HETATM    5  C   UNL     1      27.606  45.220  54.136  1.00  0.00     0.103 A 
HETATM    6  N   UNL     1      26.594  46.180  54.135  1.00  0.00    -0.239 NA
HETATM    7  C   UNL     1      25.718  45.991  53.191  1.00  0.00     0.239 A 
HETATM    8  N   UNL     1      28.805  43.488  53.485  1.00  0.00    -0.349 N 
HETATM    9  H   UNL     1      29.120  42.691  52.948  1.00  0.00     0.166 HD
HETATM   10  C   UNL     1      29.419  43.986  54.619  1.00  0.00     0.045 A 
HETATM   11  C   UNL     1      28.675  45.093  55.047  1.00  0.00     0.024 A 
HETATM   12  C   UNL     1      30.567  43.544  55.289  1.00  0.00     0.032 A 
HETATM   13  C   UNL     1      30.961  44.254  56.428  1.00  0.00     0.026 A 
HETATM   14  C   UNL     1      30.235  45.360  56.870  1.00  0.00     0.035 A 
HETATM   15 CL   UNL     1      30.757  46.205  58.279  1.00  0.00    -0.084 Cl
HETATM   16  C   UNL     1      29.094  45.796  56.194  1.00  0.00     0.040 A 
ENDROOT
BRANCH   1  17
HETATM   17  N   UNL     1      24.634  45.034  51.339  1.00  0.00    -0.175 NA
HETATM   18  C   UNL     1      24.667  45.940  50.414  1.00  0.00     0.150 C 
BRANCH  18  19
HETATM   19  C   UNL     1      23.561  46.104  49.447  1.00  0.00    -0.014 A 
HETATM   20  C   UNL     1      22.836  44.973  49.069  1.00  0.00     0.049 A 
HETATM   21  C   UNL     1      21.788  45.109  48.166  1.00  0.00     0.066 A 
HETATM   22  C   UNL     1      21.453  46.351  47.636  1.00  0.00     0.036 A 
HETATM   23  C   UNL     1      22.181  47.481  48.016  1.00  0.00     0.004 A 
HETATM   24  C   UNL     1      23.238  47.360  48.922  1.00  0.00     0.013 A 
BRANCH  21  25
HETATM   25  O   UNL     1      21.101  43.981  47.822  1.00  0.00    -0.361 OA
HETATM   26  H   UNL     1      20.305  43.917  48.375  1.00  0.00     0.217 HD
ENDBRANCH  21  25
ENDBRANCH  18  19
ENDBRANCH   1  17
TORSDOF 3
ENDMDL
MODEL 7
REMARK VINA RESULT:      -8.5      2.363      3.465
REMARK  3 active torsions:
REMARK  status: ('A' for Active; 'I' for Inactive)
REMARK    1  A    between atoms: C_3  and  O_4 
REMARK    2  A    between atoms: C_6  and  C_7 
REMARK    3  A    between atoms: N_8  and  N_9 
ROOT
HETATM    1  N   UNL     1      25.150  46.210  50.999  1.00  0.00    -0.189 N 
HETATM    2  C   UNL     1      25.887  45.160  50.423  1.00  0.00     0.298 A 
HETATM    3  O   UNL     1      25.758  44.704  49.291  1.00  0.00    -0.264 OA
HETATM    4  C   UNL     1      26.877  44.663  51.326  1.00  0.00     0.133 A 
HETATM    5  C   UNL     1      27.125  45.204  52.554  1.00  0.00     0.103 A 
HETATM    6  N   UNL     1      26.442  46.317  53.046  1.00  0.00    -0.239 NA
HETATM    7  C   UNL     1      25.514  46.740  52.238  1.00  0.00     0.239 A 
HETATM    8  N   UNL     1      27.731  43.610  51.157  1.00  0.00    -0.349 N 
HETATM    9  H   UNL     1      27.776  43.029  50.329  1.00  0.00     0.166 HD
HETATM   10  C   UNL     1      28.508  43.455  52.289  1.00  0.00     0.045 A 
HETATM   11  C   UNL     1      28.142  44.463  53.190  1.00  0.00     0.024 A 
HETATM   12  C   UNL     1      29.499  42.508  52.579  1.00  0.00     0.032 A 
HETATM   13  C   UNL     1      30.128  42.596  53.825  1.00  0.00     0.026 A 
HETATM   14  C   UNL     1      29.780  43.594  54.736  1.00  0.00     0.035 A 
HETATM   15 CL   UNL     1      30.582  43.664  56.260  1.00  0.00    -0.084 Cl
HETATM   16  C   UNL     1      28.794  44.536  54.437  1.00  0.00     0.040 A 
ENDROOT
BRANCH   1  17
HETATM   17  N   UNL     1      24.125  46.887  50.348  1.00  0.00    -0.175 NA
HETATM   18  C   UNL     1      24.415  47.976  49.711  1.00  0.00     0.150 C 
BRANCH  18  19
HETATM   19  C   UNL     1      23.376  48.779  49.033  1.00  0.00    -0.014 A 
HETATM   20  C   UNL     1      22.210  48.138  48.611  1.00  0.00     0.049 A 
HETATM   21  C   UNL     1      21.219  48.878  47.978  1.00  0.00     0.066 A 
HETATM   22  C   UNL     1      21.372  50.244  47.758  1.00  0.00     0.036 A 
HETATM   23  C   UNL     1      22.540  50.882  48.180  1.00  0.00     0.004 A 
HETATM   24  C   UNL     1      23.546  50.151  48.818  1.00  0.00     0.013 A 
BRANCH  21  25
HETATM   25  O   UNL     1      20.093  48.217  47.582  1.00  0.00    -0.361 OA
HETATM   26  H   UNL     1      19.533  48.057  48.359  1.00  0.00     0.217 HD
ENDBRANCH  21  25
ENDBRANCH  18  19
ENDBRANCH   1  17
TORSDOF 3
ENDMDL
MODEL 8
REMARK VINA RESULT:      -8.5      4.409      9.355
REMARK  3 active torsions:
REMARK  status: ('A' for Active; 'I' for Inactive)
REMARK    1  A    between atoms: C_3  and  O_4 
REMARK    2  A    between atoms: C_6  and  C_7 
REMARK    3  A    between atoms: N_8  and  N_9 
ROOT
HETATM    1  N   UNL     1      25.526  46.172  50.305  1.00  0.00    -0.189 N 
HETATM    2  C   UNL     1      25.641  47.553  50.069  1.00  0.00     0.298 A 
HETATM    3  O   UNL     1      26.612  48.264  50.309  1.00  0.00    -0.264 OA
HETATM    4  C   UNL     1      24.458  48.077  49.462  1.00  0.00     0.133 A 
HETATM    5  C   UNL     1      23.394  47.310  49.084  1.00  0.00     0.103 A 
HETATM    6  N   UNL     1      23.365  45.924  49.238  1.00  0.00    -0.239 NA
HETATM    7  C   UNL     1      24.427  45.457  49.828  1.00  0.00     0.239 A 
HETATM    8  N   UNL     1      24.165  49.375  49.150  1.00  0.00    -0.349 N 
HETATM    9  H   UNL     1      24.781  50.161  49.311  1.00  0.00     0.166 HD
HETATM   10  C   UNL     1      22.899  49.446  48.598  1.00  0.00     0.045 A 
HETATM   11  C   UNL     1      22.393  48.141  48.542  1.00  0.00     0.024 A 
HETATM   12  C   UNL     1      22.174  50.556  48.148  1.00  0.00     0.032 A 
HETATM   13  C   UNL     1      20.896  50.323  47.628  1.00  0.00     0.026 A 
HETATM   14  C   UNL     1      20.374  49.031  47.561  1.00  0.00     0.035 A 
HETATM   15 CL   UNL     1      18.795  48.791  46.915  1.00  0.00    -0.084 Cl
HETATM   16  C   UNL     1      21.106  47.929  48.010  1.00  0.00     0.040 A 
ENDROOT
BRANCH   1  17
HETATM   17  N   UNL     1      26.527  45.398  50.881  1.00  0.00    -0.175 NA
HETATM   18  C   UNL     1      26.517  45.237  52.166  1.00  0.00     0.150 C 
BRANCH  18  19
HETATM   19  C   UNL     1      27.571  44.468  52.861  1.00  0.00    -0.014 A 
HETATM   20  C   UNL     1      28.081  43.327  52.238  1.00  0.00     0.049 A 
HETATM   21  C   UNL     1      29.077  42.595  52.873  1.00  0.00     0.066 A 
HETATM   22  C   UNL     1      29.572  42.981  54.116  1.00  0.00     0.036 A 
HETATM   23  C   UNL     1      29.058  44.122  54.736  1.00  0.00     0.004 A 
HETATM   24  C   UNL     1      28.056  44.868  54.110  1.00  0.00     0.013 A 
BRANCH  21  25
HETATM   25  O   UNL     1      29.551  41.487  52.233  1.00  0.00    -0.361 OA
HETATM   26  H   UNL     1      30.462  41.320  52.528  1.00  0.00     0.217 HD
ENDBRANCH  21  25
ENDBRANCH  18  19
ENDBRANCH   1  17
TORSDOF 3
ENDMDL
MODEL 9
REMARK VINA RESULT:      -8.4      2.750      3.653
REMARK  3 active torsions:
REMARK  status: ('A' for Active; 'I' for Inactive)
REMARK    1  A    between atoms: C_3  and  O_4 
REMARK    2  A    between atoms: C_6  and  C_7 
REMARK    3  A    between atoms: N_8  and  N_9 
ROOT
HETATM    1  N   UNL     1      25.197  46.914  50.942  1.00  0.00    -0.189 N 
HETATM    2  C   UNL     1      25.715  46.865  52.248  1.00  0.00     0.298 A 
HETATM    3  O   UNL     1      25.587  47.715  53.124  1.00  0.00    -0.264 OA
HETATM    4  C   UNL     1      26.426  45.647  52.480  1.00  0.00     0.133 A 
HETATM    5  C   UNL     1      26.509  44.631  51.573  1.00  0.00     0.103 A 
HETATM    6  N   UNL     1      25.888  44.675  50.325  1.00  0.00    -0.239 NA
HETATM    7  C   UNL     1      25.277  45.802  50.102  1.00  0.00     0.239 A 
HETATM    8  N   UNL     1      27.124  45.268  53.593  1.00  0.00    -0.349 N 
HETATM    9  H   UNL     1      27.222  45.825  54.431  1.00  0.00     0.166 HD
HETATM   10  C   UNL     1      27.681  44.019  53.388  1.00  0.00     0.045 A 
HETATM   11  C   UNL     1      27.297  43.593  52.110  1.00  0.00     0.024 A 
HETATM   12  C   UNL     1      28.486  43.244  54.232  1.00  0.00     0.032 A 
HETATM   13  C   UNL     1      28.910  42.000  53.752  1.00  0.00     0.026 A 
HETATM   14  C   UNL     1      28.538  41.556  52.484  1.00  0.00     0.035 A 
HETATM   15 CL   UNL     1      29.084  40.017  51.933  1.00  0.00    -0.084 Cl
HETATM   16  C   UNL     1      27.732  42.334  51.650  1.00  0.00     0.040 A 
ENDROOT
BRANCH   1  17
HETATM   17  N   UNL     1      24.458  47.979  50.440  1.00  0.00    -0.175 NA
HETATM   18  C   UNL     1      23.506  47.725  49.600  1.00  0.00     0.150 C 
BRANCH  18  19
HETATM   19  C   UNL     1      22.704  48.803  48.985  1.00  0.00    -0.014 A 
HETATM   20  C   UNL     1      21.505  48.462  48.355  1.00  0.00     0.049 A 
HETATM   21  C   UNL     1      20.734  49.464  47.777  1.00  0.00     0.066 A 
HETATM   22  C   UNL     1      21.137  50.795  47.816  1.00  0.00     0.036 A 
HETATM   23  C   UNL     1      22.337  51.132  48.446  1.00  0.00     0.004 A 
HETATM   24  C   UNL     1      23.124  50.136  49.031  1.00  0.00     0.013 A 
BRANCH  21  25
HETATM   25  O   UNL     1      19.568  49.093  47.172  1.00  0.00    -0.361 OA
HETATM   26  H   UNL     1      19.539  48.123  47.115  1.00  0.00     0.217 HD
ENDBRANCH  21  25
ENDBRANCH  18  19
ENDBRANCH   1  17
TORSDOF 3
ENDMDL
MODEL 10
REMARK VINA RESULT:      -8.4      5.260      9.261
REMARK  3 active torsions:
REMARK  status: ('A' for Active; 'I' for Inactive)
REMARK    1  A    between atoms: C_3  and  O_4 
REMARK    2  A    between atoms: C_6  and  C_7 
REMARK    3  A    between atoms: N_8  and  N_9 
ROOT
HETATM    1  N   UNL     1      28.122  42.567  52.586  1.00  0.00    -0.189 N 
HETATM    2  C   UNL     1      27.459  43.092  51.462  1.00  0.00     0.298 A 
HETATM    3  O   UNL     1      26.956  44.207  51.358  1.00  0.00    -0.264 OA
HETATM    4  C   UNL     1      27.449  42.158  50.381  1.00  0.00     0.133 A 
HETATM    5  C   UNL     1      28.080  40.949  50.415  1.00  0.00     0.103 A 
HETATM    6  N   UNL     1      28.821  40.510  51.513  1.00  0.00    -0.239 NA
HETATM    7  C   UNL     1      28.793  41.346  52.510  1.00  0.00     0.239 A 
HETATM    8  N   UNL     1      26.844  42.275  49.161  1.00  0.00    -0.349 N 
HETATM    9  H   UNL     1      26.310  43.079  48.855  1.00  0.00     0.166 HD
HETATM   10  C   UNL     1      27.063  41.128  48.421  1.00  0.00     0.045 A 
HETATM   11  C   UNL     1      27.853  40.272  49.199  1.00  0.00     0.024 A 
HETATM   12  C   UNL     1      26.625  40.789  47.135  1.00  0.00     0.032 A 
HETATM   13  C   UNL     1      27.007  39.539  46.634  1.00  0.00     0.026 A 
HETATM   14  C   UNL     1      27.795  38.674  47.391  1.00  0.00     0.035 A 
HETATM   15 CL   UNL     1      28.241  37.144  46.735  1.00  0.00    -0.084 Cl
HETATM   16  C   UNL     1      28.230  39.021  48.673  1.00  0.00     0.040 A 
ENDROOT
BRANCH   1  17
HETATM   17  N   UNL     1      28.288  43.257  53.781  1.00  0.00    -0.175 NA
HETATM   18  C   UNL     1      29.485  43.606  54.128  1.00  0.00     0.150 C 
BRANCH  18  19
HETATM   19  C   UNL     1      29.753  44.300  55.405  1.00  0.00    -0.014 A 
HETATM   20  C   UNL     1      30.798  43.838  56.207  1.00  0.00     0.049 A 
HETATM   21  C   UNL     1      31.070  44.482  57.408  1.00  0.00     0.066 A 
HETATM   22  C   UNL     1      30.318  45.578  57.822  1.00  0.00     0.036 A 
HETATM   23  C   UNL     1      29.272  46.037  57.018  1.00  0.00     0.004 A 
HETATM   24  C   UNL     1      28.987  45.399  55.808  1.00  0.00     0.013 A 
BRANCH  21  25
HETATM   25  O   UNL     1      32.100  44.002  58.163  1.00  0.00    -0.361 OA
HETATM   26  H   UNL     1      32.680  43.464  57.598  1.00  0.00     0.217 HD
ENDBRANCH  21  25
ENDBRANCH  18  19
ENDBRANCH   1  17
TORSDOF 3
ENDMDL
