MODEL 1
REMARK VINA RESULT:      -9.5      0.000      0.000
REMARK  6 active torsions:
REMARK  status: ('A' for Active; 'I' for Inactive)
REMARK    1  A    between atoms: O_2  and  C_3 
REMARK    2  A    between atoms: C_7  and  C_8 
REMARK    3  A    between atoms: C_8  and  N_9 
REMARK    4  A    between atoms: N_9  and  C_10 
REMARK       I    between atoms: N_9  and  C_13 
REMARK       I    between atoms: C_13  and  N_15 
REMARK    5  A    between atoms: N_15  and  C_16 
REMARK    6  A    between atoms: C_19  and  C_22 
ROOT
HETATM    1  N   UNL     1      25.140  45.773  50.813  1.00  0.00    -0.325 N 
HETATM    2  C   UNL     1      25.767  45.974  52.057  1.00  0.00     0.323 C 
HETATM    3  O   UNL     1      25.477  46.929  52.775  1.00  0.00    -0.247 OA
HETATM    4  N   UNL     1      26.723  45.028  52.366  1.00  0.00    -0.309 N 
HETATM    5  H   UNL     1      26.798  44.255  51.727  1.00  0.00     0.170 HD
ENDROOT
BRANCH   1   6
HETATM    6  C   UNL     1      24.263  46.844  50.328  1.00  0.00     0.166 C 
BRANCH   6   7
HETATM    7  C   UNL     1      25.023  47.928  49.596  1.00  0.00    -0.037 A 
HETATM    8  C   UNL     1      26.419  48.000  49.678  1.00  0.00     0.009 A 
HETATM    9  C   UNL     1      27.116  48.995  48.994  1.00  0.00     0.003 A 
HETATM   10  C   UNL     1      26.427  49.935  48.223  1.00  0.00     0.037 A 
HETATM   11  C   UNL     1      25.036  49.881  48.134  1.00  0.00     0.068 A 
HETATM   12  C   UNL     1      24.344  48.875  48.814  1.00  0.00     0.045 A 
BRANCH  11  13
HETATM   13  O   UNL     1      24.243  50.737  47.421  1.00  0.00    -0.356 OA
HETATM   14  C   UNL     1      22.858  50.746  47.745  1.00  0.00     0.210 C 
ENDBRANCH  11  13
ENDBRANCH   6   7
ENDBRANCH   1   6
BRANCH   1  15
HETATM   15  C   UNL     1      25.520  44.753  49.860  1.00  0.00     0.089 A 
HETATM   16  C   UNL     1      24.871  43.389  49.868  1.00  0.00     0.027 A 
HETATM   17  C   UNL     1      24.617  44.324  48.729  1.00  0.00     0.027 A 
ENDBRANCH   1  15
BRANCH   4  18
HETATM   18  C   UNL     1      27.588  44.996  53.479  1.00  0.00     0.036 A 
HETATM   19  C   UNL     1      27.551  45.913  54.528  1.00  0.00     0.030 A 
HETATM   20  C   UNL     1      28.463  45.823  55.589  1.00  0.00     0.014 A 
HETATM   21  C   UNL     1      29.434  44.816  55.619  1.00  0.00    -0.023 A 
HETATM   22  C   UNL     1      29.466  43.892  54.569  1.00  0.00     0.014 A 
HETATM   23  C   UNL     1      28.553  43.982  53.510  1.00  0.00     0.030 A 
BRANCH  21  24
HETATM   24  C   UNL     1      30.376  44.741  56.722  1.00  0.00     0.010 A 
HETATM   25  C   UNL     1      31.426  43.827  56.980  1.00  0.00     0.152 A 
HETATM   26  N   UNL     1      32.063  44.079  58.127  1.00  0.00    -0.187 NA
HETATM   27  N   UNL     1      31.418  45.150  58.614  1.00  0.00    -0.289 N 
HETATM   28  H   UNL     1      31.722  45.531  59.503  1.00  0.00     0.188 HD
HETATM   29  C   UNL     1      30.403  45.586  57.811  1.00  0.00     0.123 A 
ENDBRANCH  21  24
ENDBRANCH   4  18
TORSDOF 6
ENDMDL
MODEL 2
REMARK VINA RESULT:      -8.7      1.739      2.679
REMARK  6 active torsions:
REMARK  status: ('A' for Active; 'I' for Inactive)
REMARK    1  A    between atoms: O_2  and  C_3 
REMARK    2  A    between atoms: C_7  and  C_8 
REMARK    3  A    between atoms: C_8  and  N_9 
REMARK    4  A    between atoms: N_9  and  C_10 
REMARK       I    between atoms: N_9  and  C_13 
REMARK       I    between atoms: C_13  and  N_15 
REMARK    5  A    between atoms: N_15  and  C_16 
REMARK    6  A    between atoms: C_19  and  C_22 
ROOT
HETATM    1  N   UNL     1      25.178  43.352  50.744  1.00  0.00    -0.325 N 
HETATM    2  C   UNL     1      25.676  43.598  52.037  1.00  0.00     0.323 C 
HETATM    3  O   UNL     1      24.928  43.891  52.968  1.00  0.00    -0.247 OA
HETATM    4  N   UNL     1      27.048  43.498  52.143  1.00  0.00    -0.309 N 
HETATM    5  H   UNL     1      27.528  43.169  51.323  1.00  0.00     0.170 HD
ENDROOT
BRANCH   1   6
HETATM    6  C   UNL     1      23.759  43.638  50.510  1.00  0.00     0.166 C 
BRANCH   6   7
HETATM    7  C   UNL     1      23.541  44.973  49.833  1.00  0.00    -0.037 A 
HETATM    8  C   UNL     1      22.552  45.122  48.853  1.00  0.00     0.009 A 
HETATM    9  C   UNL     1      22.348  46.357  48.238  1.00  0.00     0.003 A 
HETATM   10  C   UNL     1      23.133  47.457  48.589  1.00  0.00     0.037 A 
HETATM   11  C   UNL     1      24.126  47.326  49.560  1.00  0.00     0.068 A 
HETATM   12  C   UNL     1      24.319  46.087  50.181  1.00  0.00     0.045 A 
BRANCH  11  13
HETATM   13  O   UNL     1      24.963  48.317  49.993  1.00  0.00    -0.356 OA
HETATM   14  C   UNL     1      26.359  48.056  49.911  1.00  0.00     0.210 C 
ENDBRANCH  11  13
ENDBRANCH   6   7
ENDBRANCH   1   6
BRANCH   1  15
HETATM   15  C   UNL     1      26.005  43.133  49.577  1.00  0.00     0.089 A 
HETATM   16  C   UNL     1      26.701  41.813  49.344  1.00  0.00     0.027 A 
HETATM   17  C   UNL     1      25.583  42.231  48.443  1.00  0.00     0.027 A 
ENDBRANCH   1  15
BRANCH   4  18
HETATM   18  C   UNL     1      27.857  43.773  53.264  1.00  0.00     0.036 A 
HETATM   19  C   UNL     1      27.740  44.914  54.056  1.00  0.00     0.030 A 
HETATM   20  C   UNL     1      28.601  45.122  55.143  1.00  0.00     0.014 A 
HETATM   21  C   UNL     1      29.600  44.194  55.456  1.00  0.00    -0.023 A 
HETATM   22  C   UNL     1      29.713  43.046  54.665  1.00  0.00     0.014 A 
HETATM   23  C   UNL     1      28.851  42.839  53.580  1.00  0.00     0.030 A 
BRANCH  21  24
HETATM   24  C   UNL     1      30.489  44.428  56.581  1.00  0.00     0.010 A 
HETATM   25  C   UNL     1      31.573  43.664  57.078  1.00  0.00     0.152 A 
HETATM   26  N   UNL     1      32.136  44.206  58.160  1.00  0.00    -0.187 NA
HETATM   27  N   UNL     1      31.411  45.316  58.368  1.00  0.00    -0.289 N 
HETATM   28  H   UNL     1      31.649  45.905  59.159  1.00  0.00     0.188 HD
HETATM   29  C   UNL     1      30.415  45.495  57.451  1.00  0.00     0.123 A 
ENDBRANCH  21  24
ENDBRANCH   4  18
TORSDOF 6
ENDMDL
MODEL 3
REMARK VINA RESULT:      -8.6      3.183      5.163
REMARK  6 active torsions:
REMARK  status: ('A' for Active; 'I' for Inactive)
REMARK    1  A    between atoms: O_2  and  C_3 
REMARK    2  A    between atoms: C_7  and  C_8 
REMARK    3  A    between atoms: C_8  and  N_9 
REMARK    4  A    between atoms: N_9  and  C_10 
REMARK       I    between atoms: N_9  and  C_13 
REMARK       I    between atoms: C_13  and  N_15 
REMARK    5  A    between atoms: N_15  and  C_16 
REMARK    6  A    between atoms: C_19  and  C_22 
ROOT
HETATM    1  N   UNL     1      22.603  47.982  48.427  1.00  0.00    -0.325 N 
HETATM    2  C   UNL     1      23.630  47.721  49.352  1.00  0.00     0.323 C 
HETATM    3  O   UNL     1      24.284  48.630  49.860  1.00  0.00    -0.247 OA
HETATM    4  N   UNL     1      23.832  46.379  49.607  1.00  0.00    -0.309 N 
HETATM    5  H   UNL     1      23.170  45.749  49.188  1.00  0.00     0.170 HD
ENDROOT
BRANCH   1   6
HETATM    6  C   UNL     1      22.467  49.364  47.954  1.00  0.00     0.166 C 
BRANCH   6   7
HETATM    7  C   UNL     1      21.305  50.085  48.600  1.00  0.00    -0.037 A 
HETATM    8  C   UNL     1      20.833  51.294  48.073  1.00  0.00     0.009 A 
HETATM    9  C   UNL     1      19.755  51.950  48.666  1.00  0.00     0.003 A 
HETATM   10  C   UNL     1      19.138  51.410  49.797  1.00  0.00     0.037 A 
HETATM   11  C   UNL     1      19.598  50.210  50.339  1.00  0.00     0.068 A 
HETATM   12  C   UNL     1      20.672  49.551  49.733  1.00  0.00     0.045 A 
BRANCH  11  13
HETATM   13  O   UNL     1      19.088  49.577  51.440  1.00  0.00    -0.356 OA
HETATM   14  C   UNL     1      18.422  48.341  51.215  1.00  0.00     0.210 C 
ENDBRANCH  11  13
ENDBRANCH   6   7
ENDBRANCH   1   6
BRANCH   1  15
HETATM   15  C   UNL     1      21.884  46.964  47.692  1.00  0.00     0.089 A 
HETATM   16  C   UNL     1      20.551  46.443  48.173  1.00  0.00     0.027 A 
HETATM   17  C   UNL     1      20.619  47.260  46.923  1.00  0.00     0.027 A 
ENDBRANCH   1  15
BRANCH   4  18
HETATM   18  C   UNL     1      24.832  45.786  50.404  1.00  0.00     0.036 A 
HETATM   19  C   UNL     1      24.708  45.548  51.772  1.00  0.00     0.030 A 
HETATM   20  C   UNL     1      25.761  44.972  52.497  1.00  0.00     0.014 A 
HETATM   21  C   UNL     1      26.962  44.627  51.867  1.00  0.00    -0.023 A 
HETATM   22  C   UNL     1      27.083  44.859  50.493  1.00  0.00     0.014 A 
HETATM   23  C   UNL     1      26.029  45.433  49.770  1.00  0.00     0.030 A 
BRANCH  21  24
HETATM   24  C   UNL     1      28.046  44.037  52.633  1.00  0.00     0.010 A 
HETATM   25  C   UNL     1      29.036  43.096  52.261  1.00  0.00     0.152 A 
HETATM   26  N   UNL     1      29.855  42.780  53.268  1.00  0.00    -0.187 NA
HETATM   27  N   UNL     1      29.388  43.510  54.292  1.00  0.00    -0.289 N 
HETATM   28  H   UNL     1      29.853  43.430  55.190  1.00  0.00     0.188 HD
HETATM   29  C   UNL     1      28.309  44.279  53.965  1.00  0.00     0.123 A 
ENDBRANCH  21  24
ENDBRANCH   4  18
TORSDOF 6
ENDMDL
MODEL 4
REMARK VINA RESULT:      -8.5      2.798      4.078
REMARK  6 active torsions:
REMARK  status: ('A' for Active; 'I' for Inactive)
REMARK    1  A    between atoms: O_2  and  C_3 
REMARK    2  A    between atoms: C_7  and  C_8 
REMARK    3  A    between atoms: C_8  and  N_9 
REMARK    4  A    between atoms: N_9  and  C_10 
REMARK       I    between atoms: N_9  and  C_13 
REMARK       I    between atoms: C_13  and  N_15 
REMARK    5  A    between atoms: N_15  and  C_16 
REMARK    6  A    between atoms: C_19  and  C_22 
ROOT
HETATM    1  N   UNL     1      23.028  46.989  48.837  1.00  0.00    -0.325 N 
HETATM    2  C   UNL     1      23.951  47.240  49.869  1.00  0.00     0.323 C 
HETATM    3  O   UNL     1      24.409  48.365  50.061  1.00  0.00    -0.247 OA
HETATM    4  N   UNL     1      24.292  46.124  50.606  1.00  0.00    -0.309 N 
HETATM    5  H   UNL     1      23.779  45.286  50.394  1.00  0.00     0.170 HD
ENDROOT
BRANCH   1   6
HETATM    6  C   UNL     1      22.775  48.078  47.889  1.00  0.00     0.166 C 
BRANCH   6   7
HETATM    7  C   UNL     1      21.776  49.084  48.415  1.00  0.00    -0.037 A 
HETATM    8  C   UNL     1      22.034  50.458  48.331  1.00  0.00     0.009 A 
HETATM    9  C   UNL     1      21.105  51.382  48.809  1.00  0.00     0.003 A 
HETATM   10  C   UNL     1      19.909  50.945  49.383  1.00  0.00     0.037 A 
HETATM   11  C   UNL     1      19.637  49.580  49.480  1.00  0.00     0.068 A 
HETATM   12  C   UNL     1      20.568  48.659  48.989  1.00  0.00     0.045 A 
BRANCH  11  13
HETATM   13  O   UNL     1      18.511  49.021  50.019  1.00  0.00    -0.356 OA
HETATM   14  C   UNL     1      18.578  48.644  51.389  1.00  0.00     0.210 C 
ENDBRANCH  11  13
ENDBRANCH   6   7
ENDBRANCH   1   6
BRANCH   1  15
HETATM   15  C   UNL     1      22.550  45.674  48.469  1.00  0.00     0.089 A 
HETATM   16  C   UNL     1      21.147  45.227  48.802  1.00  0.00     0.027 A 
HETATM   17  C   UNL     1      21.532  45.458  47.375  1.00  0.00     0.027 A 
ENDBRANCH   1  15
BRANCH   4  18
HETATM   18  C   UNL     1      25.250  46.020  51.635  1.00  0.00     0.036 A 
HETATM   19  C   UNL     1      25.469  46.998  52.605  1.00  0.00     0.030 A 
HETATM   20  C   UNL     1      26.459  46.825  53.583  1.00  0.00     0.014 A 
HETATM   21  C   UNL     1      27.251  45.673  53.608  1.00  0.00    -0.023 A 
HETATM   22  C   UNL     1      27.026  44.689  52.639  1.00  0.00     0.014 A 
HETATM   23  C   UNL     1      26.036  44.863  51.663  1.00  0.00     0.030 A 
BRANCH  21  24
HETATM   24  C   UNL     1      28.277  45.512  54.624  1.00  0.00     0.010 A 
HETATM   25  C   UNL     1      29.179  44.448  54.868  1.00  0.00     0.152 A 
HETATM   26  N   UNL     1      29.965  44.666  55.926  1.00  0.00    -0.187 NA
HETATM   27  N   UNL     1      29.564  45.868  56.371  1.00  0.00    -0.289 N 
HETATM   28  H   UNL     1      30.018  46.252  57.192  1.00  0.00     0.188 HD
HETATM   29  C   UNL     1      28.559  46.416  55.627  1.00  0.00     0.123 A 
ENDBRANCH  21  24
ENDBRANCH   4  18
TORSDOF 6
ENDMDL
MODEL 5
REMARK VINA RESULT:      -8.4      4.203      7.018
REMARK  6 active torsions:
REMARK  status: ('A' for Active; 'I' for Inactive)
REMARK    1  A    between atoms: O_2  and  C_3 
REMARK    2  A    between atoms: C_7  and  C_8 
REMARK    3  A    between atoms: C_8  and  N_9 
REMARK    4  A    between atoms: N_9  and  C_10 
REMARK       I    between atoms: N_9  and  C_13 
REMARK       I    between atoms: C_13  and  N_15 
REMARK    5  A    between atoms: N_15  and  C_16 
REMARK    6  A    between atoms: C_19  and  C_22 
ROOT
HETATM    1  N   UNL     1      26.908  41.675  50.365  1.00  0.00    -0.325 N 
HETATM    2  C   UNL     1      27.578  41.742  51.600  1.00  0.00     0.323 C 
HETATM    3  O   UNL     1      27.652  40.766  52.345  1.00  0.00    -0.247 OA
HETATM    4  N   UNL     1      28.108  42.983  51.889  1.00  0.00    -0.309 N 
HETATM    5  H   UNL     1      28.047  43.667  51.154  1.00  0.00     0.170 HD
ENDROOT
BRANCH   1   6
HETATM    6  C   UNL     1      26.148  40.453  50.084  1.00  0.00     0.166 C 
BRANCH   6   7
HETATM    7  C   UNL     1      26.928  39.465  49.246  1.00  0.00    -0.037 A 
HETATM    8  C   UNL     1      26.446  39.051  47.998  1.00  0.00     0.009 A 
HETATM    9  C   UNL     1      27.174  38.148  47.224  1.00  0.00     0.003 A 
HETATM   10  C   UNL     1      28.390  37.642  47.690  1.00  0.00     0.037 A 
HETATM   11  C   UNL     1      28.883  38.040  48.932  1.00  0.00     0.068 A 
HETATM   12  C   UNL     1      28.154  38.954  49.699  1.00  0.00     0.045 A 
BRANCH  11  13
HETATM   13  O   UNL     1      30.053  37.621  49.504  1.00  0.00    -0.356 OA
HETATM   14  C   UNL     1      30.113  37.643  50.925  1.00  0.00     0.210 C 
ENDBRANCH  11  13
ENDBRANCH   6   7
ENDBRANCH   1   6
BRANCH   1  15
HETATM   15  C   UNL     1      26.666  42.811  49.502  1.00  0.00     0.089 A 
HETATM   16  C   UNL     1      25.347  42.990  48.790  1.00  0.00     0.027 A 
HETATM   17  C   UNL     1      25.732  43.935  49.884  1.00  0.00     0.027 A 
ENDBRANCH   1  15
BRANCH   4  18
HETATM   18  C   UNL     1      28.750  43.402  53.072  1.00  0.00     0.036 A 
HETATM   19  C   UNL     1      29.937  42.856  53.557  1.00  0.00     0.030 A 
HETATM   20  C   UNL     1      30.499  43.317  54.756  1.00  0.00     0.014 A 
HETATM   21  C   UNL     1      29.881  44.330  55.497  1.00  0.00    -0.023 A 
HETATM   22  C   UNL     1      28.693  44.882  55.006  1.00  0.00     0.014 A 
HETATM   23  C   UNL     1      28.134  44.422  53.807  1.00  0.00     0.030 A 
BRANCH  21  24
HETATM   24  C   UNL     1      30.472  44.791  56.741  1.00  0.00     0.010 A 
HETATM   25  C   UNL     1      31.411  44.174  57.603  1.00  0.00     0.152 A 
HETATM   26  N   UNL     1      31.694  44.915  58.677  1.00  0.00    -0.187 NA
HETATM   27  N   UNL     1      30.931  46.007  58.514  1.00  0.00    -0.289 N 
HETATM   28  H   UNL     1      30.967  46.729  59.225  1.00  0.00     0.188 HD
HETATM   29  C   UNL     1      30.182  45.982  57.372  1.00  0.00     0.123 A 
ENDBRANCH  21  24
ENDBRANCH   4  18
TORSDOF 6
ENDMDL
MODEL 6
REMARK VINA RESULT:      -8.4      2.938      8.915
REMARK  6 active torsions:
REMARK  status: ('A' for Active; 'I' for Inactive)
REMARK    1  A    between atoms: O_2  and  C_3 
REMARK    2  A    between atoms: C_7  and  C_8 
REMARK    3  A    between atoms: C_8  and  N_9 
REMARK    4  A    between atoms: N_9  and  C_10 
REMARK       I    between atoms: N_9  and  C_13 
REMARK       I    between atoms: C_13  and  N_15 
REMARK    5  A    between atoms: N_15  and  C_16 
REMARK    6  A    between atoms: C_19  and  C_22 
ROOT
HETATM    1  N   UNL     1      27.326  43.549  52.352  1.00  0.00    -0.325 N 
HETATM    2  C   UNL     1      26.623  44.748  52.139  1.00  0.00     0.323 C 
HETATM    3  O   UNL     1      26.198  45.419  53.078  1.00  0.00    -0.247 OA
HETATM    4  N   UNL     1      26.449  45.073  50.808  1.00  0.00    -0.309 N 
HETATM    5  H   UNL     1      26.921  44.480  50.148  1.00  0.00     0.170 HD
ENDROOT
BRANCH   1   6
HETATM    6  C   UNL     1      27.371  43.037  53.725  1.00  0.00     0.166 C 
BRANCH   6   7
HETATM    7  C   UNL     1      28.604  43.496  54.473  1.00  0.00    -0.037 A 
HETATM    8  C   UNL     1      29.789  42.752  54.420  1.00  0.00     0.009 A 
HETATM    9  C   UNL     1      30.925  43.183  55.103  1.00  0.00     0.003 A 
HETATM   10  C   UNL     1      30.890  44.361  55.854  1.00  0.00     0.037 A 
HETATM   11  C   UNL     1      29.717  45.113  55.922  1.00  0.00     0.068 A 
HETATM   12  C   UNL     1      28.584  44.680  55.226  1.00  0.00     0.045 A 
BRANCH  11  13
HETATM   13  O   UNL     1      29.548  46.277  56.620  1.00  0.00    -0.356 OA
HETATM   14  C   UNL     1      28.788  46.199  57.819  1.00  0.00     0.210 C 
ENDBRANCH  11  13
ENDBRANCH   6   7
ENDBRANCH   1   6
BRANCH   1  15
HETATM   15  C   UNL     1      27.738  42.644  51.301  1.00  0.00     0.089 A 
HETATM   16  C   UNL     1      28.066  41.198  51.592  1.00  0.00     0.027 A 
HETATM   17  C   UNL     1      26.849  41.535  50.790  1.00  0.00     0.027 A 
ENDBRANCH   1  15
BRANCH   4  18
HETATM   18  C   UNL     1      25.717  46.146  50.262  1.00  0.00     0.036 A 
HETATM   19  C   UNL     1      26.248  47.411  50.010  1.00  0.00     0.030 A 
HETATM   20  C   UNL     1      25.443  48.433  49.485  1.00  0.00     0.014 A 
HETATM   21  C   UNL     1      24.090  48.210  49.206  1.00  0.00    -0.023 A 
HETATM   22  C   UNL     1      23.560  46.939  49.453  1.00  0.00     0.014 A 
HETATM   23  C   UNL     1      24.366  45.919  49.976  1.00  0.00     0.030 A 
BRANCH  21  24
HETATM   24  C   UNL     1      23.269  49.281  48.669  1.00  0.00     0.010 A 
HETATM   25  C   UNL     1      23.381  50.687  48.800  1.00  0.00     0.152 A 
HETATM   26  N   UNL     1      22.405  51.345  48.169  1.00  0.00    -0.187 NA
HETATM   27  N   UNL     1      21.659  50.365  47.637  1.00  0.00    -0.289 N 
HETATM   28  H   UNL     1      20.835  50.623  47.105  1.00  0.00     0.188 HD
HETATM   29  C   UNL     1      22.133  49.113  47.906  1.00  0.00     0.123 A 
ENDBRANCH  21  24
ENDBRANCH   4  18
TORSDOF 6
ENDMDL
MODEL 7
REMARK VINA RESULT:      -8.3      4.141     10.014
REMARK  6 active torsions:
REMARK  status: ('A' for Active; 'I' for Inactive)
REMARK    1  A    between atoms: O_2  and  C_3 
REMARK    2  A    between atoms: C_7  and  C_8 
REMARK    3  A    between atoms: C_8  and  N_9 
REMARK    4  A    between atoms: N_9  and  C_10 
REMARK       I    between atoms: N_9  and  C_13 
REMARK       I    between atoms: C_13  and  N_15 
REMARK    5  A    between atoms: N_15  and  C_16 
REMARK    6  A    between atoms: C_19  and  C_22 
ROOT
HETATM    1  N   UNL     1      24.628  46.453  49.552  1.00  0.00    -0.325 N 
HETATM    2  C   UNL     1      23.952  47.681  49.436  1.00  0.00     0.323 C 
HETATM    3  O   UNL     1      24.537  48.753  49.582  1.00  0.00    -0.247 OA
HETATM    4  N   UNL     1      22.603  47.560  49.169  1.00  0.00    -0.309 N 
HETATM    5  H   UNL     1      22.274  46.627  48.991  1.00  0.00     0.170 HD
ENDROOT
BRANCH   1   6
HETATM    6  C   UNL     1      26.013  46.497  50.032  1.00  0.00     0.166 C 
BRANCH   6   7
HETATM    7  C   UNL     1      26.116  46.271  51.525  1.00  0.00    -0.037 A 
HETATM    8  C   UNL     1      26.523  45.032  52.033  1.00  0.00     0.009 A 
HETATM    9  C   UNL     1      26.625  44.832  53.409  1.00  0.00     0.003 A 
HETATM   10  C   UNL     1      26.317  45.866  54.295  1.00  0.00     0.037 A 
HETATM   11  C   UNL     1      25.905  47.106  53.808  1.00  0.00     0.068 A 
HETATM   12  C   UNL     1      25.815  47.304  52.426  1.00  0.00     0.045 A 
BRANCH  11  13
HETATM   13  O   UNL     1      25.572  48.197  54.563  1.00  0.00    -0.356 OA
HETATM   14  C   UNL     1      26.441  48.516  55.643  1.00  0.00     0.210 C 
ENDBRANCH  11  13
ENDBRANCH   6   7
ENDBRANCH   1   6
BRANCH   1  15
HETATM   15  C   UNL     1      23.984  45.158  49.524  1.00  0.00     0.089 A 
HETATM   16  C   UNL     1      23.684  44.457  48.220  1.00  0.00     0.027 A 
HETATM   17  C   UNL     1      24.719  43.895  49.142  1.00  0.00     0.027 A 
ENDBRANCH   1  15
BRANCH   4  18
HETATM   18  C   UNL     1      21.637  48.583  49.089  1.00  0.00     0.036 A 
HETATM   19  C   UNL     1      21.937  49.940  48.977  1.00  0.00     0.030 A 
HETATM   20  C   UNL     1      20.913  50.897  48.924  1.00  0.00     0.014 A 
HETATM   21  C   UNL     1      19.569  50.515  48.988  1.00  0.00    -0.023 A 
HETATM   22  C   UNL     1      19.268  49.153  49.094  1.00  0.00     0.014 A 
HETATM   23  C   UNL     1      20.292  48.198  49.145  1.00  0.00     0.030 A 
BRANCH  21  24
HETATM   24  C   UNL     1      18.521  51.520  48.940  1.00  0.00     0.010 A 
HETATM   25  C   UNL     1      17.930  52.290  49.970  1.00  0.00     0.152 A 
HETATM   26  N   UNL     1      16.967  53.102  49.525  1.00  0.00    -0.187 NA
HETATM   27  N   UNL     1      16.930  52.849  48.207  1.00  0.00    -0.289 N 
HETATM   28  H   UNL     1      16.254  53.350  47.641  1.00  0.00     0.188 HD
HETATM   29  C   UNL     1      17.839  51.912  47.807  1.00  0.00     0.123 A 
ENDBRANCH  21  24
ENDBRANCH   4  18
TORSDOF 6
ENDMDL
MODEL 8
REMARK VINA RESULT:      -8.3      3.652      5.845
REMARK  6 active torsions:
REMARK  status: ('A' for Active; 'I' for Inactive)
REMARK    1  A    between atoms: O_2  and  C_3 
REMARK    2  A    between atoms: C_7  and  C_8 
REMARK    3  A    between atoms: C_8  and  N_9 
REMARK    4  A    between atoms: N_9  and  C_10 
REMARK       I    between atoms: N_9  and  C_13 
REMARK       I    between atoms: C_13  and  N_15 
REMARK    5  A    between atoms: N_15  and  C_16 
REMARK    6  A    between atoms: C_19  and  C_22 
ROOT
HETATM    1  N   UNL     1      22.886  48.251  48.355  1.00  0.00    -0.325 N 
HETATM    2  C   UNL     1      23.285  46.966  48.765  1.00  0.00     0.323 C 
HETATM    3  O   UNL     1      22.639  45.965  48.461  1.00  0.00    -0.247 OA
HETATM    4  N   UNL     1      24.430  46.950  49.536  1.00  0.00    -0.309 N 
HETATM    5  H   UNL     1      24.903  47.831  49.637  1.00  0.00     0.170 HD
ENDROOT
BRANCH   1   6
HETATM    6  C   UNL     1      21.574  48.368  47.709  1.00  0.00     0.166 C 
BRANCH   6   7
HETATM    7  C   UNL     1      20.491  48.806  48.670  1.00  0.00    -0.037 A 
HETATM    8  C   UNL     1      19.829  47.871  49.474  1.00  0.00     0.009 A 
HETATM    9  C   UNL     1      18.838  48.281  50.365  1.00  0.00     0.003 A 
HETATM   10  C   UNL     1      18.492  49.631  50.460  1.00  0.00     0.037 A 
HETATM   11  C   UNL     1      19.138  50.577  49.664  1.00  0.00     0.068 A 
HETATM   12  C   UNL     1      20.139  50.160  48.780  1.00  0.00     0.045 A 
BRANCH  11  13
HETATM   13  O   UNL     1      18.895  51.923  49.657  1.00  0.00    -0.356 OA
HETATM   14  C   UNL     1      19.012  52.586  48.405  1.00  0.00     0.210 C 
ENDBRANCH  11  13
ENDBRANCH   6   7
ENDBRANCH   1   6
BRANCH   1  15
HETATM   15  C   UNL     1      23.518  49.480  48.783  1.00  0.00     0.089 A 
HETATM   16  C   UNL     1      24.767  49.997  48.109  1.00  0.00     0.027 A 
HETATM   17  C   UNL     1      23.479  50.742  47.955  1.00  0.00     0.027 A 
ENDBRANCH   1  15
BRANCH   4  18
HETATM   18  C   UNL     1      25.033  45.848  50.175  1.00  0.00     0.036 A 
HETATM   19  C   UNL     1      24.509  45.207  51.297  1.00  0.00     0.030 A 
HETATM   20  C   UNL     1      25.184  44.129  51.887  1.00  0.00     0.014 A 
HETATM   21  C   UNL     1      26.401  43.673  51.368  1.00  0.00    -0.023 A 
HETATM   22  C   UNL     1      26.923  44.312  50.238  1.00  0.00     0.014 A 
HETATM   23  C   UNL     1      26.246  45.388  49.650  1.00  0.00     0.030 A 
BRANCH  21  24
HETATM   24  C   UNL     1      27.092  42.560  51.995  1.00  0.00     0.010 A 
HETATM   25  C   UNL     1      27.739  42.462  53.250  1.00  0.00     0.152 A 
HETATM   26  N   UNL     1      28.285  41.261  53.460  1.00  0.00    -0.187 NA
HETATM   27  N   UNL     1      27.998  40.587  52.336  1.00  0.00    -0.289 N 
HETATM   28  H   UNL     1      28.325  39.630  52.254  1.00  0.00     0.188 HD
HETATM   29  C   UNL     1      27.286  41.318  51.429  1.00  0.00     0.123 A 
ENDBRANCH  21  24
ENDBRANCH   4  18
TORSDOF 6
ENDMDL
MODEL 9
REMARK VINA RESULT:      -8.1      4.150     10.539
REMARK  6 active torsions:
REMARK  status: ('A' for Active; 'I' for Inactive)
REMARK    1  A    between atoms: O_2  and  C_3 
REMARK    2  A    between atoms: C_7  and  C_8 
REMARK    3  A    between atoms: C_8  and  N_9 
REMARK    4  A    between atoms: N_9  and  C_10 
REMARK       I    between atoms: N_9  and  C_13 
REMARK       I    between atoms: C_13  and  N_15 
REMARK    5  A    between atoms: N_15  and  C_16 
REMARK    6  A    between atoms: C_19  and  C_22 
ROOT
HETATM    1  N   UNL     1      25.227  48.066  49.606  1.00  0.00    -0.325 N 
HETATM    2  C   UNL     1      23.847  48.298  49.459  1.00  0.00     0.323 C 
HETATM    3  O   UNL     1      23.037  47.373  49.462  1.00  0.00    -0.247 OA
HETATM    4  N   UNL     1      23.512  49.627  49.297  1.00  0.00    -0.309 N 
HETATM    5  H   UNL     1      24.266  50.284  49.398  1.00  0.00     0.170 HD
ENDROOT
BRANCH   1   6
HETATM    6  C   UNL     1      25.675  46.669  49.579  1.00  0.00     0.166 C 
BRANCH   6   7
HETATM    7  C   UNL     1      25.953  46.123  50.962  1.00  0.00    -0.037 A 
HETATM    8  C   UNL     1      26.465  44.831  51.129  1.00  0.00     0.009 A 
HETATM    9  C   UNL     1      26.729  44.336  52.406  1.00  0.00     0.003 A 
HETATM   10  C   UNL     1      26.478  45.123  53.532  1.00  0.00     0.037 A 
HETATM   11  C   UNL     1      25.963  46.411  53.385  1.00  0.00     0.068 A 
HETATM   12  C   UNL     1      25.711  46.906  52.102  1.00  0.00     0.045 A 
BRANCH  11  13
HETATM   13  O   UNL     1      25.671  47.280  54.400  1.00  0.00    -0.356 OA
HETATM   14  C   UNL     1      26.768  47.759  55.167  1.00  0.00     0.210 C 
ENDBRANCH  11  13
ENDBRANCH   6   7
ENDBRANCH   1   6
BRANCH   1  15
HETATM   15  C   UNL     1      26.247  49.085  49.480  1.00  0.00     0.089 A 
HETATM   16  C   UNL     1      27.623  48.758  48.951  1.00  0.00     0.027 A 
HETATM   17  C   UNL     1      26.702  49.614  48.141  1.00  0.00     0.027 A 
ENDBRANCH   1  15
BRANCH   4  18
HETATM   18  C   UNL     1      22.242  50.178  49.034  1.00  0.00     0.036 A 
HETATM   19  C   UNL     1      21.462  50.840  49.982  1.00  0.00     0.030 A 
HETATM   20  C   UNL     1      20.197  51.341  49.643  1.00  0.00     0.014 A 
HETATM   21  C   UNL     1      19.685  51.186  48.350  1.00  0.00    -0.023 A 
HETATM   22  C   UNL     1      20.471  50.527  47.398  1.00  0.00     0.014 A 
HETATM   23  C   UNL     1      21.735  50.028  47.738  1.00  0.00     0.030 A 
BRANCH  21  24
HETATM   24  C   UNL     1      18.369  51.704  48.018  1.00  0.00     0.010 A 
HETATM   25  C   UNL     1      17.299  52.112  48.850  1.00  0.00     0.152 A 
HETATM   26  N   UNL     1      16.229  52.513  48.158  1.00  0.00    -0.187 NA
HETATM   27  N   UNL     1      16.605  52.356  46.880  1.00  0.00    -0.289 N 
HETATM   28  H   UNL     1      15.941  52.592  46.151  1.00  0.00     0.188 HD
HETATM   29  C   UNL     1      17.876  51.876  46.742  1.00  0.00     0.123 A 
ENDBRANCH  21  24
ENDBRANCH   4  18
TORSDOF 6
ENDMDL
MODEL 10
REMARK VINA RESULT:      -8.1      3.007      9.500
REMARK  6 active torsions:
REMARK  status: ('A' for Active; 'I' for Inactive)
REMARK    1  A    between atoms: O_2  and  C_3 
REMARK    2  A    between atoms: C_7  and  C_8 
REMARK    3  A    between atoms: C_8  and  N_9 
REMARK    4  A    between atoms: N_9  and  C_10 
REMARK       I    between atoms: N_9  and  C_13 
REMARK       I    between atoms: C_13  and  N_15 
REMARK    5  A    between atoms: N_15  and  C_16 
REMARK    6  A    between atoms: C_19  and  C_22 
ROOT
HETATM    1  N   UNL     1      26.814  44.185  52.285  1.00  0.00    -0.325 N 
HETATM    2  C   UNL     1      25.742  45.047  51.989  1.00  0.00     0.323 C 
HETATM    3  O   UNL     1      24.993  45.467  52.870  1.00  0.00    -0.247 OA
HETATM    4  N   UNL     1      25.611  45.345  50.648  1.00  0.00    -0.309 N 
HETATM    5  H   UNL     1      26.343  45.002  50.049  1.00  0.00     0.170 HD
ENDROOT
BRANCH   1   6
HETATM    6  C   UNL     1      26.892  43.664  53.654  1.00  0.00     0.166 C 
BRANCH   6   7
HETATM    7  C   UNL     1      28.012  44.295  54.451  1.00  0.00    -0.037 A 
HETATM    8  C   UNL     1      27.936  45.635  54.851  1.00  0.00     0.009 A 
HETATM    9  C   UNL     1      28.967  46.209  55.594  1.00  0.00     0.003 A 
HETATM   10  C   UNL     1      30.089  45.454  55.943  1.00  0.00     0.037 A 
HETATM   11  C   UNL     1      30.184  44.120  55.549  1.00  0.00     0.068 A 
HETATM   12  C   UNL     1      29.143  43.546  54.813  1.00  0.00     0.045 A 
BRANCH  11  13
HETATM   13  O   UNL     1      31.224  43.274  55.820  1.00  0.00    -0.356 OA
HETATM   14  C   UNL     1      31.753  43.313  57.139  1.00  0.00     0.210 C 
ENDBRANCH  11  13
ENDBRANCH   6   7
ENDBRANCH   1   6
BRANCH   1  15
HETATM   15  C   UNL     1      27.652  43.549  51.292  1.00  0.00     0.089 A 
HETATM   16  C   UNL     1      28.149  42.135  51.473  1.00  0.00     0.027 A 
HETATM   17  C   UNL     1      27.151  42.437  50.401  1.00  0.00     0.027 A 
ENDBRANCH   1  15
BRANCH   4  18
HETATM   18  C   UNL     1      24.597  46.094  50.018  1.00  0.00     0.036 A 
HETATM   19  C   UNL     1      23.564  45.539  49.264  1.00  0.00     0.030 A 
HETATM   20  C   UNL     1      22.605  46.358  48.651  1.00  0.00     0.014 A 
HETATM   21  C   UNL     1      22.664  47.750  48.775  1.00  0.00    -0.023 A 
HETATM   22  C   UNL     1      23.697  48.307  49.537  1.00  0.00     0.014 A 
HETATM   23  C   UNL     1      24.654  47.487  50.150  1.00  0.00     0.030 A 
BRANCH  21  24
HETATM   24  C   UNL     1      21.668  48.585  48.128  1.00  0.00     0.010 A 
HETATM   25  C   UNL     1      21.645  49.981  47.888  1.00  0.00     0.152 A 
HETATM   26  N   UNL     1      20.528  50.383  47.276  1.00  0.00    -0.187 NA
HETATM   27  N   UNL     1      19.826  49.249  47.129  1.00  0.00    -0.289 N 
HETATM   28  H   UNL     1      18.914  49.303  46.687  1.00  0.00     0.188 HD
HETATM   29  C   UNL     1      20.463  48.146  47.620  1.00  0.00     0.123 A 
ENDBRANCH  21  24
ENDBRANCH   4  18
TORSDOF 6
ENDMDL
