MODEL 1
REMARK VINA RESULT:      -8.8      0.000      0.000
REMARK  5 active torsions:
REMARK  status: ('A' for Active; 'I' for Inactive)
REMARK    1  A    between atoms: C_2  and  C_3 
REMARK    2  A    between atoms: C_6  and  C_7 
REMARK    3  A    between atoms: C_7  and  N_8 
REMARK    4  A    between atoms: C_7  and  C_21 
REMARK       I    between atoms: N_8  and  C_9 
REMARK       I    between atoms: C_9  and  N_10 
REMARK    5  A    between atoms: N_10  and  N_11 
ROOT
HETATM    1  N   UNL     1      27.182  42.321  51.779  1.00  0.00    -0.333 N 
HETATM    2  C   UNL     1      27.378  41.154  51.116  1.00  0.00     0.335 C 
HETATM    3  N   UNL     1      28.456  41.100  50.288  1.00  0.00    -0.244 N 
HETATM    4  O   UNL     1      26.563  40.247  51.259  1.00  0.00    -0.246 OA
HETATM    5  H   UNL     1      26.372  42.282  52.383  1.00  0.00     0.165 HD
HETATM    6  H   UNL     1      29.281  41.599  50.577  1.00  0.00     0.192 HD
ENDROOT
BRANCH   1   7
HETATM    7  C   UNL     1      27.908  43.590  51.716  1.00  0.00     0.122 C 
BRANCH   7   8
HETATM    8  C   UNL     1      28.675  43.768  53.018  1.00  0.00    -0.035 A 
HETATM    9  C   UNL     1      29.799  42.975  53.287  1.00  0.00     0.010 A 
HETATM   10  C   UNL     1      30.520  43.137  54.473  1.00  0.00     0.007 A 
HETATM   11  C   UNL     1      30.127  44.089  55.420  1.00  0.00    -0.059 A 
HETATM   12  C   UNL     1      29.004  44.881  55.158  1.00  0.00     0.007 A 
HETATM   13  C   UNL     1      28.285  44.721  53.972  1.00  0.00     0.010 A 
BRANCH  11  14
HETATM   14  C   UNL     1      30.919  44.285  56.687  1.00  0.00     0.034 C 
HETATM   15  C   UNL     1      31.716  43.041  57.050  1.00  0.00     0.010 C 
ENDBRANCH  11  14
ENDBRANCH   7   8
BRANCH   7  16
HETATM   16  C   UNL     1      26.947  44.770  51.400  1.00  0.00     0.005 C 
HETATM   17  C   UNL     1      27.040  45.203  49.931  1.00  0.00     0.012 C 
HETATM   18  C   UNL     1      25.490  44.397  51.711  1.00  0.00     0.012 C 
ENDBRANCH   7  16
ENDBRANCH   1   7
BRANCH   3  19
HETATM   19  N   UNL     1      28.744  39.907  49.707  1.00  0.00    -0.244 N 
HETATM   20  C   UNL     1      28.488  39.604  48.399  1.00  0.00     0.086 A 
HETATM   21  C   UNL     1      28.717  38.228  48.348  1.00  0.00     0.086 A 
HETATM   22  C   UNL     1      28.086  40.352  47.286  1.00  0.00     0.034 A 
HETATM   23  C   UNL     1      28.542  37.550  47.131  1.00  0.00     0.034 A 
HETATM   24  N   UNL     1      29.082  37.729  49.580  1.00  0.00    -0.240 NA
HETATM   25  C   UNL     1      28.135  38.278  46.006  1.00  0.00     0.002 A 
HETATM   26  C   UNL     1      27.912  39.654  46.085  1.00  0.00     0.002 A 
HETATM   27  C   UNL     1      29.082  38.774  50.382  1.00  0.00     0.234 A 
ENDBRANCH   3  19
TORSDOF 5
ENDMDL
MODEL 2
REMARK VINA RESULT:      -8.8      3.988      7.223
REMARK  5 active torsions:
REMARK  status: ('A' for Active; 'I' for Inactive)
REMARK    1  A    between atoms: C_2  and  C_3 
REMARK    2  A    between atoms: C_6  and  C_7 
REMARK    3  A    between atoms: C_7  and  N_8 
REMARK    4  A    between atoms: C_7  and  C_21 
REMARK       I    between atoms: N_8  and  C_9 
REMARK       I    between atoms: C_9  and  N_10 
REMARK    5  A    between atoms: N_10  and  N_11 
ROOT
HETATM    1  N   UNL     1      27.591  44.995  50.426  1.00  0.00    -0.333 N 
HETATM    2  C   UNL     1      27.269  46.138  49.770  1.00  0.00     0.335 C 
HETATM    3  N   UNL     1      26.189  46.821  50.237  1.00  0.00    -0.244 N 
HETATM    4  O   UNL     1      27.923  46.460  48.783  1.00  0.00    -0.246 OA
HETATM    5  H   UNL     1      28.409  44.550  50.031  1.00  0.00     0.165 HD
HETATM    6  H   UNL     1      26.038  46.815  51.232  1.00  0.00     0.192 HD
ENDROOT
BRANCH   1   7
HETATM    7  C   UNL     1      26.932  44.315  51.541  1.00  0.00     0.122 C 
BRANCH   7   8
HETATM    8  C   UNL     1      27.973  44.041  52.617  1.00  0.00    -0.035 A 
HETATM    9  C   UNL     1      27.917  44.725  53.840  1.00  0.00     0.010 A 
HETATM   10  C   UNL     1      28.858  44.474  54.842  1.00  0.00     0.007 A 
HETATM   11  C   UNL     1      29.881  43.540  54.640  1.00  0.00    -0.059 A 
HETATM   12  C   UNL     1      29.942  42.857  53.420  1.00  0.00     0.007 A 
HETATM   13  C   UNL     1      29.001  43.106  52.420  1.00  0.00     0.010 A 
BRANCH  11  14
HETATM   14  C   UNL     1      30.880  43.247  55.729  1.00  0.00     0.034 C 
HETATM   15  C   UNL     1      30.930  44.363  56.762  1.00  0.00     0.010 C 
ENDBRANCH  11  14
ENDBRANCH   7   8
BRANCH   7  16
HETATM   16  C   UNL     1      26.195  43.034  51.058  1.00  0.00     0.005 C 
HETATM   17  C   UNL     1      24.671  43.217  51.071  1.00  0.00     0.012 C 
HETATM   18  C   UNL     1      26.630  42.646  49.638  1.00  0.00     0.012 C 
ENDBRANCH   7  16
ENDBRANCH   1   7
BRANCH   3  19
HETATM   19  N   UNL     1      25.918  48.028  49.677  1.00  0.00    -0.244 N 
HETATM   20  C   UNL     1      24.681  48.416  49.243  1.00  0.00     0.086 A 
HETATM   21  C   UNL     1      24.953  49.590  48.538  1.00  0.00     0.086 A 
HETATM   22  C   UNL     1      23.391  47.887  49.375  1.00  0.00     0.034 A 
HETATM   23  C   UNL     1      23.895  50.283  47.930  1.00  0.00     0.034 A 
HETATM   24  N   UNL     1      26.301  49.882  48.541  1.00  0.00    -0.240 NA
HETATM   25  C   UNL     1      22.598  49.770  48.045  1.00  0.00     0.002 A 
HETATM   26  C   UNL     1      22.353  48.594  48.755  1.00  0.00     0.002 A 
HETATM   27  C   UNL     1      26.856  48.910  49.235  1.00  0.00     0.234 A 
ENDBRANCH   3  19
TORSDOF 5
ENDMDL
MODEL 3
REMARK VINA RESULT:      -8.6      3.210      6.133
REMARK  5 active torsions:
REMARK  status: ('A' for Active; 'I' for Inactive)
REMARK    1  A    between atoms: C_2  and  C_3 
REMARK    2  A    between atoms: C_6  and  C_7 
REMARK    3  A    between atoms: C_7  and  N_8 
REMARK    4  A    between atoms: C_7  and  C_21 
REMARK       I    between atoms: N_8  and  C_9 
REMARK       I    between atoms: C_9  and  N_10 
REMARK    5  A    between atoms: N_10  and  N_11 
ROOT
HETATM    1  N   UNL     1      27.524  43.789  50.684  1.00  0.00    -0.333 N 
HETATM    2  C   UNL     1      26.717  44.769  50.208  1.00  0.00     0.335 C 
HETATM    3  N   UNL     1      25.543  44.962  50.867  1.00  0.00    -0.244 N 
HETATM    4  O   UNL     1      27.060  45.383  49.201  1.00  0.00    -0.246 OA
HETATM    5  H   UNL     1      28.381  43.712  50.153  1.00  0.00     0.165 HD
HETATM    6  H   UNL     1      25.550  44.829  51.865  1.00  0.00     0.192 HD
ENDROOT
BRANCH   1   7
HETATM    7  C   UNL     1      27.326  42.834  51.774  1.00  0.00     0.122 C 
BRANCH   7   8
HETATM    8  C   UNL     1      28.267  43.203  52.911  1.00  0.00    -0.035 A 
HETATM    9  C   UNL     1      29.509  42.564  53.032  1.00  0.00     0.010 A 
HETATM   10  C   UNL     1      30.389  42.904  54.064  1.00  0.00     0.007 A 
HETATM   11  C   UNL     1      30.042  43.882  55.002  1.00  0.00    -0.059 A 
HETATM   12  C   UNL     1      28.802  44.521  54.887  1.00  0.00     0.007 A 
HETATM   13  C   UNL     1      27.924  44.184  53.855  1.00  0.00     0.010 A 
BRANCH  11  14
HETATM   14  C   UNL     1      31.001  44.270  56.098  1.00  0.00     0.034 C 
HETATM   15  C   UNL     1      31.413  43.068  56.935  1.00  0.00     0.010 C 
ENDBRANCH  11  14
ENDBRANCH   7   8
BRANCH   7  16
HETATM   16  C   UNL     1      27.505  41.371  51.277  1.00  0.00     0.005 C 
HETATM   17  C   UNL     1      26.157  40.652  51.127  1.00  0.00     0.012 C 
HETATM   18  C   UNL     1      28.237  41.330  49.928  1.00  0.00     0.012 C 
ENDBRANCH   7  16
ENDBRANCH   1   7
BRANCH   3  19
HETATM   19  N   UNL     1      24.774  46.015  50.488  1.00  0.00    -0.244 N 
HETATM   20  C   UNL     1      23.864  45.978  49.468  1.00  0.00     0.086 A 
HETATM   21  C   UNL     1      23.527  47.323  49.302  1.00  0.00     0.086 A 
HETATM   22  C   UNL     1      23.318  44.953  48.685  1.00  0.00     0.034 A 
HETATM   23  C   UNL     1      22.598  47.678  48.312  1.00  0.00     0.034 A 
HETATM   24  N   UNL     1      24.218  48.130  50.181  1.00  0.00    -0.240 NA
HETATM   25  C   UNL     1      22.043  46.670  47.516  1.00  0.00     0.002 A 
HETATM   26  C   UNL     1      22.398  45.332  47.701  1.00  0.00     0.002 A 
HETATM   27  C   UNL     1      24.970  47.304  50.880  1.00  0.00     0.234 A 
ENDBRANCH   3  19
TORSDOF 5
ENDMDL
MODEL 4
REMARK VINA RESULT:      -8.6      3.501      7.809
REMARK  5 active torsions:
REMARK  status: ('A' for Active; 'I' for Inactive)
REMARK    1  A    between atoms: C_2  and  C_3 
REMARK    2  A    between atoms: C_6  and  C_7 
REMARK    3  A    between atoms: C_7  and  N_8 
REMARK    4  A    between atoms: C_7  and  C_21 
REMARK       I    between atoms: N_8  and  C_9 
REMARK       I    between atoms: C_9  and  N_10 
REMARK    5  A    between atoms: N_10  and  N_11 
ROOT
HETATM    1  N   UNL     1      25.806  43.371  52.869  1.00  0.00    -0.333 N 
HETATM    2  C   UNL     1      26.504  43.890  53.910  1.00  0.00     0.335 C 
HETATM    3  N   UNL     1      27.687  44.491  53.608  1.00  0.00    -0.244 N 
HETATM    4  O   UNL     1      26.065  43.750  55.048  1.00  0.00    -0.246 OA
HETATM    5  H   UNL     1      24.935  42.953  53.169  1.00  0.00     0.165 HD
HETATM    6  H   UNL     1      27.737  44.992  52.736  1.00  0.00     0.192 HD
ENDROOT
BRANCH   1   7
HETATM    7  C   UNL     1      26.134  43.286  51.446  1.00  0.00     0.122 C 
BRANCH   7   8
HETATM    8  C   UNL     1      26.131  44.694  50.869  1.00  0.00    -0.035 A 
HETATM    9  C   UNL     1      25.108  45.591  51.208  1.00  0.00     0.010 A 
HETATM   10  C   UNL     1      25.101  46.891  50.696  1.00  0.00     0.007 A 
HETATM   11  C   UNL     1      26.110  47.319  49.826  1.00  0.00    -0.059 A 
HETATM   12  C   UNL     1      27.131  46.426  49.482  1.00  0.00     0.007 A 
HETATM   13  C   UNL     1      27.141  45.128  49.996  1.00  0.00     0.010 A 
BRANCH  11  14
HETATM   14  C   UNL     1      26.119  48.729  49.294  1.00  0.00     0.034 C 
HETATM   15  C   UNL     1      27.534  49.222  49.032  1.00  0.00     0.010 C 
ENDBRANCH  11  14
ENDBRANCH   7   8
BRANCH   7  16
HETATM   16  C   UNL     1      25.170  42.315  50.707  1.00  0.00     0.005 C 
HETATM   17  C   UNL     1      24.647  42.921  49.397  1.00  0.00     0.012 C 
HETATM   18  C   UNL     1      25.862  40.982  50.390  1.00  0.00     0.012 C 
ENDBRANCH   7  16
ENDBRANCH   1   7
BRANCH   3  19
HETATM   19  N   UNL     1      28.345  45.124  54.612  1.00  0.00    -0.244 N 
HETATM   20  C   UNL     1      29.378  44.578  55.322  1.00  0.00     0.086 A 
HETATM   21  C   UNL     1      29.544  45.482  56.374  1.00  0.00     0.086 A 
HETATM   22  C   UNL     1      30.159  43.425  55.177  1.00  0.00     0.034 A 
HETATM   23  C   UNL     1      30.537  45.237  57.335  1.00  0.00     0.034 A 
HETATM   24  N   UNL     1      28.638  46.518  56.299  1.00  0.00    -0.240 NA
HETATM   25  C   UNL     1      31.327  44.088  57.211  1.00  0.00     0.002 A 
HETATM   26  C   UNL     1      31.139  43.199  56.150  1.00  0.00     0.002 A 
HETATM   27  C   UNL     1      27.923  46.266  55.222  1.00  0.00     0.234 A 
ENDBRANCH   3  19
TORSDOF 5
ENDMDL
MODEL 5
REMARK VINA RESULT:      -8.4      1.113      1.748
REMARK  5 active torsions:
REMARK  status: ('A' for Active; 'I' for Inactive)
REMARK    1  A    between atoms: C_2  and  C_3 
REMARK    2  A    between atoms: C_6  and  C_7 
REMARK    3  A    between atoms: C_7  and  N_8 
REMARK    4  A    between atoms: C_7  and  C_21 
REMARK       I    between atoms: N_8  and  C_9 
REMARK       I    between atoms: C_9  and  N_10 
REMARK    5  A    between atoms: N_10  and  N_11 
ROOT
HETATM    1  N   UNL     1      27.145  42.382  51.890  1.00  0.00    -0.333 N 
HETATM    2  C   UNL     1      26.829  41.507  50.903  1.00  0.00     0.335 C 
HETATM    3  N   UNL     1      27.257  41.824  49.651  1.00  0.00    -0.244 N 
HETATM    4  O   UNL     1      26.147  40.524  51.178  1.00  0.00    -0.246 OA
HETATM    5  H   UNL     1      26.806  42.075  52.791  1.00  0.00     0.165 HD
HETATM    6  H   UNL     1      28.147  42.287  49.574  1.00  0.00     0.192 HD
ENDROOT
BRANCH   1   7
HETATM    7  C   UNL     1      27.832  43.673  51.839  1.00  0.00     0.122 C 
BRANCH   7   8
HETATM    8  C   UNL     1      28.631  43.841  53.123  1.00  0.00    -0.035 A 
HETATM    9  C   UNL     1      29.728  43.008  53.383  1.00  0.00     0.010 A 
HETATM   10  C   UNL     1      30.479  43.160  54.552  1.00  0.00     0.007 A 
HETATM   11  C   UNL     1      30.143  44.142  55.491  1.00  0.00    -0.059 A 
HETATM   12  C   UNL     1      29.047  44.975  55.237  1.00  0.00     0.007 A 
HETATM   13  C   UNL     1      28.298  44.824  54.068  1.00  0.00     0.010 A 
BRANCH  11  14
HETATM   14  C   UNL     1      30.967  44.327  56.738  1.00  0.00     0.034 C 
HETATM   15  C   UNL     1      31.846  43.116  57.016  1.00  0.00     0.010 C 
ENDBRANCH  11  14
ENDBRANCH   7   8
BRANCH   7  16
HETATM   16  C   UNL     1      26.828  44.832  51.582  1.00  0.00     0.005 C 
HETATM   17  C   UNL     1      26.844  45.283  50.114  1.00  0.00     0.012 C 
HETATM   18  C   UNL     1      25.397  44.418  51.952  1.00  0.00     0.012 C 
ENDBRANCH   7  16
ENDBRANCH   1   7
BRANCH   3  19
HETATM   19  N   UNL     1      27.060  40.908  48.669  1.00  0.00    -0.244 N 
HETATM   20  C   UNL     1      27.853  39.814  48.464  1.00  0.00     0.086 A 
HETATM   21  C   UNL     1      27.415  39.337  47.227  1.00  0.00     0.086 A 
HETATM   22  C   UNL     1      28.882  39.205  49.193  1.00  0.00     0.034 A 
HETATM   23  C   UNL     1      28.022  38.198  46.678  1.00  0.00     0.034 A 
HETATM   24  N   UNL     1      26.408  40.125  46.710  1.00  0.00    -0.240 NA
HETATM   25  C   UNL     1      29.056  37.576  47.388  1.00  0.00     0.002 A 
HETATM   26  C   UNL     1      29.477  38.073  48.624  1.00  0.00     0.002 A 
HETATM   27  C   UNL     1      26.224  41.072  47.606  1.00  0.00     0.234 A 
ENDBRANCH   3  19
TORSDOF 5
ENDMDL
MODEL 6
REMARK VINA RESULT:      -8.1      4.131      8.101
REMARK  5 active torsions:
REMARK  status: ('A' for Active; 'I' for Inactive)
REMARK    1  A    between atoms: C_2  and  C_3 
REMARK    2  A    between atoms: C_6  and  C_7 
REMARK    3  A    between atoms: C_7  and  N_8 
REMARK    4  A    between atoms: C_7  and  C_21 
REMARK       I    between atoms: N_8  and  C_9 
REMARK       I    between atoms: C_9  and  N_10 
REMARK    5  A    between atoms: N_10  and  N_11 
ROOT
HETATM    1  N   UNL     1      24.292  44.947  51.389  1.00  0.00    -0.333 N 
HETATM    2  C   UNL     1      25.142  44.924  52.446  1.00  0.00     0.335 C 
HETATM    3  N   UNL     1      26.463  45.086  52.166  1.00  0.00    -0.244 N 
HETATM    4  O   UNL     1      24.688  44.713  53.567  1.00  0.00    -0.246 OA
HETATM    5  H   UNL     1      23.329  44.833  51.675  1.00  0.00     0.165 HD
HETATM    6  H   UNL     1      26.699  45.711  51.413  1.00  0.00     0.192 HD
ENDROOT
BRANCH   1   7
HETATM    7  C   UNL     1      24.555  45.060  49.954  1.00  0.00     0.122 C 
BRANCH   7   8
HETATM    8  C   UNL     1      24.303  46.501  49.533  1.00  0.00    -0.035 A 
HETATM    9  C   UNL     1      23.063  46.869  48.992  1.00  0.00     0.010 A 
HETATM   10  C   UNL     1      22.814  48.191  48.614  1.00  0.00     0.007 A 
HETATM   11  C   UNL     1      23.802  49.171  48.759  1.00  0.00    -0.059 A 
HETATM   12  C   UNL     1      25.042  48.808  49.296  1.00  0.00     0.007 A 
HETATM   13  C   UNL     1      25.291  47.488  49.676  1.00  0.00     0.010 A 
BRANCH  11  14
HETATM   14  C   UNL     1      23.526  50.603  48.377  1.00  0.00     0.034 C 
HETATM   15  C   UNL     1      22.061  50.964  48.574  1.00  0.00     0.010 C 
ENDBRANCH  11  14
ENDBRANCH   7   8
BRANCH   7  16
HETATM   16  C   UNL     1      23.717  44.027  49.149  1.00  0.00     0.005 C 
HETATM   17  C   UNL     1      24.589  42.888  48.604  1.00  0.00     0.012 C 
HETATM   18  C   UNL     1      22.603  43.422  50.014  1.00  0.00     0.012 C 
ENDBRANCH   7  16
ENDBRANCH   1   7
BRANCH   3  19
HETATM   19  N   UNL     1      27.320  45.188  53.214  1.00  0.00    -0.244 N 
HETATM   20  C   UNL     1      28.388  44.361  53.420  1.00  0.00     0.086 A 
HETATM   21  C   UNL     1      28.794  44.692  54.715  1.00  0.00     0.086 A 
HETATM   22  C   UNL     1      29.025  43.381  52.650  1.00  0.00     0.034 A 
HETATM   23  C   UNL     1      29.889  44.023  55.281  1.00  0.00     0.034 A 
HETATM   24  N   UNL     1      27.990  45.670  55.262  1.00  0.00    -0.240 NA
HETATM   25  C   UNL     1      30.539  43.036  54.530  1.00  0.00     0.002 A 
HETATM   26  C   UNL     1      30.113  42.723  53.237  1.00  0.00     0.002 A 
HETATM   27  C   UNL     1      27.103  45.942  54.327  1.00  0.00     0.234 A 
ENDBRANCH   3  19
TORSDOF 5
ENDMDL
MODEL 7
REMARK VINA RESULT:      -7.8      4.307      7.699
REMARK  5 active torsions:
REMARK  status: ('A' for Active; 'I' for Inactive)
REMARK    1  A    between atoms: C_2  and  C_3 
REMARK    2  A    between atoms: C_6  and  C_7 
REMARK    3  A    between atoms: C_7  and  N_8 
REMARK    4  A    between atoms: C_7  and  C_21 
REMARK       I    between atoms: N_8  and  C_9 
REMARK       I    between atoms: C_9  and  N_10 
REMARK    5  A    between atoms: N_10  and  N_11 
ROOT
HETATM    1  N   UNL     1      26.778  46.882  53.583  1.00  0.00    -0.333 N 
HETATM    2  C   UNL     1      27.661  46.949  54.610  1.00  0.00     0.335 C 
HETATM    3  N   UNL     1      27.786  45.832  55.376  1.00  0.00    -0.244 N 
HETATM    4  O   UNL     1      28.250  48.006  54.817  1.00  0.00    -0.246 OA
HETATM    5  H   UNL     1      26.748  47.742  53.053  1.00  0.00     0.165 HD
HETATM    6  H   UNL     1      27.704  44.944  54.909  1.00  0.00     0.192 HD
ENDROOT
BRANCH   1   7
HETATM    7  C   UNL     1      25.865  45.814  53.176  1.00  0.00     0.122 C 
BRANCH   7   8
HETATM    8  C   UNL     1      26.667  44.529  53.026  1.00  0.00    -0.035 A 
HETATM    9  C   UNL     1      26.508  43.489  53.952  1.00  0.00     0.010 A 
HETATM   10  C   UNL     1      27.228  42.299  53.820  1.00  0.00     0.007 A 
HETATM   11  C   UNL     1      28.130  42.127  52.764  1.00  0.00    -0.059 A 
HETATM   12  C   UNL     1      28.295  43.164  51.838  1.00  0.00     0.007 A 
HETATM   13  C   UNL     1      27.574  44.352  51.969  1.00  0.00     0.010 A 
BRANCH  11  14
HETATM   14  C   UNL     1      28.887  40.834  52.603  1.00  0.00     0.034 C 
HETATM   15  C   UNL     1      28.605  40.181  51.258  1.00  0.00     0.010 C 
ENDBRANCH  11  14
ENDBRANCH   7   8
BRANCH   7  16
HETATM   16  C   UNL     1      25.084  46.205  51.890  1.00  0.00     0.005 C 
HETATM   17  C   UNL     1      25.927  47.086  50.958  1.00  0.00     0.012 C 
HETATM   18  C   UNL     1      24.634  44.959  51.113  1.00  0.00     0.012 C 
ENDBRANCH   7  16
ENDBRANCH   1   7
BRANCH   3  19
HETATM   19  N   UNL     1      28.749  45.830  56.333  1.00  0.00    -0.244 N 
HETATM   20  C   UNL     1      29.799  44.955  56.369  1.00  0.00     0.086 A 
HETATM   21  C   UNL     1      30.348  45.179  57.634  1.00  0.00     0.086 A 
HETATM   22  C   UNL     1      30.313  44.011  55.471  1.00  0.00     0.034 A 
HETATM   23  C   UNL     1      31.468  44.434  58.035  1.00  0.00     0.034 A 
HETATM   24  N   UNL     1      29.645  46.141  58.327  1.00  0.00    -0.240 NA
HETATM   25  C   UNL     1      31.996  43.483  57.154  1.00  0.00     0.002 A 
HETATM   26  C   UNL     1      31.427  43.277  55.896  1.00  0.00     0.002 A 
HETATM   27  C   UNL     1      28.679  46.509  57.511  1.00  0.00     0.234 A 
ENDBRANCH   3  19
TORSDOF 5
ENDMDL
MODEL 8
REMARK VINA RESULT:      -7.6      2.432      3.189
REMARK  5 active torsions:
REMARK  status: ('A' for Active; 'I' for Inactive)
REMARK    1  A    between atoms: C_2  and  C_3 
REMARK    2  A    between atoms: C_6  and  C_7 
REMARK    3  A    between atoms: C_7  and  N_8 
REMARK    4  A    between atoms: C_7  and  C_21 
REMARK       I    between atoms: N_8  and  C_9 
REMARK       I    between atoms: C_9  and  N_10 
REMARK    5  A    between atoms: N_10  and  N_11 
ROOT
HETATM    1  N   UNL     1      26.903  42.281  52.294  1.00  0.00    -0.333 N 
HETATM    2  C   UNL     1      26.619  41.659  51.123  1.00  0.00     0.335 C 
HETATM    3  N   UNL     1      26.433  42.462  50.040  1.00  0.00    -0.244 N 
HETATM    4  O   UNL     1      26.499  40.438  51.113  1.00  0.00    -0.246 OA
HETATM    5  H   UNL     1      27.040  41.622  53.049  1.00  0.00     0.165 HD
HETATM    6  H   UNL     1      26.996  43.294  49.984  1.00  0.00     0.192 HD
ENDROOT
BRANCH   1   7
HETATM    7  C   UNL     1      26.989  43.703  52.625  1.00  0.00     0.122 C 
BRANCH   7   8
HETATM    8  C   UNL     1      28.077  43.886  53.674  1.00  0.00    -0.035 A 
HETATM    9  C   UNL     1      28.249  45.128  54.300  1.00  0.00     0.010 A 
HETATM   10  C   UNL     1      29.235  45.306  55.274  1.00  0.00     0.007 A 
HETATM   11  C   UNL     1      30.077  44.249  55.636  1.00  0.00    -0.059 A 
HETATM   12  C   UNL     1      29.911  43.007  55.012  1.00  0.00     0.007 A 
HETATM   13  C   UNL     1      28.925  42.828  54.040  1.00  0.00     0.010 A 
BRANCH  11  14
HETATM   14  C   UNL     1      31.123  44.430  56.706  1.00  0.00     0.034 C 
HETATM   15  C   UNL     1      31.759  43.106  57.101  1.00  0.00     0.010 C 
ENDBRANCH  11  14
ENDBRANCH   7   8
BRANCH   7  16
HETATM   16  C   UNL     1      25.607  44.259  53.069  1.00  0.00     0.005 C 
HETATM   17  C   UNL     1      25.381  44.084  54.578  1.00  0.00     0.012 C 
HETATM   18  C   UNL     1      25.471  45.749  52.723  1.00  0.00     0.012 C 
ENDBRANCH   7  16
ENDBRANCH   1   7
BRANCH   3  19
HETATM   19  N   UNL     1      26.268  41.862  48.834  1.00  0.00    -0.244 N 
HETATM   20  C   UNL     1      25.064  41.449  48.335  1.00  0.00     0.086 A 
HETATM   21  C   UNL     1      25.431  40.690  47.223  1.00  0.00     0.086 A 
HETATM   22  C   UNL     1      23.732  41.639  48.723  1.00  0.00     0.034 A 
HETATM   23  C   UNL     1      24.430  40.085  46.447  1.00  0.00     0.034 A 
HETATM   24  N   UNL     1      26.801  40.642  47.072  1.00  0.00    -0.240 NA
HETATM   25  C   UNL     1      23.091  40.258  46.819  1.00  0.00     0.002 A 
HETATM   26  C   UNL     1      22.751  41.022  47.937  1.00  0.00     0.002 A 
HETATM   27  C   UNL     1      27.276  41.358  48.070  1.00  0.00     0.234 A 
ENDBRANCH   3  19
TORSDOF 5
ENDMDL
MODEL 9
REMARK VINA RESULT:      -7.5      2.963      7.851
REMARK  5 active torsions:
REMARK  status: ('A' for Active; 'I' for Inactive)
REMARK    1  A    between atoms: C_2  and  C_3 
REMARK    2  A    between atoms: C_6  and  C_7 
REMARK    3  A    between atoms: C_7  and  N_8 
REMARK    4  A    between atoms: C_7  and  C_21 
REMARK       I    between atoms: N_8  and  C_9 
REMARK       I    between atoms: C_9  and  N_10 
REMARK    5  A    between atoms: N_10  and  N_11 
ROOT
HETATM    1  N   UNL     1      26.175  43.900  49.005  1.00  0.00    -0.333 N 
HETATM    2  C   UNL     1      26.382  44.927  49.866  1.00  0.00     0.335 C 
HETATM    3  N   UNL     1      25.737  44.855  51.062  1.00  0.00    -0.244 N 
HETATM    4  O   UNL     1      27.086  45.867  49.510  1.00  0.00    -0.246 OA
HETATM    5  H   UNL     1      26.695  44.016  48.146  1.00  0.00     0.165 HD
HETATM    6  H   UNL     1      25.625  43.941  51.469  1.00  0.00     0.192 HD
ENDROOT
BRANCH   1   7
HETATM    7  C   UNL     1      25.310  42.724  49.109  1.00  0.00     0.122 C 
BRANCH   7   8
HETATM    8  C   UNL     1      26.185  41.480  49.059  1.00  0.00    -0.035 A 
HETATM    9  C   UNL     1      26.058  40.490  50.043  1.00  0.00     0.010 A 
HETATM   10  C   UNL     1      26.846  39.336  50.001  1.00  0.00     0.007 A 
HETATM   11  C   UNL     1      27.784  39.152  48.979  1.00  0.00    -0.059 A 
HETATM   12  C   UNL     1      27.916  40.139  47.996  1.00  0.00     0.007 A 
HETATM   13  C   UNL     1      27.128  41.290  48.036  1.00  0.00     0.010 A 
BRANCH  11  14
HETATM   14  C   UNL     1      28.615  37.896  48.916  1.00  0.00     0.034 C 
HETATM   15  C   UNL     1      30.082  38.177  49.206  1.00  0.00     0.010 C 
ENDBRANCH  11  14
ENDBRANCH   7   8
BRANCH   7  16
HETATM   16  C   UNL     1      24.204  42.744  48.017  1.00  0.00     0.005 C 
HETATM   17  C   UNL     1      23.193  41.606  48.211  1.00  0.00     0.012 C 
HETATM   18  C   UNL     1      23.447  44.079  48.019  1.00  0.00     0.012 C 
ENDBRANCH   7  16
ENDBRANCH   1   7
BRANCH   3  19
HETATM   19  N   UNL     1      26.022  45.806  51.988  1.00  0.00    -0.244 N 
HETATM   20  C   UNL     1      26.865  45.622  53.048  1.00  0.00     0.086 A 
HETATM   21  C   UNL     1      26.639  46.759  53.827  1.00  0.00     0.086 A 
HETATM   22  C   UNL     1      27.769  44.616  53.412  1.00  0.00     0.034 A 
HETATM   23  C   UNL     1      27.345  46.915  55.030  1.00  0.00     0.034 A 
HETATM   24  N   UNL     1      25.689  47.581  53.258  1.00  0.00    -0.240 NA
HETATM   25  C   UNL     1      28.250  45.920  55.415  1.00  0.00     0.002 A 
HETATM   26  C   UNL     1      28.457  44.792  54.619  1.00  0.00     0.002 A 
HETATM   27  C   UNL     1      25.332  46.969  52.148  1.00  0.00     0.234 A 
ENDBRANCH   3  19
TORSDOF 5
ENDMDL
MODEL 10
REMARK VINA RESULT:      -7.5     16.270     18.352
REMARK  5 active torsions:
REMARK  status: ('A' for Active; 'I' for Inactive)
REMARK    1  A    between atoms: C_2  and  C_3 
REMARK    2  A    between atoms: C_6  and  C_7 
REMARK    3  A    between atoms: C_7  and  N_8 
REMARK    4  A    between atoms: C_7  and  C_21 
REMARK       I    between atoms: N_8  and  C_9 
REMARK       I    between atoms: C_9  and  N_10 
REMARK    5  A    between atoms: N_10  and  N_11 
ROOT
HETATM    1  N   UNL     1      40.242  45.882  63.953  1.00  0.00    -0.333 N 
HETATM    2  C   UNL     1      39.442  44.797  63.802  1.00  0.00     0.335 C 
HETATM    3  N   UNL     1      39.106  44.129  64.938  1.00  0.00    -0.244 N 
HETATM    4  O   UNL     1      39.113  44.456  62.670  1.00  0.00    -0.246 OA
HETATM    5  H   UNL     1      40.438  46.333  63.070  1.00  0.00     0.165 HD
HETATM    6  H   UNL     1      38.967  44.679  65.770  1.00  0.00     0.192 HD
ENDROOT
BRANCH   1   7
HETATM    7  C   UNL     1      40.875  46.444  65.146  1.00  0.00     0.122 C 
BRANCH   7   8
HETATM    8  C   UNL     1      40.008  47.587  65.654  1.00  0.00    -0.035 A 
HETATM    9  C   UNL     1      39.910  48.776  64.918  1.00  0.00     0.010 A 
HETATM   10  C   UNL     1      39.107  49.829  65.366  1.00  0.00     0.007 A 
HETATM   11  C   UNL     1      38.393  49.719  66.565  1.00  0.00    -0.059 A 
HETATM   12  C   UNL     1      38.491  48.535  67.305  1.00  0.00     0.007 A 
HETATM   13  C   UNL     1      39.290  47.483  66.856  1.00  0.00     0.010 A 
BRANCH  11  14
HETATM   14  C   UNL     1      37.505  50.842  67.036  1.00  0.00     0.034 C 
HETATM   15  C   UNL     1      37.748  52.120  66.247  1.00  0.00     0.010 C 
ENDBRANCH  11  14
ENDBRANCH   7   8
BRANCH   7  16
HETATM   16  C   UNL     1      42.343  46.867  64.855  1.00  0.00     0.005 C 
HETATM   17  C   UNL     1      43.103  47.208  66.144  1.00  0.00     0.012 C 
HETATM   18  C   UNL     1      43.103  45.756  64.116  1.00  0.00     0.012 C 
ENDBRANCH   7  16
ENDBRANCH   1   7
BRANCH   3  19
HETATM   19  N   UNL     1      38.210  43.114  64.829  1.00  0.00    -0.244 N 
HETATM   20  C   UNL     1      36.896  43.203  65.196  1.00  0.00     0.086 A 
HETATM   21  C   UNL     1      36.466  41.875  65.137  1.00  0.00     0.086 A 
HETATM   22  C   UNL     1      36.058  44.260  65.571  1.00  0.00     0.034 A 
HETATM   23  C   UNL     1      35.135  41.573  65.463  1.00  0.00     0.034 A 
HETATM   24  N   UNL     1      37.488  41.029  64.762  1.00  0.00    -0.240 NA
HETATM   25  C   UNL     1      34.281  42.614  65.845  1.00  0.00     0.002 A 
HETATM   26  C   UNL     1      34.736  43.932  65.897  1.00  0.00     0.002 A 
HETATM   27  C   UNL     1      38.532  41.813  64.590  1.00  0.00     0.234 A 
ENDBRANCH   3  19
TORSDOF 5
ENDMDL
