MODEL 1
REMARK VINA RESULT:      -7.1      0.000      0.000
REMARK  9 active torsions:
REMARK  status: ('A' for Active; 'I' for Inactive)
REMARK    1  A    between atoms: C_2  and  O_3 
REMARK    2  A    between atoms: O_3  and  C_4 
REMARK    3  A    between atoms: C_4  and  C_5 
REMARK    4  A    between atoms: C_11  and  O_12 
REMARK    5  A    between atoms: C_13  and  C_14 
REMARK    6  A    between atoms: C_14  and  N_15 
REMARK    7  A    between atoms: N_19  and  C_20 
REMARK    8  A    between atoms: C_26  and  C_27 
REMARK    9  A    between atoms: C_27  and  N_28 
ROOT
HETATM    1  C   UNL     1      22.242  46.490  48.526  1.00  0.00     0.077 A 
HETATM    2  C   UNL     1      22.057  45.120  48.042  1.00  0.00     0.020 A 
HETATM    3  C   UNL     1      23.101  44.370  48.602  1.00  0.00     0.053 A 
HETATM    4  C   UNL     1      23.307  43.009  48.303  1.00  0.00     0.053 A 
HETATM    5  C   UNL     1      22.499  42.406  47.354  1.00  0.00     0.047 A 
HETATM    6 BR   UNL     1      22.842  40.606  46.876  1.00  0.00    -0.048 Br
HETATM    7  C   UNL     1      21.453  43.115  46.773  1.00  0.00     0.092 A 
HETATM    8  C   UNL     1      21.139  44.451  47.140  1.00  0.00     0.016 A 
HETATM    9  N   UNL     1      23.812  45.181  49.476  1.00  0.00    -0.312 N 
HETATM   10  C   UNL     1      23.332  46.483  49.415  1.00  0.00     0.060 A 
ENDROOT
BRANCH  10  11
HETATM   11  C   UNL     1      24.096  47.611  50.060  1.00  0.00     0.293 C 
BRANCH  11  12
HETATM   12  N   UNL     1      25.203  48.189  49.222  1.00  0.00    -0.062 N 
HETATM   13  H   UNL     1      25.303  47.560  48.415  1.00  0.00     0.280 HD
HETATM   14  C   UNL     1      24.947  49.595  48.709  1.00  0.00     0.261 C 
HETATM   15  C   UNL     1      26.131  50.045  47.846  1.00  0.00     0.195 C 
HETATM   16  O   UNL     1      27.351  49.997  48.590  1.00  0.00    -0.388 OA
HETATM   17  C   UNL     1      27.650  48.675  49.050  1.00  0.00     0.195 C 
HETATM   18  C   UNL     1      26.540  48.152  49.968  1.00  0.00     0.261 C 
ENDBRANCH  11  12
ENDBRANCH  10  11
BRANCH   1  19
HETATM   19  C   UNL     1      21.499  47.684  48.082  1.00  0.00     0.296 C 
HETATM   20  O   UNL     1      21.960  48.505  47.305  1.00  0.00    -0.259 OA
BRANCH  19  21
HETATM   21  O   UNL     1      20.245  47.786  48.622  1.00  0.00    -0.318 OA
BRANCH  21  22
HETATM   22  C   UNL     1      20.063  48.875  49.554  1.00  0.00     0.174 C 
HETATM   23  C   UNL     1      18.892  48.608  50.485  1.00  0.00     0.034 C 
ENDBRANCH  21  22
ENDBRANCH  19  21
ENDBRANCH   1  19
BRANCH   9  24
HETATM   24  C   UNL     1      24.925  44.744  50.238  1.00  0.00     0.040 A 
HETATM   25  C   UNL     1      26.181  44.643  49.630  1.00  0.00     0.030 A 
HETATM   26  C   UNL     1      27.274  44.220  50.387  1.00  0.00     0.002 A 
HETATM   27  C   UNL     1      27.109  43.896  51.734  1.00  0.00     0.000 A 
HETATM   28  C   UNL     1      25.851  43.986  52.331  1.00  0.00     0.002 A 
HETATM   29  C   UNL     1      24.751  44.409  51.586  1.00  0.00     0.030 A 
ENDBRANCH   9  24
BRANCH   8  30
HETATM   30  C   UNL     1      19.926  45.136  46.522  1.00  0.00     0.276 C 
BRANCH  30  31
HETATM   31  N   UNL     1      18.553  44.640  46.926  1.00  0.00    -0.075 N 
HETATM   32  H   UNL     1      18.737  43.742  47.407  1.00  0.00     0.279 HD
HETATM   33  C   UNL     1      17.864  45.519  47.923  1.00  0.00     0.269 C 
HETATM   34  C   UNL     1      17.683  44.339  45.745  1.00  0.00     0.269 C 
ENDBRANCH  30  31
ENDBRANCH   8  30
BRANCH   7  35
HETATM   35  O   UNL     1      20.691  42.504  45.799  1.00  0.00    -0.359 OA
HETATM   36  H   UNL     1      20.009  41.967  46.264  1.00  0.00     0.218 HD
ENDBRANCH   7  35
TORSDOF 9
ENDMDL
MODEL 2
REMARK VINA RESULT:      -7.0      2.899      5.095
REMARK  9 active torsions:
REMARK  status: ('A' for Active; 'I' for Inactive)
REMARK    1  A    between atoms: C_2  and  O_3 
REMARK    2  A    between atoms: O_3  and  C_4 
REMARK    3  A    between atoms: C_4  and  C_5 
REMARK    4  A    between atoms: C_11  and  O_12 
REMARK    5  A    between atoms: C_13  and  C_14 
REMARK    6  A    between atoms: C_14  and  N_15 
REMARK    7  A    between atoms: N_19  and  C_20 
REMARK    8  A    between atoms: C_26  and  C_27 
REMARK    9  A    between atoms: C_27  and  N_28 
ROOT
HETATM    1  C   UNL     1      25.005  45.852  50.015  1.00  0.00     0.077 A 
HETATM    2  C   UNL     1      23.894  45.385  49.182  1.00  0.00     0.020 A 
HETATM    3  C   UNL     1      24.190  44.054  48.857  1.00  0.00     0.053 A 
HETATM    4  C   UNL     1      23.386  43.283  47.995  1.00  0.00     0.053 A 
HETATM    5  C   UNL     1      22.305  43.887  47.375  1.00  0.00     0.047 A 
HETATM    6 BR   UNL     1      21.284  42.880  46.137  1.00  0.00    -0.048 Br
HETATM    7  C   UNL     1      21.978  45.206  47.669  1.00  0.00     0.092 A 
HETATM    8  C   UNL     1      22.693  45.976  48.625  1.00  0.00     0.016 A 
HETATM    9  N   UNL     1      25.336  43.672  49.541  1.00  0.00    -0.312 N 
HETATM   10  C   UNL     1      25.870  44.761  50.219  1.00  0.00     0.060 A 
ENDROOT
BRANCH  10  11
HETATM   11  C   UNL     1      27.251  44.687  50.820  1.00  0.00     0.293 C 
BRANCH  11  12
HETATM   12  N   UNL     1      27.288  44.436  52.301  1.00  0.00    -0.062 N 
HETATM   13  H   UNL     1      27.732  45.265  52.716  1.00  0.00     0.280 HD
HETATM   14  C   UNL     1      25.928  44.243  52.949  1.00  0.00     0.261 C 
HETATM   15  C   UNL     1      26.108  44.033  54.457  1.00  0.00     0.195 C 
HETATM   16  O   UNL     1      26.954  42.909  54.717  1.00  0.00    -0.388 OA
HETATM   17  C   UNL     1      28.261  43.078  54.162  1.00  0.00     0.195 C 
HETATM   18  C   UNL     1      28.190  43.246  52.640  1.00  0.00     0.261 C 
ENDBRANCH  11  12
ENDBRANCH  10  11
BRANCH   1  19
HETATM   19  C   UNL     1      25.241  47.235  50.465  1.00  0.00     0.296 C 
HETATM   20  O   UNL     1      25.056  47.602  51.615  1.00  0.00    -0.259 OA
BRANCH  19  21
HETATM   21  O   UNL     1      25.685  48.071  49.476  1.00  0.00    -0.318 OA
BRANCH  21  22
HETATM   22  C   UNL     1      27.105  48.340  49.488  1.00  0.00     0.174 C 
HETATM   23  C   UNL     1      27.414  49.675  48.832  1.00  0.00     0.034 C 
ENDBRANCH  21  22
ENDBRANCH  19  21
ENDBRANCH   1  19
BRANCH   9  24
HETATM   24  C   UNL     1      25.914  42.380  49.468  1.00  0.00     0.040 A 
HETATM   25  C   UNL     1      25.628  41.439  50.463  1.00  0.00     0.030 A 
HETATM   26  C   UNL     1      26.192  40.166  50.382  1.00  0.00     0.002 A 
HETATM   27  C   UNL     1      27.039  39.842  49.322  1.00  0.00     0.000 A 
HETATM   28  C   UNL     1      27.332  40.789  48.340  1.00  0.00     0.002 A 
HETATM   29  C   UNL     1      26.772  42.065  48.409  1.00  0.00     0.030 A 
ENDBRANCH   9  24
BRANCH   8  30
HETATM   30  C   UNL     1      22.224  47.388  48.956  1.00  0.00     0.276 C 
BRANCH  30  31
HETATM   31  N   UNL     1      22.109  48.379  47.816  1.00  0.00    -0.075 N 
HETATM   32  H   UNL     1      22.288  47.815  46.967  1.00  0.00     0.279 HD
HETATM   33  C   UNL     1      20.737  48.957  47.657  1.00  0.00     0.269 C 
HETATM   34  C   UNL     1      23.164  49.440  47.872  1.00  0.00     0.269 C 
ENDBRANCH  30  31
ENDBRANCH   8  30
BRANCH   7  35
HETATM   35  O   UNL     1      20.922  45.796  47.005  1.00  0.00    -0.359 OA
HETATM   36  H   UNL     1      21.146  45.787  46.046  1.00  0.00     0.218 HD
ENDBRANCH   7  35
TORSDOF 9
ENDMDL
MODEL 3
REMARK VINA RESULT:      -6.9      2.954      7.014
REMARK  9 active torsions:
REMARK  status: ('A' for Active; 'I' for Inactive)
REMARK    1  A    between atoms: C_2  and  O_3 
REMARK    2  A    between atoms: O_3  and  C_4 
REMARK    3  A    between atoms: C_4  and  C_5 
REMARK    4  A    between atoms: C_11  and  O_12 
REMARK    5  A    between atoms: C_13  and  C_14 
REMARK    6  A    between atoms: C_14  and  N_15 
REMARK    7  A    between atoms: N_19  and  C_20 
REMARK    8  A    between atoms: C_26  and  C_27 
REMARK    9  A    between atoms: C_27  and  N_28 
ROOT
HETATM    1  C   UNL     1      23.007  44.755  48.576  1.00  0.00     0.077 A 
HETATM    2  C   UNL     1      23.797  45.006  49.784  1.00  0.00     0.020 A 
HETATM    3  C   UNL     1      23.856  46.400  49.922  1.00  0.00     0.053 A 
HETATM    4  C   UNL     1      24.603  47.034  50.934  1.00  0.00     0.053 A 
HETATM    5  C   UNL     1      25.379  46.256  51.775  1.00  0.00     0.047 A 
HETATM    6 BR   UNL     1      26.464  47.115  53.069  1.00  0.00    -0.048 Br
HETATM    7  C   UNL     1      25.351  44.870  51.670  1.00  0.00     0.092 A 
HETATM    8  C   UNL     1      24.517  44.190  50.743  1.00  0.00     0.016 A 
HETATM    9  N   UNL     1      23.053  46.978  48.948  1.00  0.00    -0.312 N 
HETATM   10  C   UNL     1      22.559  45.999  48.095  1.00  0.00     0.060 A 
ENDROOT
BRANCH  10  11
HETATM   11  C   UNL     1      21.883  46.380  46.803  1.00  0.00     0.293 C 
BRANCH  11  12
HETATM   12  N   UNL     1      20.412  46.078  46.742  1.00  0.00    -0.062 N 
HETATM   13  H   UNL     1      19.973  46.902  46.311  1.00  0.00     0.280 HD
HETATM   14  C   UNL     1      20.046  44.853  45.922  1.00  0.00     0.261 C 
HETATM   15  C   UNL     1      18.522  44.683  45.915  1.00  0.00     0.195 C 
HETATM   16  O   UNL     1      18.016  44.566  47.248  1.00  0.00    -0.388 OA
HETATM   17  C   UNL     1      18.302  45.725  48.036  1.00  0.00     0.195 C 
HETATM   18  C   UNL     1      19.813  45.953  48.146  1.00  0.00     0.261 C 
ENDBRANCH  11  12
ENDBRANCH  10  11
BRANCH   1  19
HETATM   19  C   UNL     1      22.806  43.452  47.916  1.00  0.00     0.296 C 
HETATM   20  O   UNL     1      21.907  42.684  48.216  1.00  0.00    -0.259 OA
BRANCH  19  21
HETATM   21  O   UNL     1      23.722  43.184  46.934  1.00  0.00    -0.318 OA
BRANCH  21  22
HETATM   22  C   UNL     1      23.164  42.818  45.653  1.00  0.00     0.174 C 
HETATM   23  C   UNL     1      23.513  43.845  44.590  1.00  0.00     0.034 C 
ENDBRANCH  21  22
ENDBRANCH  19  21
ENDBRANCH   1  19
BRANCH   9  24
HETATM   24  C   UNL     1      22.857  48.375  48.806  1.00  0.00     0.040 A 
HETATM   25  C   UNL     1      23.851  49.154  48.203  1.00  0.00     0.030 A 
HETATM   26  C   UNL     1      23.649  50.526  48.059  1.00  0.00     0.002 A 
HETATM   27  C   UNL     1      22.470  51.113  48.518  1.00  0.00     0.000 A 
HETATM   28  C   UNL     1      21.488  50.333  49.131  1.00  0.00     0.002 A 
HETATM   29  C   UNL     1      21.677  48.959  49.280  1.00  0.00     0.030 A 
ENDBRANCH   9  24
BRANCH   8  30
HETATM   30  C   UNL     1      24.476  42.667  50.743  1.00  0.00     0.276 C 
BRANCH  30  31
HETATM   31  N   UNL     1      25.565  41.931  49.989  1.00  0.00    -0.075 N 
HETATM   32  H   UNL     1      25.054  41.366  49.289  1.00  0.00     0.279 HD
HETATM   33  C   UNL     1      26.478  42.833  49.218  1.00  0.00     0.269 C 
HETATM   34  C   UNL     1      26.320  40.978  50.862  1.00  0.00     0.269 C 
ENDBRANCH  30  31
ENDBRANCH   8  30
BRANCH   7  35
HETATM   35  O   UNL     1      26.167  44.121  52.493  1.00  0.00    -0.359 OA
HETATM   36  H   UNL     1      25.630  43.873  53.280  1.00  0.00     0.218 HD
ENDBRANCH   7  35
TORSDOF 9
ENDMDL
MODEL 4
REMARK VINA RESULT:      -6.8      2.579      4.711
REMARK  9 active torsions:
REMARK  status: ('A' for Active; 'I' for Inactive)
REMARK    1  A    between atoms: C_2  and  O_3 
REMARK    2  A    between atoms: O_3  and  C_4 
REMARK    3  A    between atoms: C_4  and  C_5 
REMARK    4  A    between atoms: C_11  and  O_12 
REMARK    5  A    between atoms: C_13  and  C_14 
REMARK    6  A    between atoms: C_14  and  N_15 
REMARK    7  A    between atoms: N_19  and  C_20 
REMARK    8  A    between atoms: C_26  and  C_27 
REMARK    9  A    between atoms: C_27  and  N_28 
ROOT
HETATM    1  C   UNL     1      22.802  47.934  48.763  1.00  0.00     0.077 A 
HETATM    2  C   UNL     1      21.454  47.615  48.285  1.00  0.00     0.020 A 
HETATM    3  C   UNL     1      21.406  46.218  48.176  1.00  0.00     0.053 A 
HETATM    4  C   UNL     1      20.285  45.533  47.667  1.00  0.00     0.053 A 
HETATM    5  C   UNL     1      19.221  46.269  47.175  1.00  0.00     0.047 A 
HETATM    6 BR   UNL     1      17.759  45.350  46.396  1.00  0.00    -0.048 Br
HETATM    7  C   UNL     1      19.230  47.656  47.263  1.00  0.00     0.092 A 
HETATM    8  C   UNL     1      20.288  48.376  47.881  1.00  0.00     0.016 A 
HETATM    9  N   UNL     1      22.590  45.691  48.672  1.00  0.00    -0.312 N 
HETATM   10  C   UNL     1      23.468  46.717  48.998  1.00  0.00     0.060 A 
ENDROOT
BRANCH  10  11
HETATM   11  C   UNL     1      24.914  46.418  49.304  1.00  0.00     0.293 C 
BRANCH  11  12
HETATM   12  N   UNL     1      25.201  46.076  50.739  1.00  0.00    -0.062 N 
HETATM   13  H   UNL     1      24.287  45.896  51.175  1.00  0.00     0.280 HD
HETATM   14  C   UNL     1      26.080  44.854  50.940  1.00  0.00     0.261 C 
HETATM   15  C   UNL     1      26.263  44.599  52.440  1.00  0.00     0.195 C 
HETATM   16  O   UNL     1      26.835  45.740  53.085  1.00  0.00    -0.388 OA
HETATM   17  C   UNL     1      26.009  46.901  52.958  1.00  0.00     0.195 C 
HETATM   18  C   UNL     1      25.807  47.270  51.484  1.00  0.00     0.261 C 
ENDBRANCH  11  12
ENDBRANCH  10  11
BRANCH   1  19
HETATM   19  C   UNL     1      23.397  49.278  48.874  1.00  0.00     0.296 C 
HETATM   20  O   UNL     1      23.255  49.991  49.854  1.00  0.00    -0.259 OA
BRANCH  19  21
HETATM   21  O   UNL     1      24.124  49.652  47.775  1.00  0.00    -0.318 OA
BRANCH  21  22
HETATM   22  C   UNL     1      25.294  50.452  48.054  1.00  0.00     0.174 C 
HETATM   23  C   UNL     1      26.491  49.576  48.382  1.00  0.00     0.034 C 
ENDBRANCH  21  22
ENDBRANCH  19  21
ENDBRANCH   1  19
BRANCH   9  24
HETATM   24  C   UNL     1      22.877  44.304  48.739  1.00  0.00     0.040 A 
HETATM   25  C   UNL     1      23.353  43.642  47.602  1.00  0.00     0.030 A 
HETATM   26  C   UNL     1      23.640  42.280  47.675  1.00  0.00     0.002 A 
HETATM   27  C   UNL     1      23.447  41.587  48.870  1.00  0.00     0.000 A 
HETATM   28  C   UNL     1      22.959  42.249  49.997  1.00  0.00     0.002 A 
HETATM   29  C   UNL     1      22.669  43.612  49.937  1.00  0.00     0.030 A 
ENDBRANCH   9  24
BRANCH   8  30
HETATM   30  C   UNL     1      20.190  49.891  48.015  1.00  0.00     0.276 C 
BRANCH  30  31
HETATM   31  N   UNL     1      19.163  50.449  48.979  1.00  0.00    -0.075 N 
HETATM   32  H   UNL     1      18.253  50.168  48.574  1.00  0.00     0.279 HD
HETATM   33  C   UNL     1      19.224  49.839  50.345  1.00  0.00     0.269 C 
HETATM   34  C   UNL     1      19.181  51.945  49.030  1.00  0.00     0.269 C 
ENDBRANCH  30  31
ENDBRANCH   8  30
BRANCH   7  35
HETATM   35  O   UNL     1      18.176  48.368  46.726  1.00  0.00    -0.359 OA
HETATM   36  H   UNL     1      17.384  47.784  46.775  1.00  0.00     0.218 HD
ENDBRANCH   7  35
TORSDOF 9
ENDMDL
MODEL 5
REMARK VINA RESULT:      -6.8     21.176     23.505
REMARK  9 active torsions:
REMARK  status: ('A' for Active; 'I' for Inactive)
REMARK    1  A    between atoms: C_2  and  O_3 
REMARK    2  A    between atoms: O_3  and  C_4 
REMARK    3  A    between atoms: C_4  and  C_5 
REMARK    4  A    between atoms: C_11  and  O_12 
REMARK    5  A    between atoms: C_13  and  C_14 
REMARK    6  A    between atoms: C_14  and  N_15 
REMARK    7  A    between atoms: N_19  and  C_20 
REMARK    8  A    between atoms: C_26  and  C_27 
REMARK    9  A    between atoms: C_27  and  N_28 
ROOT
HETATM    1  C   UNL     1      38.355  45.268  64.299  1.00  0.00     0.077 A 
HETATM    2  C   UNL     1      39.799  45.411  64.499  1.00  0.00     0.020 A 
HETATM    3  C   UNL     1      40.312  44.107  64.544  1.00  0.00     0.053 A 
HETATM    4  C   UNL     1      41.669  43.830  64.803  1.00  0.00     0.053 A 
HETATM    5  C   UNL     1      42.516  44.881  65.110  1.00  0.00     0.047 A 
HETATM    6 BR   UNL     1      44.316  44.500  65.561  1.00  0.00    -0.048 Br
HETATM    7  C   UNL     1      42.046  46.189  65.079  1.00  0.00     0.092 A 
HETATM    8  C   UNL     1      40.716  46.516  64.702  1.00  0.00     0.016 A 
HETATM    9  N   UNL     1      39.286  43.215  64.263  1.00  0.00    -0.312 N 
HETATM   10  C   UNL     1      38.081  43.896  64.150  1.00  0.00     0.060 A 
ENDROOT
BRANCH  10  11
HETATM   11  C   UNL     1      36.776  43.142  64.114  1.00  0.00     0.293 C 
BRANCH  11  12
HETATM   12  N   UNL     1      35.806  43.497  65.205  1.00  0.00    -0.062 N 
HETATM   13  H   UNL     1      35.363  44.378  64.913  1.00  0.00     0.280 HD
HETATM   14  C   UNL     1      34.716  42.469  65.450  1.00  0.00     0.261 C 
HETATM   15  C   UNL     1      33.782  42.971  66.558  1.00  0.00     0.195 C 
HETATM   16  O   UNL     1      34.510  43.228  67.761  1.00  0.00    -0.388 OA
HETATM   17  C   UNL     1      35.516  44.229  67.579  1.00  0.00     0.195 C 
HETATM   18  C   UNL     1      36.534  43.795  66.520  1.00  0.00     0.261 C 
ENDBRANCH  11  12
ENDBRANCH  10  11
BRANCH   1  19
HETATM   19  C   UNL     1      37.352  46.347  64.355  1.00  0.00     0.296 C 
HETATM   20  O   UNL     1      36.719  46.720  63.380  1.00  0.00    -0.259 OA
BRANCH  19  21
HETATM   21  O   UNL     1      37.197  46.892  65.601  1.00  0.00    -0.318 OA
BRANCH  21  22
HETATM   22  C   UNL     1      35.959  47.607  65.811  1.00  0.00     0.174 C 
HETATM   23  C   UNL     1      35.754  47.927  67.282  1.00  0.00     0.034 C 
ENDBRANCH  21  22
ENDBRANCH  19  21
ENDBRANCH   1  19
BRANCH   9  24
HETATM   24  C   UNL     1      39.450  41.808  64.200  1.00  0.00     0.040 A 
HETATM   25  C   UNL     1      39.432  41.166  62.956  1.00  0.00     0.030 A 
HETATM   26  C   UNL     1      39.602  39.783  62.899  1.00  0.00     0.002 A 
HETATM   27  C   UNL     1      39.779  39.051  64.073  1.00  0.00     0.000 A 
HETATM   28  C   UNL     1      39.781  39.694  65.311  1.00  0.00     0.002 A 
HETATM   29  C   UNL     1      39.615  41.077  65.381  1.00  0.00     0.030 A 
ENDBRANCH   9  24
BRANCH   8  30
HETATM   30  C   UNL     1      40.297  47.978  64.609  1.00  0.00     0.276 C 
BRANCH  30  31
HETATM   31  N   UNL     1      39.551  48.576  65.784  1.00  0.00    -0.075 N 
HETATM   32  H   UNL     1      38.753  47.934  65.933  1.00  0.00     0.279 HD
HETATM   33  C   UNL     1      40.336  48.575  67.059  1.00  0.00     0.269 C 
HETATM   34  C   UNL     1      38.982  49.925  65.473  1.00  0.00     0.269 C 
ENDBRANCH  30  31
ENDBRANCH   8  30
BRANCH   7  35
HETATM   35  O   UNL     1      42.900  47.215  65.431  1.00  0.00    -0.359 OA
HETATM   36  H   UNL     1      43.149  47.678  64.599  1.00  0.00     0.218 HD
ENDBRANCH   7  35
TORSDOF 9
ENDMDL
MODEL 6
REMARK VINA RESULT:      -6.6      3.293      6.198
REMARK  9 active torsions:
REMARK  status: ('A' for Active; 'I' for Inactive)
REMARK    1  A    between atoms: C_2  and  O_3 
REMARK    2  A    between atoms: O_3  and  C_4 
REMARK    3  A    between atoms: C_4  and  C_5 
REMARK    4  A    between atoms: C_11  and  O_12 
REMARK    5  A    between atoms: C_13  and  C_14 
REMARK    6  A    between atoms: C_14  and  N_15 
REMARK    7  A    between atoms: N_19  and  C_20 
REMARK    8  A    between atoms: C_26  and  C_27 
REMARK    9  A    between atoms: C_27  and  N_28 
ROOT
HETATM    1  C   UNL     1      20.701  46.949  46.727  1.00  0.00     0.077 A 
HETATM    2  C   UNL     1      19.520  47.132  45.880  1.00  0.00     0.020 A 
HETATM    3  C   UNL     1      18.838  48.237  46.406  1.00  0.00     0.053 A 
HETATM    4  C   UNL     1      17.599  48.678  45.901  1.00  0.00     0.053 A 
HETATM    5  C   UNL     1      16.987  47.942  44.901  1.00  0.00     0.047 A 
HETATM    6 BR   UNL     1      15.274  48.475  44.294  1.00  0.00    -0.048 Br
HETATM    7  C   UNL     1      17.630  46.838  44.353  1.00  0.00     0.092 A 
HETATM    8  C   UNL     1      18.933  46.436  44.752  1.00  0.00     0.016 A 
HETATM    9  N   UNL     1      19.600  48.787  47.427  1.00  0.00    -0.312 N 
HETATM   10  C   UNL     1      20.717  47.997  47.666  1.00  0.00     0.060 A 
ENDROOT
BRANCH  10  11
HETATM   11  C   UNL     1      21.565  48.219  48.892  1.00  0.00     0.293 C 
BRANCH  11  12
HETATM   12  N   UNL     1      23.025  48.454  48.623  1.00  0.00    -0.062 N 
HETATM   13  H   UNL     1      23.264  47.853  47.823  1.00  0.00     0.280 HD
HETATM   14  C   UNL     1      23.387  49.887  48.274  1.00  0.00     0.261 C 
HETATM   15  C   UNL     1      24.890  49.977  47.990  1.00  0.00     0.195 C 
HETATM   16  O   UNL     1      25.650  49.527  49.115  1.00  0.00    -0.388 OA
HETATM   17  C   UNL     1      25.369  48.163  49.443  1.00  0.00     0.195 C 
HETATM   18  C   UNL     1      23.889  47.978  49.794  1.00  0.00     0.261 C 
ENDBRANCH  11  12
ENDBRANCH  10  11
BRANCH   1  19
HETATM   19  C   UNL     1      21.643  45.815  46.684  1.00  0.00     0.296 C 
HETATM   20  O   UNL     1      22.459  45.660  45.790  1.00  0.00    -0.259 OA
BRANCH  19  21
HETATM   21  O   UNL     1      21.516  44.952  47.740  1.00  0.00    -0.318 OA
BRANCH  21  22
HETATM   22  C   UNL     1      22.742  44.659  48.447  1.00  0.00     0.174 C 
HETATM   23  C   UNL     1      22.477  43.790  49.664  1.00  0.00     0.034 C 
ENDBRANCH  21  22
ENDBRANCH  19  21
ENDBRANCH   1  19
BRANCH   9  24
HETATM   24  C   UNL     1      19.226  49.935  48.170  1.00  0.00     0.040 A 
HETATM   25  C   UNL     1      18.327  49.806  49.234  1.00  0.00     0.030 A 
HETATM   26  C   UNL     1      17.968  50.938  49.966  1.00  0.00     0.002 A 
HETATM   27  C   UNL     1      18.497  52.184  49.632  1.00  0.00     0.000 A 
HETATM   28  C   UNL     1      19.383  52.310  48.560  1.00  0.00     0.002 A 
HETATM   29  C   UNL     1      19.751  51.185  47.822  1.00  0.00     0.030 A 
ENDBRANCH   9  24
BRANCH   8  30
HETATM   30  C   UNL     1      19.608  45.266  44.047  1.00  0.00     0.276 C 
BRANCH  30  31
HETATM   31  N   UNL     1      18.969  43.898  44.177  1.00  0.00    -0.075 N 
HETATM   32  H   UNL     1      17.989  44.098  44.444  1.00  0.00     0.279 HD
HETATM   33  C   UNL     1      18.908  43.136  42.890  1.00  0.00     0.269 C 
HETATM   34  C   UNL     1      19.572  43.089  45.283  1.00  0.00     0.269 C 
ENDBRANCH  30  31
ENDBRANCH   8  30
BRANCH   7  35
HETATM   35  O   UNL     1      16.979  46.096  43.388  1.00  0.00    -0.359 OA
HETATM   36  H   UNL     1      16.050  46.420  43.357  1.00  0.00     0.218 HD
ENDBRANCH   7  35
TORSDOF 9
ENDMDL
MODEL 7
REMARK VINA RESULT:      -6.6      3.029      4.811
REMARK  9 active torsions:
REMARK  status: ('A' for Active; 'I' for Inactive)
REMARK    1  A    between atoms: C_2  and  O_3 
REMARK    2  A    between atoms: O_3  and  C_4 
REMARK    3  A    between atoms: C_4  and  C_5 
REMARK    4  A    between atoms: C_11  and  O_12 
REMARK    5  A    between atoms: C_13  and  C_14 
REMARK    6  A    between atoms: C_14  and  N_15 
REMARK    7  A    between atoms: N_19  and  C_20 
REMARK    8  A    between atoms: C_26  and  C_27 
REMARK    9  A    between atoms: C_27  and  N_28 
ROOT
HETATM    1  C   UNL     1      24.205  43.125  49.580  1.00  0.00     0.077 A 
HETATM    2  C   UNL     1      25.009  41.903  49.487  1.00  0.00     0.020 A 
HETATM    3  C   UNL     1      25.989  42.011  50.483  1.00  0.00     0.053 A 
HETATM    4  C   UNL     1      27.008  41.054  50.655  1.00  0.00     0.053 A 
HETATM    5  C   UNL     1      27.099  40.008  49.753  1.00  0.00     0.047 A 
HETATM    6 BR   UNL     1      28.531  38.779  49.922  1.00  0.00    -0.048 Br
HETATM    7  C   UNL     1      26.148  39.866  48.749  1.00  0.00     0.092 A 
HETATM    8  C   UNL     1      25.036  40.741  48.619  1.00  0.00     0.016 A 
HETATM    9  N   UNL     1      25.740  43.154  51.231  1.00  0.00    -0.312 N 
HETATM   10  C   UNL     1      24.685  43.866  50.675  1.00  0.00     0.060 A 
ENDROOT
BRANCH  10  11
HETATM   11  C   UNL     1      24.385  45.271  51.132  1.00  0.00     0.293 C 
BRANCH  11  12
HETATM   12  N   UNL     1      24.869  46.355  50.210  1.00  0.00    -0.062 N 
HETATM   13  H   UNL     1      25.092  45.891  49.321  1.00  0.00     0.280 HD
HETATM   14  C   UNL     1      23.861  47.458  49.937  1.00  0.00     0.261 C 
HETATM   15  C   UNL     1      24.467  48.472  48.961  1.00  0.00     0.195 C 
HETATM   16  O   UNL     1      25.681  49.019  49.483  1.00  0.00    -0.388 OA
HETATM   17  C   UNL     1      26.673  48.013  49.708  1.00  0.00     0.195 C 
HETATM   18  C   UNL     1      26.177  46.972  50.716  1.00  0.00     0.261 C 
ENDBRANCH  11  12
ENDBRANCH  10  11
BRANCH   1  19
HETATM   19  C   UNL     1      23.159  43.559  48.637  1.00  0.00     0.296 C 
HETATM   20  O   UNL     1      22.039  43.075  48.614  1.00  0.00    -0.259 OA
BRANCH  19  21
HETATM   21  O   UNL     1      23.560  44.556  47.788  1.00  0.00    -0.318 OA
BRANCH  21  22
HETATM   22  C   UNL     1      22.494  45.354  47.227  1.00  0.00     0.174 C 
HETATM   23  C   UNL     1      22.309  45.057  45.748  1.00  0.00     0.034 C 
ENDBRANCH  21  22
ENDBRANCH  19  21
ENDBRANCH   1  19
BRANCH   9  24
HETATM   24  C   UNL     1      26.522  43.564  52.340  1.00  0.00     0.040 A 
HETATM   25  C   UNL     1      25.923  43.689  53.598  1.00  0.00     0.030 A 
HETATM   26  C   UNL     1      26.698  44.086  54.687  1.00  0.00     0.002 A 
HETATM   27  C   UNL     1      28.055  44.362  54.518  1.00  0.00     0.000 A 
HETATM   28  C   UNL     1      28.644  44.250  53.257  1.00  0.00     0.002 A 
HETATM   29  C   UNL     1      27.879  43.852  52.161  1.00  0.00     0.030 A 
ENDBRANCH   9  24
BRANCH   8  30
HETATM   30  C   UNL     1      23.988  40.473  47.546  1.00  0.00     0.276 C 
BRANCH  30  31
HETATM   31  N   UNL     1      24.433  40.516  46.098  1.00  0.00    -0.075 N 
HETATM   32  H   UNL     1      25.461  40.410  46.143  1.00  0.00     0.279 HD
HETATM   33  C   UNL     1      23.926  39.371  45.279  1.00  0.00     0.269 C 
HETATM   34  C   UNL     1      24.152  41.838  45.454  1.00  0.00     0.269 C 
ENDBRANCH  30  31
ENDBRANCH   8  30
BRANCH   7  35
HETATM   35  O   UNL     1      26.286  38.839  47.837  1.00  0.00    -0.359 OA
HETATM   36  H   UNL     1      25.710  39.059  47.070  1.00  0.00     0.218 HD
ENDBRANCH   7  35
TORSDOF 9
ENDMDL
MODEL 8
REMARK VINA RESULT:      -6.5     21.816     23.808
REMARK  9 active torsions:
REMARK  status: ('A' for Active; 'I' for Inactive)
REMARK    1  A    between atoms: C_2  and  O_3 
REMARK    2  A    between atoms: O_3  and  C_4 
REMARK    3  A    between atoms: C_4  and  C_5 
REMARK    4  A    between atoms: C_11  and  O_12 
REMARK    5  A    between atoms: C_13  and  C_14 
REMARK    6  A    between atoms: C_14  and  N_15 
REMARK    7  A    between atoms: N_19  and  C_20 
REMARK    8  A    between atoms: C_26  and  C_27 
REMARK    9  A    between atoms: C_27  and  N_28 
ROOT
HETATM    1  C   UNL     1      39.627  44.821  65.714  1.00  0.00     0.077 A 
HETATM    2  C   UNL     1      38.245  44.435  66.012  1.00  0.00     0.020 A 
HETATM    3  C   UNL     1      38.054  43.189  65.398  1.00  0.00     0.053 A 
HETATM    4  C   UNL     1      36.813  42.523  65.396  1.00  0.00     0.053 A 
HETATM    5  C   UNL     1      35.715  43.160  65.949  1.00  0.00     0.047 A 
HETATM    6 BR   UNL     1      34.024  42.310  65.855  1.00  0.00    -0.048 Br
HETATM    7  C   UNL     1      35.861  44.397  66.566  1.00  0.00     0.092 A 
HETATM    8  C   UNL     1      37.120  45.043  66.695  1.00  0.00     0.016 A 
HETATM    9  N   UNL     1      39.263  42.765  64.865  1.00  0.00    -0.312 N 
HETATM   10  C   UNL     1      40.223  43.758  65.011  1.00  0.00     0.060 A 
ENDROOT
BRANCH  10  11
HETATM   11  C   UNL     1      41.541  43.663  64.285  1.00  0.00     0.293 C 
BRANCH  11  12
HETATM   12  N   UNL     1      42.658  44.467  64.888  1.00  0.00    -0.062 N 
HETATM   13  H   UNL     1      42.231  45.024  65.639  1.00  0.00     0.280 HD
HETATM   14  C   UNL     1      43.788  43.644  65.482  1.00  0.00     0.261 C 
HETATM   15  C   UNL     1      44.837  44.583  66.090  1.00  0.00     0.195 C 
HETATM   16  O   UNL     1      45.339  45.491  65.106  1.00  0.00    -0.388 OA
HETATM   17  C   UNL     1      44.307  46.318  64.559  1.00  0.00     0.195 C 
HETATM   18  C   UNL     1      43.229  45.468  63.879  1.00  0.00     0.261 C 
ENDBRANCH  11  12
ENDBRANCH  10  11
BRANCH   1  19
HETATM   19  C   UNL     1      40.251  46.126  65.996  1.00  0.00     0.296 C 
HETATM   20  O   UNL     1      41.084  46.291  66.873  1.00  0.00    -0.259 OA
BRANCH  19  21
HETATM   21  O   UNL     1      39.810  47.137  65.184  1.00  0.00    -0.318 OA
BRANCH  21  22
HETATM   22  C   UNL     1      40.188  48.469  65.597  1.00  0.00     0.174 C 
HETATM   23  C   UNL     1      39.435  49.522  64.802  1.00  0.00     0.034 C 
ENDBRANCH  21  22
ENDBRANCH  19  21
ENDBRANCH   1  19
BRANCH   9  24
HETATM   24  C   UNL     1      39.446  41.532  64.189  1.00  0.00     0.040 A 
HETATM   25  C   UNL     1      39.980  40.438  64.881  1.00  0.00     0.030 A 
HETATM   26  C   UNL     1      40.150  39.226  64.213  1.00  0.00     0.002 A 
HETATM   27  C   UNL     1      39.798  39.111  62.869  1.00  0.00     0.000 A 
HETATM   28  C   UNL     1      39.280  40.209  62.180  1.00  0.00     0.002 A 
HETATM   29  C   UNL     1      39.103  41.426  62.837  1.00  0.00     0.030 A 
ENDBRANCH   9  24
BRANCH   8  30
HETATM   30  C   UNL     1      37.217  46.358  67.458  1.00  0.00     0.276 C 
BRANCH  30  31
HETATM   31  N   UNL     1      36.382  47.524  66.966  1.00  0.00    -0.075 N 
HETATM   32  H   UNL     1      35.418  47.291  67.263  1.00  0.00     0.279 HD
HETATM   33  C   UNL     1      36.722  48.826  67.622  1.00  0.00     0.269 C 
HETATM   34  C   UNL     1      36.373  47.630  65.473  1.00  0.00     0.269 C 
ENDBRANCH  30  31
ENDBRANCH   8  30
BRANCH   7  35
HETATM   35  O   UNL     1      34.743  45.030  67.070  1.00  0.00    -0.359 OA
HETATM   36  H   UNL     1      34.275  45.436  66.305  1.00  0.00     0.218 HD
ENDBRANCH   7  35
TORSDOF 9
ENDMDL
MODEL 9
REMARK VINA RESULT:      -6.3      3.439      7.134
REMARK  9 active torsions:
REMARK  status: ('A' for Active; 'I' for Inactive)
REMARK    1  A    between atoms: C_2  and  O_3 
REMARK    2  A    between atoms: O_3  and  C_4 
REMARK    3  A    between atoms: C_4  and  C_5 
REMARK    4  A    between atoms: C_11  and  O_12 
REMARK    5  A    between atoms: C_13  and  C_14 
REMARK    6  A    between atoms: C_14  and  N_15 
REMARK    7  A    between atoms: N_19  and  C_20 
REMARK    8  A    between atoms: C_26  and  C_27 
REMARK    9  A    between atoms: C_27  and  N_28 
ROOT
HETATM    1  C   UNL     1      25.115  43.589  50.587  1.00  0.00     0.077 A 
HETATM    2  C   UNL     1      26.160  42.570  50.459  1.00  0.00     0.020 A 
HETATM    3  C   UNL     1      25.731  41.707  49.440  1.00  0.00     0.053 A 
HETATM    4  C   UNL     1      26.441  40.546  49.077  1.00  0.00     0.053 A 
HETATM    5  C   UNL     1      27.561  40.193  49.810  1.00  0.00     0.047 A 
HETATM    6 BR   UNL     1      28.455  38.578  49.388  1.00  0.00    -0.048 Br
HETATM    7  C   UNL     1      28.018  41.020  50.829  1.00  0.00     0.092 A 
HETATM    8  C   UNL     1      27.400  42.260  51.144  1.00  0.00     0.016 A 
HETATM    9  N   UNL     1      24.569  42.221  48.881  1.00  0.00    -0.312 N 
HETATM   10  C   UNL     1      24.155  43.342  49.589  1.00  0.00     0.060 A 
ENDROOT
BRANCH  10  11
HETATM   11  C   UNL     1      22.786  43.930  49.360  1.00  0.00     0.293 C 
BRANCH  11  12
HETATM   12  N   UNL     1      22.712  44.962  48.269  1.00  0.00    -0.062 N 
HETATM   13  H   UNL     1      23.668  45.050  47.899  1.00  0.00     0.280 HD
HETATM   14  C   UNL     1      21.782  44.611  47.122  1.00  0.00     0.261 C 
HETATM   15  C   UNL     1      21.828  45.725  46.070  1.00  0.00     0.195 C 
HETATM   16  O   UNL     1      21.466  46.984  46.644  1.00  0.00    -0.388 OA
HETATM   17  C   UNL     1      22.353  47.370  47.699  1.00  0.00     0.195 C 
HETATM   18  C   UNL     1      22.338  46.337  48.830  1.00  0.00     0.261 C 
ENDBRANCH  11  12
ENDBRANCH  10  11
BRANCH   1  19
HETATM   19  C   UNL     1      25.022  44.620  51.637  1.00  0.00     0.296 C 
HETATM   20  O   UNL     1      24.273  44.528  52.597  1.00  0.00    -0.259 OA
BRANCH  19  21
HETATM   21  O   UNL     1      25.852  45.690  51.436  1.00  0.00    -0.318 OA
BRANCH  21  22
HETATM   22  C   UNL     1      25.191  46.927  51.090  1.00  0.00     0.174 C 
HETATM   23  C   UNL     1      25.903  47.627  49.946  1.00  0.00     0.034 C 
ENDBRANCH  21  22
ENDBRANCH  19  21
ENDBRANCH   1  19
BRANCH   9  24
HETATM   24  C   UNL     1      23.870  41.618  47.805  1.00  0.00     0.040 A 
HETATM   25  C   UNL     1      22.797  40.760  48.073  1.00  0.00     0.030 A 
HETATM   26  C   UNL     1      22.108  40.176  47.011  1.00  0.00     0.002 A 
HETATM   27  C   UNL     1      22.492  40.441  45.697  1.00  0.00     0.000 A 
HETATM   28  C   UNL     1      23.572  41.286  45.436  1.00  0.00     0.002 A 
HETATM   29  C   UNL     1      24.268  41.878  46.489  1.00  0.00     0.030 A 
ENDBRANCH   9  24
BRANCH   8  30
HETATM   30  C   UNL     1      28.007  43.153  52.219  1.00  0.00     0.276 C 
BRANCH  30  31
HETATM   31  N   UNL     1      27.997  42.646  53.647  1.00  0.00    -0.075 N 
HETATM   32  H   UNL     1      27.782  41.638  53.558  1.00  0.00     0.279 HD
HETATM   33  C   UNL     1      29.328  42.736  54.327  1.00  0.00     0.269 C 
HETATM   34  C   UNL     1      26.904  43.262  54.464  1.00  0.00     0.269 C 
ENDBRANCH  30  31
ENDBRANCH   8  30
BRANCH   7  35
HETATM   35  O   UNL     1      29.111  40.623  51.572  1.00  0.00    -0.359 OA
HETATM   36  H   UNL     1      29.755  41.368  51.553  1.00  0.00     0.218 HD
ENDBRANCH   7  35
TORSDOF 9
ENDMDL
MODEL 10
REMARK VINA RESULT:      -6.0      2.807      8.108
REMARK  9 active torsions:
REMARK  status: ('A' for Active; 'I' for Inactive)
REMARK    1  A    between atoms: C_2  and  O_3 
REMARK    2  A    between atoms: O_3  and  C_4 
REMARK    3  A    between atoms: C_4  and  C_5 
REMARK    4  A    between atoms: C_11  and  O_12 
REMARK    5  A    between atoms: C_13  and  C_14 
REMARK    6  A    between atoms: C_14  and  N_15 
REMARK    7  A    between atoms: N_19  and  C_20 
REMARK    8  A    between atoms: C_26  and  C_27 
REMARK    9  A    between atoms: C_27  and  N_28 
ROOT
HETATM    1  C   UNL     1      21.394  44.967  47.925  1.00  0.00     0.077 A 
HETATM    2  C   UNL     1      21.925  46.218  48.473  1.00  0.00     0.020 A 
HETATM    3  C   UNL     1      20.888  47.155  48.367  1.00  0.00     0.053 A 
HETATM    4  C   UNL     1      21.045  48.508  48.724  1.00  0.00     0.053 A 
HETATM    5  C   UNL     1      22.297  48.953  49.114  1.00  0.00     0.047 A 
HETATM    6 BR   UNL     1      22.533  50.794  49.493  1.00  0.00    -0.048 Br
HETATM    7  C   UNL     1      23.353  48.056  49.230  1.00  0.00     0.092 A 
HETATM    8  C   UNL     1      23.202  46.663  48.997  1.00  0.00     0.016 A 
HETATM    9  N   UNL     1      19.748  46.508  47.908  1.00  0.00    -0.312 N 
HETATM   10  C   UNL     1      20.044  45.187  47.596  1.00  0.00     0.060 A 
ENDROOT
BRANCH  10  11
HETATM   11  C   UNL     1      19.058  44.343  46.830  1.00  0.00     0.293 C 
BRANCH  11  12
HETATM   12  N   UNL     1      19.180  44.422  45.334  1.00  0.00    -0.062 N 
HETATM   13  H   UNL     1      19.778  45.236  45.143  1.00  0.00     0.280 HD
HETATM   14  C   UNL     1      19.802  43.202  44.678  1.00  0.00     0.261 C 
HETATM   15  C   UNL     1      19.897  43.430  43.165  1.00  0.00     0.195 C 
HETATM   16  O   UNL     1      18.608  43.698  42.608  1.00  0.00    -0.388 OA
HETATM   17  C   UNL     1      18.011  44.871  43.168  1.00  0.00     0.195 C 
HETATM   18  C   UNL     1      17.826  44.719  44.682  1.00  0.00     0.261 C 
ENDBRANCH  11  12
ENDBRANCH  10  11
BRANCH   1  19
HETATM   19  C   UNL     1      22.156  43.734  47.660  1.00  0.00     0.296 C 
HETATM   20  O   UNL     1      22.737  43.522  46.607  1.00  0.00    -0.259 OA
BRANCH  19  21
HETATM   21  O   UNL     1      22.152  42.846  48.702  1.00  0.00    -0.318 OA
BRANCH  21  22
HETATM   22  C   UNL     1      23.110  41.769  48.599  1.00  0.00     0.174 C 
HETATM   23  C   UNL     1      24.316  42.021  49.488  1.00  0.00     0.034 C 
ENDBRANCH  21  22
ENDBRANCH  19  21
ENDBRANCH   1  19
BRANCH   9  24
HETATM   24  C   UNL     1      18.499  47.146  47.705  1.00  0.00     0.040 A 
HETATM   25  C   UNL     1      17.496  47.023  48.673  1.00  0.00     0.030 A 
HETATM   26  C   UNL     1      16.271  47.659  48.471  1.00  0.00     0.002 A 
HETATM   27  C   UNL     1      16.051  48.403  47.312  1.00  0.00     0.000 A 
HETATM   28  C   UNL     1      17.050  48.510  46.344  1.00  0.00     0.002 A 
HETATM   29  C   UNL     1      18.280  47.881  46.535  1.00  0.00     0.030 A 
ENDBRANCH   9  24
BRANCH   8  30
HETATM   30  C   UNL     1      24.384  45.729  49.226  1.00  0.00     0.276 C 
BRANCH  30  31
HETATM   31  N   UNL     1      25.190  45.908  50.497  1.00  0.00    -0.075 N 
HETATM   32  H   UNL     1      25.093  46.913  50.721  1.00  0.00     0.279 HD
HETATM   33  C   UNL     1      24.638  45.159  51.670  1.00  0.00     0.269 C 
HETATM   34  C   UNL     1      26.648  45.638  50.291  1.00  0.00     0.269 C 
ENDBRANCH  30  31
ENDBRANCH   8  30
BRANCH   7  35
HETATM   35  O   UNL     1      24.600  48.534  49.579  1.00  0.00    -0.359 OA
HETATM   36  H   UNL     1      24.789  48.202  50.486  1.00  0.00     0.218 HD
ENDBRANCH   7  35
TORSDOF 9
ENDMDL
