MODEL 1
REMARK VINA RESULT:      -9.4      0.000      0.000
REMARK  5 active torsions:
REMARK  status: ('A' for Active; 'I' for Inactive)
REMARK    1  A    between atoms: C_2  and  C_3 
REMARK    2  A    between atoms: C_6  and  C_7 
REMARK    3  A    between atoms: C_7  and  C_8 
REMARK       I    between atoms: C_8  and  N_9 
REMARK    4  A    between atoms: N_9  and  C_10 
REMARK    5  A    between atoms: C_17  and  C_18 
REMARK       I    between atoms: C_18  and  N_19 
ROOT
HETATM    1  C   UNL     1      26.038  47.324  50.075  1.00  0.00     0.035 A 
HETATM    2  C   UNL     1      24.713  47.464  49.639  1.00  0.00     0.046 A 
HETATM    3  C   UNL     1      24.360  48.557  48.819  1.00  0.00     0.030 A 
HETATM    4  C   UNL     1      25.349  49.456  48.439  1.00  0.00     0.063 A 
HETATM    5  N   UNL     1      24.713  50.390  47.670  1.00  0.00    -0.277 N 
HETATM    6  H   UNL     1      25.125  51.200  47.221  1.00  0.00     0.189 HD
HETATM    7  N   UNL     1      23.392  50.191  47.529  1.00  0.00    -0.168 NA
HETATM    8  C   UNL     1      23.158  49.061  48.236  1.00  0.00     0.156 A 
HETATM    9  C   UNL     1      26.683  49.335  48.834  1.00  0.00     0.034 A 
HETATM   10  C   UNL     1      27.002  48.255  49.669  1.00  0.00     0.032 A 
ENDROOT
BRANCH   1  11
HETATM   11  N   UNL     1      26.444  46.332  50.994  1.00  0.00    -0.327 N 
HETATM   12  C   UNL     1      26.870  45.049  50.693  1.00  0.00     0.226 C 
HETATM   13  O   UNL     1      27.302  44.670  49.608  1.00  0.00    -0.273 OA
HETATM   14  H   UNL     1      26.422  46.583  51.974  1.00  0.00     0.169 HD
BRANCH  12  15
HETATM   15  C   UNL     1      26.702  44.085  51.856  1.00  0.00     0.141 C 
BRANCH  15  16
HETATM   16  C   UNL     1      27.881  43.976  52.788  1.00  0.00    -0.049 A 
HETATM   17  C   UNL     1      27.871  44.651  54.016  1.00  0.00     0.008 A 
HETATM   18  C   UNL     1      28.895  44.457  54.946  1.00  0.00     0.007 A 
HETATM   19  C   UNL     1      29.945  43.571  54.677  1.00  0.00    -0.059 A 
HETATM   20  C   UNL     1      29.971  42.917  53.440  1.00  0.00     0.007 A 
HETATM   21  C   UNL     1      28.950  43.115  52.506  1.00  0.00     0.008 A 
BRANCH  19  22
HETATM   22  C   UNL     1      31.019  43.315  55.705  1.00  0.00     0.034 C 
HETATM   23  C   UNL     1      30.987  44.321  56.849  1.00  0.00     0.010 C 
ENDBRANCH  19  22
ENDBRANCH  15  16
ENDBRANCH  12  15
ENDBRANCH   1  11
BRANCH   8  24
HETATM   24  C   UNL     1      21.803  48.504  48.356  1.00  0.00     0.270 C 
HETATM   25  N   UNL     1      21.239  48.670  49.592  1.00  0.00    -0.365 N 
HETATM   26  H   UNL     1      21.778  49.133  50.314  1.00  0.00     0.159 HD
HETATM   27  H   UNL     1      20.319  48.303  49.773  1.00  0.00     0.159 HD
HETATM   28  O   UNL     1      21.202  47.924  47.459  1.00  0.00    -0.266 OA
ENDBRANCH   8  24
TORSDOF 5
ENDMDL
MODEL 2
REMARK VINA RESULT:      -8.9      5.227      7.931
REMARK  5 active torsions:
REMARK  status: ('A' for Active; 'I' for Inactive)
REMARK    1  A    between atoms: C_2  and  C_3 
REMARK    2  A    between atoms: C_6  and  C_7 
REMARK    3  A    between atoms: C_7  and  C_8 
REMARK       I    between atoms: C_8  and  N_9 
REMARK    4  A    between atoms: N_9  and  C_10 
REMARK    5  A    between atoms: C_17  and  C_18 
REMARK       I    between atoms: C_18  and  N_19 
ROOT
HETATM    1  C   UNL     1      27.080  41.544  50.463  1.00  0.00     0.035 A 
HETATM    2  C   UNL     1      27.891  40.414  50.645  1.00  0.00     0.046 A 
HETATM    3  C   UNL     1      28.114  39.535  49.563  1.00  0.00     0.030 A 
HETATM    4  C   UNL     1      27.546  39.831  48.331  1.00  0.00     0.063 A 
HETATM    5  N   UNL     1      27.928  38.813  47.502  1.00  0.00    -0.277 N 
HETATM    6  H   UNL     1      27.695  38.699  46.522  1.00  0.00     0.189 HD
HETATM    7  N   UNL     1      28.681  37.869  48.089  1.00  0.00    -0.168 NA
HETATM    8  C   UNL     1      28.804  38.300  49.366  1.00  0.00     0.156 A 
HETATM    9  C   UNL     1      26.755  40.960  48.107  1.00  0.00     0.034 A 
HETATM   10  C   UNL     1      26.526  41.803  49.203  1.00  0.00     0.032 A 
ENDROOT
BRANCH   1  11
HETATM   11  N   UNL     1      26.709  42.401  51.521  1.00  0.00    -0.327 N 
HETATM   12  C   UNL     1      27.178  43.684  51.752  1.00  0.00     0.226 C 
HETATM   13  O   UNL     1      27.701  44.419  50.919  1.00  0.00    -0.273 OA
HETATM   14  H   UNL     1      26.031  42.042  52.181  1.00  0.00     0.169 HD
BRANCH  12  15
HETATM   15  C   UNL     1      27.032  44.112  53.203  1.00  0.00     0.141 C 
BRANCH  15  16
HETATM   16  C   UNL     1      28.295  44.080  54.023  1.00  0.00    -0.049 A 
HETATM   17  C   UNL     1      28.618  45.160  54.856  1.00  0.00     0.008 A 
HETATM   18  C   UNL     1      29.715  45.092  55.720  1.00  0.00     0.007 A 
HETATM   19  C   UNL     1      30.503  43.936  55.783  1.00  0.00    -0.059 A 
HETATM   20  C   UNL     1      30.197  42.867  54.932  1.00  0.00     0.007 A 
HETATM   21  C   UNL     1      29.104  42.937  54.063  1.00  0.00     0.008 A 
BRANCH  19  22
HETATM   22  C   UNL     1      31.650  43.839  56.758  1.00  0.00     0.034 C 
HETATM   23  C   UNL     1      31.326  44.467  58.108  1.00  0.00     0.010 C 
ENDBRANCH  19  22
ENDBRANCH  15  16
ENDBRANCH  12  15
ENDBRANCH   1  11
BRANCH   8  24
HETATM   24  C   UNL     1      29.550  37.522  50.365  1.00  0.00     0.270 C 
HETATM   25  N   UNL     1      28.836  36.495  50.920  1.00  0.00    -0.365 N 
HETATM   26  H   UNL     1      27.876  36.357  50.627  1.00  0.00     0.159 HD
HETATM   27  H   UNL     1      29.261  35.919  51.629  1.00  0.00     0.159 HD
HETATM   28  O   UNL     1      30.705  37.748  50.709  1.00  0.00    -0.266 OA
ENDBRANCH   8  24
TORSDOF 5
ENDMDL
MODEL 3
REMARK VINA RESULT:      -8.7      2.083      2.948
REMARK  5 active torsions:
REMARK  status: ('A' for Active; 'I' for Inactive)
REMARK    1  A    between atoms: C_2  and  C_3 
REMARK    2  A    between atoms: C_6  and  C_7 
REMARK    3  A    between atoms: C_7  and  C_8 
REMARK       I    between atoms: C_8  and  N_9 
REMARK    4  A    between atoms: N_9  and  C_10 
REMARK    5  A    between atoms: C_17  and  C_18 
REMARK       I    between atoms: C_18  and  N_19 
ROOT
HETATM    1  C   UNL     1      24.977  46.365  50.901  1.00  0.00     0.035 A 
HETATM    2  C   UNL     1      24.508  47.500  50.223  1.00  0.00     0.046 A 
HETATM    3  C   UNL     1      23.575  47.350  49.174  1.00  0.00     0.030 A 
HETATM    4  C   UNL     1      23.119  46.076  48.859  1.00  0.00     0.063 A 
HETATM    5  N   UNL     1      22.248  46.250  47.821  1.00  0.00    -0.277 N 
HETATM    6  H   UNL     1      21.724  45.533  47.331  1.00  0.00     0.189 HD
HETATM    7  N   UNL     1      22.108  47.524  47.416  1.00  0.00    -0.168 NA
HETATM    8  C   UNL     1      22.925  48.217  48.244  1.00  0.00     0.156 A 
HETATM    9  C   UNL     1      23.544  44.927  49.529  1.00  0.00     0.034 A 
HETATM   10  C   UNL     1      24.491  45.100  50.549  1.00  0.00     0.032 A 
ENDROOT
BRANCH   1  11
HETATM   11  N   UNL     1      25.998  46.418  51.873  1.00  0.00    -0.327 N 
HETATM   12  C   UNL     1      25.888  46.073  53.210  1.00  0.00     0.226 C 
HETATM   13  O   UNL     1      25.027  45.347  53.697  1.00  0.00    -0.273 OA
HETATM   14  H   UNL     1      26.905  46.742  51.562  1.00  0.00     0.169 HD
BRANCH  12  15
HETATM   15  C   UNL     1      26.942  46.741  54.078  1.00  0.00     0.141 C 
BRANCH  15  16
HETATM   16  C   UNL     1      27.990  45.825  54.653  1.00  0.00    -0.049 A 
HETATM   17  C   UNL     1      28.169  44.541  54.120  1.00  0.00     0.008 A 
HETATM   18  C   UNL     1      29.220  43.728  54.553  1.00  0.00     0.007 A 
HETATM   19  C   UNL     1      30.126  44.186  55.517  1.00  0.00    -0.059 A 
HETATM   20  C   UNL     1      29.933  45.458  56.070  1.00  0.00     0.007 A 
HETATM   21  C   UNL     1      28.878  46.269  55.641  1.00  0.00     0.008 A 
BRANCH  19  22
HETATM   22  C   UNL     1      31.296  43.333  55.941  1.00  0.00     0.034 C 
HETATM   23  C   UNL     1      31.643  43.506  57.415  1.00  0.00     0.010 C 
ENDBRANCH  19  22
ENDBRANCH  15  16
ENDBRANCH  12  15
ENDBRANCH   1  11
BRANCH   8  24
HETATM   24  C   UNL     1      23.081  49.673  48.116  1.00  0.00     0.270 C 
HETATM   25  N   UNL     1      22.293  50.397  48.969  1.00  0.00    -0.365 N 
HETATM   26  H   UNL     1      21.669  49.899  49.594  1.00  0.00     0.159 HD
HETATM   27  H   UNL     1      22.319  51.403  48.938  1.00  0.00     0.159 HD
HETATM   28  O   UNL     1      23.829  50.229  47.320  1.00  0.00    -0.266 OA
ENDBRANCH   8  24
TORSDOF 5
ENDMDL
MODEL 4
REMARK VINA RESULT:      -8.6      1.839      2.684
REMARK  5 active torsions:
REMARK  status: ('A' for Active; 'I' for Inactive)
REMARK    1  A    between atoms: C_2  and  C_3 
REMARK    2  A    between atoms: C_6  and  C_7 
REMARK    3  A    between atoms: C_7  and  C_8 
REMARK       I    between atoms: C_8  and  N_9 
REMARK    4  A    between atoms: N_9  and  C_10 
REMARK    5  A    between atoms: C_17  and  C_18 
REMARK       I    between atoms: C_18  and  N_19 
ROOT
HETATM    1  C   UNL     1      24.564  45.092  50.388  1.00  0.00     0.035 A 
HETATM    2  C   UNL     1      24.556  46.471  50.130  1.00  0.00     0.046 A 
HETATM    3  C   UNL     1      23.652  46.997  49.182  1.00  0.00     0.030 A 
HETATM    4  C   UNL     1      22.768  46.134  48.548  1.00  0.00     0.063 A 
HETATM    5  N   UNL     1      22.040  46.921  47.700  1.00  0.00    -0.277 N 
HETATM    6  H   UNL     1      21.299  46.627  47.072  1.00  0.00     0.189 HD
HETATM    7  N   UNL     1      22.384  48.219  47.710  1.00  0.00    -0.168 NA
HETATM    8  C   UNL     1      23.382  48.282  48.622  1.00  0.00     0.156 A 
HETATM    9  C   UNL     1      22.730  44.761  48.799  1.00  0.00     0.034 A 
HETATM   10  C   UNL     1      23.655  44.259  49.725  1.00  0.00     0.032 A 
ENDROOT
BRANCH   1  11
HETATM   11  N   UNL     1      25.516  44.473  51.227  1.00  0.00    -0.327 N 
HETATM   12  C   UNL     1      26.825  44.160  50.904  1.00  0.00     0.226 C 
HETATM   13  O   UNL     1      27.484  44.666  50.000  1.00  0.00    -0.273 OA
HETATM   14  H   UNL     1      25.209  44.232  52.161  1.00  0.00     0.169 HD
BRANCH  12  15
HETATM   15  C   UNL     1      27.395  43.049  51.770  1.00  0.00     0.141 C 
BRANCH  15  16
HETATM   16  C   UNL     1      28.335  43.489  52.862  1.00  0.00    -0.049 A 
HETATM   17  C   UNL     1      27.958  44.515  53.740  1.00  0.00     0.008 A 
HETATM   18  C   UNL     1      28.760  44.846  54.836  1.00  0.00     0.007 A 
HETATM   19  C   UNL     1      29.946  44.148  55.089  1.00  0.00    -0.059 A 
HETATM   20  C   UNL     1      30.337  43.141  54.198  1.00  0.00     0.007 A 
HETATM   21  C   UNL     1      29.539  42.814  53.098  1.00  0.00     0.008 A 
BRANCH  19  22
HETATM   22  C   UNL     1      30.781  44.463  56.306  1.00  0.00     0.034 C 
HETATM   23  C   UNL     1      31.496  43.237  56.860  1.00  0.00     0.010 C 
ENDBRANCH  19  22
ENDBRANCH  15  16
ENDBRANCH  12  15
ENDBRANCH   1  11
BRANCH   8  24
HETATM   24  C   UNL     1      24.063  49.551  48.919  1.00  0.00     0.270 C 
HETATM   25  N   UNL     1      25.351  49.613  48.462  1.00  0.00    -0.365 N 
HETATM   26  H   UNL     1      25.736  48.808  47.983  1.00  0.00     0.159 HD
HETATM   27  H   UNL     1      25.903  50.437  48.637  1.00  0.00     0.159 HD
HETATM   28  O   UNL     1      23.563  50.487  49.532  1.00  0.00    -0.266 OA
ENDBRANCH   8  24
TORSDOF 5
ENDMDL
MODEL 5
REMARK VINA RESULT:      -8.3      3.549      9.021
REMARK  5 active torsions:
REMARK  status: ('A' for Active; 'I' for Inactive)
REMARK    1  A    between atoms: C_2  and  C_3 
REMARK    2  A    between atoms: C_6  and  C_7 
REMARK    3  A    between atoms: C_7  and  C_8 
REMARK       I    between atoms: C_8  and  N_9 
REMARK    4  A    between atoms: N_9  and  C_10 
REMARK    5  A    between atoms: C_17  and  C_18 
REMARK       I    between atoms: C_18  and  N_19 
ROOT
HETATM    1  C   UNL     1      24.264  47.284  49.772  1.00  0.00     0.035 A 
HETATM    2  C   UNL     1      24.904  47.488  51.004  1.00  0.00     0.046 A 
HETATM    3  C   UNL     1      25.134  46.391  51.861  1.00  0.00     0.030 A 
HETATM    4  C   UNL     1      24.743  45.124  51.447  1.00  0.00     0.063 A 
HETATM    5  N   UNL     1      25.085  44.287  52.472  1.00  0.00    -0.277 N 
HETATM    6  H   UNL     1      24.946  43.283  52.517  1.00  0.00     0.189 HD
HETATM    7  N   UNL     1      25.646  44.898  53.528  1.00  0.00    -0.168 NA
HETATM    8  C   UNL     1      25.682  46.201  53.165  1.00  0.00     0.156 A 
HETATM    9  C   UNL     1      24.127  44.880  50.218  1.00  0.00     0.034 A 
HETATM   10  C   UNL     1      23.887  45.989  49.395  1.00  0.00     0.032 A 
ENDROOT
BRANCH   1  11
HETATM   11  N   UNL     1      23.890  48.342  48.916  1.00  0.00    -0.327 N 
HETATM   12  C   UNL     1      24.686  49.399  48.508  1.00  0.00     0.226 C 
HETATM   13  O   UNL     1      25.913  49.420  48.517  1.00  0.00    -0.273 OA
HETATM   14  H   UNL     1      22.940  48.327  48.564  1.00  0.00     0.169 HD
BRANCH  12  15
HETATM   15  C   UNL     1      23.877  50.611  48.074  1.00  0.00     0.141 C 
BRANCH  15  16
HETATM   16  C   UNL     1      22.451  50.652  48.557  1.00  0.00    -0.049 A 
HETATM   17  C   UNL     1      22.177  50.850  49.917  1.00  0.00     0.008 A 
HETATM   18  C   UNL     1      20.864  51.021  50.363  1.00  0.00     0.007 A 
HETATM   19  C   UNL     1      19.796  51.013  49.458  1.00  0.00    -0.059 A 
HETATM   20  C   UNL     1      20.066  50.788  48.103  1.00  0.00     0.007 A 
HETATM   21  C   UNL     1      21.380  50.611  47.657  1.00  0.00     0.008 A 
BRANCH  19  22
HETATM   22  C   UNL     1      18.384  51.258  49.930  1.00  0.00     0.034 C 
HETATM   23  C   UNL     1      17.825  52.588  49.439  1.00  0.00     0.010 C 
ENDBRANCH  19  22
ENDBRANCH  15  16
ENDBRANCH  12  15
ENDBRANCH   1  11
BRANCH   8  24
HETATM   24  C   UNL     1      26.214  47.229  54.072  1.00  0.00     0.270 C 
HETATM   25  N   UNL     1      27.493  46.991  54.498  1.00  0.00    -0.365 N 
HETATM   26  H   UNL     1      27.960  46.149  54.184  1.00  0.00     0.159 HD
HETATM   27  H   UNL     1      27.932  47.633  55.138  1.00  0.00     0.159 HD
HETATM   28  O   UNL     1      25.595  48.219  54.448  1.00  0.00    -0.266 OA
ENDBRANCH   8  24
TORSDOF 5
ENDMDL
MODEL 6
REMARK VINA RESULT:      -8.2      3.876      4.882
REMARK  5 active torsions:
REMARK  status: ('A' for Active; 'I' for Inactive)
REMARK    1  A    between atoms: C_2  and  C_3 
REMARK    2  A    between atoms: C_6  and  C_7 
REMARK    3  A    between atoms: C_7  and  C_8 
REMARK       I    between atoms: C_8  and  N_9 
REMARK    4  A    between atoms: N_9  and  C_10 
REMARK    5  A    between atoms: C_17  and  C_18 
REMARK       I    between atoms: C_18  and  N_19 
ROOT
HETATM    1  C   UNL     1      26.564  43.498  51.015  1.00  0.00     0.035 A 
HETATM    2  C   UNL     1      25.714  42.735  50.200  1.00  0.00     0.046 A 
HETATM    3  C   UNL     1      24.387  43.164  49.984  1.00  0.00     0.030 A 
HETATM    4  C   UNL     1      23.963  44.353  50.565  1.00  0.00     0.063 A 
HETATM    5  N   UNL     1      22.658  44.495  50.187  1.00  0.00    -0.277 N 
HETATM    6  H   UNL     1      22.027  45.251  50.429  1.00  0.00     0.189 HD
HETATM    7  N   UNL     1      22.184  43.494  49.426  1.00  0.00    -0.168 NA
HETATM    8  C   UNL     1      23.243  42.661  49.293  1.00  0.00     0.156 A 
HETATM    9  C   UNL     1      24.789  45.150  51.360  1.00  0.00     0.034 A 
HETATM   10  C   UNL     1      26.095  44.689  51.581  1.00  0.00     0.032 A 
ENDROOT
BRANCH   1  11
HETATM   11  N   UNL     1      27.861  43.076  51.379  1.00  0.00    -0.327 N 
HETATM   12  C   UNL     1      28.193  42.206  52.404  1.00  0.00     0.226 C 
HETATM   13  O   UNL     1      27.438  41.393  52.930  1.00  0.00    -0.273 OA
HETATM   14  H   UNL     1      28.629  43.448  50.834  1.00  0.00     0.169 HD
BRANCH  12  15
HETATM   15  C   UNL     1      29.623  42.382  52.886  1.00  0.00     0.141 C 
BRANCH  15  16
HETATM   16  C   UNL     1      29.814  43.349  54.025  1.00  0.00    -0.049 A 
HETATM   17  C   UNL     1      28.880  44.372  54.241  1.00  0.00     0.008 A 
HETATM   18  C   UNL     1      28.971  45.195  55.366  1.00  0.00     0.007 A 
HETATM   19  C   UNL     1      29.987  45.005  56.310  1.00  0.00    -0.059 A 
HETATM   20  C   UNL     1      30.937  44.002  56.081  1.00  0.00     0.007 A 
HETATM   21  C   UNL     1      30.850  43.181  54.952  1.00  0.00     0.008 A 
BRANCH  19  22
HETATM   22  C   UNL     1      30.051  45.854  57.555  1.00  0.00     0.034 C 
HETATM   23  C   UNL     1      28.672  46.285  58.041  1.00  0.00     0.010 C 
ENDBRANCH  19  22
ENDBRANCH  15  16
ENDBRANCH  12  15
ENDBRANCH   1  11
BRANCH   8  24
HETATM   24  C   UNL     1      23.134  41.406  48.536  1.00  0.00     0.270 C 
HETATM   25  N   UNL     1      24.301  40.693  48.466  1.00  0.00    -0.365 N 
HETATM   26  H   UNL     1      25.129  41.072  48.910  1.00  0.00     0.159 HD
HETATM   27  H   UNL     1      24.326  39.829  47.950  1.00  0.00     0.159 HD
HETATM   28  O   UNL     1      22.113  41.004  47.989  1.00  0.00    -0.266 OA
ENDBRANCH   8  24
TORSDOF 5
ENDMDL
MODEL 7
REMARK VINA RESULT:      -8.1      4.443      6.180
REMARK  5 active torsions:
REMARK  status: ('A' for Active; 'I' for Inactive)
REMARK    1  A    between atoms: C_2  and  C_3 
REMARK    2  A    between atoms: C_6  and  C_7 
REMARK    3  A    between atoms: C_7  and  C_8 
REMARK       I    between atoms: C_8  and  N_9 
REMARK    4  A    between atoms: N_9  and  C_10 
REMARK    5  A    between atoms: C_17  and  C_18 
REMARK       I    between atoms: C_18  and  N_19 
ROOT
HETATM    1  C   UNL     1      27.746  41.286  50.839  1.00  0.00     0.035 A 
HETATM    2  C   UNL     1      26.516  41.955  50.747  1.00  0.00     0.046 A 
HETATM    3  C   UNL     1      25.551  41.515  49.815  1.00  0.00     0.030 A 
HETATM    4  C   UNL     1      25.836  40.405  49.030  1.00  0.00     0.063 A 
HETATM    5  N   UNL     1      24.735  40.230  48.238  1.00  0.00    -0.277 N 
HETATM    6  H   UNL     1      24.591  39.512  47.537  1.00  0.00     0.189 HD
HETATM    7  N   UNL     1      23.764  41.139  48.424  1.00  0.00    -0.168 NA
HETATM    8  C   UNL     1      24.255  41.942  49.396  1.00  0.00     0.156 A 
HETATM    9  C   UNL     1      27.038  39.700  49.113  1.00  0.00     0.034 A 
HETATM   10  C   UNL     1      27.990  40.173  50.027  1.00  0.00     0.032 A 
ENDROOT
BRANCH   1  11
HETATM   11  N   UNL     1      28.806  41.738  51.655  1.00  0.00    -0.327 N 
HETATM   12  C   UNL     1      28.942  41.543  53.019  1.00  0.00     0.226 C 
HETATM   13  O   UNL     1      28.383  40.674  53.682  1.00  0.00    -0.273 OA
HETATM   14  H   UNL     1      29.543  42.257  51.195  1.00  0.00     0.169 HD
BRANCH  12  15
HETATM   15  C   UNL     1      29.845  42.576  53.673  1.00  0.00     0.141 C 
BRANCH  15  16
HETATM   16  C   UNL     1      29.150  43.791  54.232  1.00  0.00    -0.049 A 
HETATM   17  C   UNL     1      29.776  44.565  55.218  1.00  0.00     0.008 A 
HETATM   18  C   UNL     1      29.205  45.765  55.653  1.00  0.00     0.007 A 
HETATM   19  C   UNL     1      28.004  46.225  55.099  1.00  0.00    -0.059 A 
HETATM   20  C   UNL     1      27.364  45.438  54.134  1.00  0.00     0.007 A 
HETATM   21  C   UNL     1      27.932  44.235  53.703  1.00  0.00     0.008 A 
BRANCH  19  22
HETATM   22  C   UNL     1      27.418  47.548  55.524  1.00  0.00     0.034 C 
HETATM   23  C   UNL     1      26.171  47.919  54.729  1.00  0.00     0.010 C 
ENDBRANCH  19  22
ENDBRANCH  15  16
ENDBRANCH  12  15
ENDBRANCH   1  11
BRANCH   8  24
HETATM   24  C   UNL     1      23.494  43.102  49.883  1.00  0.00     0.270 C 
HETATM   25  N   UNL     1      23.054  43.937  48.892  1.00  0.00    -0.365 N 
HETATM   26  H   UNL     1      23.287  43.716  47.932  1.00  0.00     0.159 HD
HETATM   27  H   UNL     1      22.540  44.769  49.134  1.00  0.00     0.159 HD
HETATM   28  O   UNL     1      23.264  43.343  51.063  1.00  0.00    -0.266 OA
ENDBRANCH   8  24
TORSDOF 5
ENDMDL
MODEL 8
REMARK VINA RESULT:      -7.8      2.524      4.299
REMARK  5 active torsions:
REMARK  status: ('A' for Active; 'I' for Inactive)
REMARK    1  A    between atoms: C_2  and  C_3 
REMARK    2  A    between atoms: C_6  and  C_7 
REMARK    3  A    between atoms: C_7  and  C_8 
REMARK       I    between atoms: C_8  and  N_9 
REMARK    4  A    between atoms: N_9  and  C_10 
REMARK    5  A    between atoms: C_17  and  C_18 
REMARK       I    between atoms: C_18  and  N_19 
ROOT
HETATM    1  C   UNL     1      23.029  49.621  48.961  1.00  0.00     0.035 A 
HETATM    2  C   UNL     1      21.878  49.184  49.634  1.00  0.00     0.046 A 
HETATM    3  C   UNL     1      20.708  49.974  49.600  1.00  0.00     0.030 A 
HETATM    4  C   UNL     1      20.720  51.157  48.871  1.00  0.00     0.063 A 
HETATM    5  N   UNL     1      19.472  51.692  49.030  1.00  0.00    -0.277 N 
HETATM    6  H   UNL     1      19.120  52.559  48.638  1.00  0.00     0.189 HD
HETATM    7  N   UNL     1      18.652  50.973  49.815  1.00  0.00    -0.168 NA
HETATM    8  C   UNL     1      19.404  49.907  50.176  1.00  0.00     0.156 A 
HETATM    9  C   UNL     1      21.838  51.609  48.168  1.00  0.00     0.034 A 
HETATM   10  C   UNL     1      22.995  50.820  48.239  1.00  0.00     0.032 A 
ENDROOT
BRANCH   1  11
HETATM   11  N   UNL     1      24.269  48.953  49.048  1.00  0.00    -0.327 N 
HETATM   12  C   UNL     1      24.495  47.689  49.567  1.00  0.00     0.226 C 
HETATM   13  O   UNL     1      23.652  46.808  49.708  1.00  0.00    -0.273 OA
HETATM   14  H   UNL     1      25.078  49.448  48.694  1.00  0.00     0.169 HD
BRANCH  12  15
HETATM   15  C   UNL     1      25.932  47.487  50.020  1.00  0.00     0.141 C 
BRANCH  15  16
HETATM   16  C   UNL     1      26.125  46.540  51.175  1.00  0.00    -0.049 A 
HETATM   17  C   UNL     1      26.650  45.260  50.953  1.00  0.00     0.008 A 
HETATM   18  C   UNL     1      26.957  44.418  52.026  1.00  0.00     0.007 A 
HETATM   19  C   UNL     1      26.763  44.844  53.345  1.00  0.00    -0.059 A 
HETATM   20  C   UNL     1      26.213  46.112  53.568  1.00  0.00     0.007 A 
HETATM   21  C   UNL     1      25.900  46.952  52.495  1.00  0.00     0.008 A 
BRANCH  19  22
HETATM   22  C   UNL     1      27.150  43.960  54.505  1.00  0.00     0.034 C 
HETATM   23  C   UNL     1      28.605  43.508  54.436  1.00  0.00     0.010 C 
ENDBRANCH  19  22
ENDBRANCH  15  16
ENDBRANCH  12  15
ENDBRANCH   1  11
BRANCH   8  24
HETATM   24  C   UNL     1      18.874  48.870  51.073  1.00  0.00     0.270 C 
HETATM   25  N   UNL     1      18.649  47.665  50.463  1.00  0.00    -0.365 N 
HETATM   26  H   UNL     1      18.842  47.580  49.472  1.00  0.00     0.159 HD
HETATM   27  H   UNL     1      18.267  46.901  50.995  1.00  0.00     0.159 HD
HETATM   28  O   UNL     1      18.627  49.032  52.263  1.00  0.00    -0.266 OA
ENDBRANCH   8  24
TORSDOF 5
ENDMDL
MODEL 9
REMARK VINA RESULT:      -7.8      4.192      5.379
REMARK  5 active torsions:
REMARK  status: ('A' for Active; 'I' for Inactive)
REMARK    1  A    between atoms: C_2  and  C_3 
REMARK    2  A    between atoms: C_6  and  C_7 
REMARK    3  A    between atoms: C_7  and  C_8 
REMARK       I    between atoms: C_8  and  N_9 
REMARK    4  A    between atoms: N_9  and  C_10 
REMARK    5  A    between atoms: C_17  and  C_18 
REMARK       I    between atoms: C_18  and  N_19 
ROOT
HETATM    1  C   UNL     1      26.188  42.618  51.128  1.00  0.00     0.035 A 
HETATM    2  C   UNL     1      25.178  42.983  50.225  1.00  0.00     0.046 A 
HETATM    3  C   UNL     1      24.731  42.050  49.265  1.00  0.00     0.030 A 
HETATM    4  C   UNL     1      25.286  40.777  49.259  1.00  0.00     0.063 A 
HETATM    5  N   UNL     1      24.668  40.118  48.233  1.00  0.00    -0.277 N 
HETATM    6  H   UNL     1      24.826  39.162  47.933  1.00  0.00     0.189 HD
HETATM    7  N   UNL     1      23.772  40.854  47.556  1.00  0.00    -0.168 NA
HETATM    8  C   UNL     1      23.800  42.054  48.183  1.00  0.00     0.156 A 
HETATM    9  C   UNL     1      26.275  40.371  50.158  1.00  0.00     0.034 A 
HETATM   10  C   UNL     1      26.720  41.324  51.085  1.00  0.00     0.032 A 
ENDROOT
BRANCH   1  11
HETATM   11  N   UNL     1      26.774  43.529  52.034  1.00  0.00    -0.327 N 
HETATM   12  C   UNL     1      26.128  44.232  53.036  1.00  0.00     0.226 C 
HETATM   13  O   UNL     1      25.047  43.938  53.539  1.00  0.00    -0.273 OA
HETATM   14  H   UNL     1      27.770  43.684  51.941  1.00  0.00     0.169 HD
BRANCH  12  15
HETATM   15  C   UNL     1      26.876  45.489  53.449  1.00  0.00     0.141 C 
BRANCH  15  16
HETATM   16  C   UNL     1      28.085  45.272  54.321  1.00  0.00    -0.049 A 
HETATM   17  C   UNL     1      28.393  46.191  55.334  1.00  0.00     0.008 A 
HETATM   18  C   UNL     1      29.432  45.939  56.234  1.00  0.00     0.007 A 
HETATM   19  C   UNL     1      30.176  44.756  56.152  1.00  0.00    -0.059 A 
HETATM   20  C   UNL     1      29.887  43.850  55.124  1.00  0.00     0.007 A 
HETATM   21  C   UNL     1      28.852  44.105  54.220  1.00  0.00     0.008 A 
BRANCH  19  22
HETATM   22  C   UNL     1      31.258  44.455  57.160  1.00  0.00     0.034 C 
HETATM   23  C   UNL     1      31.714  43.001  57.113  1.00  0.00     0.010 C 
ENDBRANCH  19  22
ENDBRANCH  15  16
ENDBRANCH  12  15
ENDBRANCH   1  11
BRANCH   8  24
HETATM   24  C   UNL     1      22.963  43.172  47.725  1.00  0.00     0.270 C 
HETATM   25  N   UNL     1      23.623  44.079  46.940  1.00  0.00    -0.365 N 
HETATM   26  H   UNL     1      24.607  43.931  46.749  1.00  0.00     0.159 HD
HETATM   27  H   UNL     1      23.134  44.889  46.597  1.00  0.00     0.159 HD
HETATM   28  O   UNL     1      21.781  43.324  48.009  1.00  0.00    -0.266 OA
ENDBRANCH   8  24
TORSDOF 5
ENDMDL
MODEL 10
REMARK VINA RESULT:      -7.7      5.484      7.567
REMARK  5 active torsions:
REMARK  status: ('A' for Active; 'I' for Inactive)
REMARK    1  A    between atoms: C_2  and  C_3 
REMARK    2  A    between atoms: C_6  and  C_7 
REMARK    3  A    between atoms: C_7  and  C_8 
REMARK       I    between atoms: C_8  and  N_9 
REMARK    4  A    between atoms: N_9  and  C_10 
REMARK    5  A    between atoms: C_17  and  C_18 
REMARK       I    between atoms: C_18  and  N_19 
ROOT
HETATM    1  C   UNL     1      27.308  40.734  51.053  1.00  0.00     0.035 A 
HETATM    2  C   UNL     1      26.691  40.240  49.894  1.00  0.00     0.046 A 
HETATM    3  C   UNL     1      27.318  39.213  49.155  1.00  0.00     0.030 A 
HETATM    4  C   UNL     1      28.522  38.695  49.615  1.00  0.00     0.063 A 
HETATM    5  N   UNL     1      28.876  37.740  48.704  1.00  0.00    -0.277 N 
HETATM    6  H   UNL     1      29.704  37.154  48.719  1.00  0.00     0.189 HD
HETATM    7  N   UNL     1      28.020  37.601  47.679  1.00  0.00    -0.168 NA
HETATM    8  C   UNL     1      27.050  38.507  47.943  1.00  0.00     0.156 A 
HETATM    9  C   UNL     1      29.151  39.145  50.778  1.00  0.00     0.034 A 
HETATM   10  C   UNL     1      28.522  40.184  51.479  1.00  0.00     0.032 A 
ENDROOT
BRANCH   1  11
HETATM   11  N   UNL     1      26.810  41.840  51.776  1.00  0.00    -0.327 N 
HETATM   12  C   UNL     1      27.152  43.169  51.596  1.00  0.00     0.226 C 
HETATM   13  O   UNL     1      27.652  43.654  50.585  1.00  0.00    -0.273 OA
HETATM   14  H   UNL     1      26.131  41.640  52.500  1.00  0.00     0.169 HD
BRANCH  12  15
HETATM   15  C   UNL     1      26.895  44.015  52.833  1.00  0.00     0.141 C 
BRANCH  15  16
HETATM   16  C   UNL     1      28.065  44.178  53.767  1.00  0.00    -0.049 A 
HETATM   17  C   UNL     1      28.152  45.308  54.593  1.00  0.00     0.008 A 
HETATM   18  C   UNL     1      29.159  45.412  55.557  1.00  0.00     0.007 A 
HETATM   19  C   UNL     1      30.092  44.383  55.728  1.00  0.00    -0.059 A 
HETATM   20  C   UNL     1      30.023  43.267  54.885  1.00  0.00     0.007 A 
HETATM   21  C   UNL     1      29.020  43.164  53.917  1.00  0.00     0.008 A 
BRANCH  19  22
HETATM   22  C   UNL     1      31.142  44.467  56.807  1.00  0.00     0.034 C 
HETATM   23  C   UNL     1      31.802  43.122  57.089  1.00  0.00     0.010 C 
ENDBRANCH  19  22
ENDBRANCH  15  16
ENDBRANCH  12  15
ENDBRANCH   1  11
BRANCH   8  24
HETATM   24  C   UNL     1      25.912  38.693  47.031  1.00  0.00     0.270 C 
HETATM   25  N   UNL     1      24.751  39.062  47.654  1.00  0.00    -0.365 N 
HETATM   26  H   UNL     1      24.752  39.163  48.663  1.00  0.00     0.159 HD
HETATM   27  H   UNL     1      23.914  39.193  47.110  1.00  0.00     0.159 HD
HETATM   28  O   UNL     1      25.954  38.529  45.817  1.00  0.00    -0.266 OA
ENDBRANCH   8  24
TORSDOF 5
ENDMDL
