MODEL 1
REMARK VINA RESULT:      -9.3      0.000      0.000
REMARK  10 active torsions:
REMARK  status: ('A' for Active; 'I' for Inactive)
REMARK    1  A    between atoms: C_4  and  N_5 
REMARK    2  A    between atoms: N_5  and  C_6 
REMARK    3  A    between atoms: C_6  and  N_7 
REMARK    4  A    between atoms: N_7  and  N_8 
REMARK       I    between atoms: N_8  and  C_9 
REMARK    5  A    between atoms: C_9  and  C_10 
REMARK    6  A    between atoms: C_10  and  O_11 
REMARK    7  A    between atoms: O_11  and  C_12 
REMARK    8  A    between atoms: C_23  and  C_24 
REMARK    9  A    between atoms: C_24  and  O_25 
REMARK   10  A    between atoms: C_28  and  C_29 
ROOT
HETATM    1  C   UNL     1      23.438  44.587  49.083  1.00  0.00     0.191 C 
HETATM    2  S   UNL     1      24.246  43.224  48.514  1.00  0.00    -0.039 SA
ENDROOT
BRANCH   1   3
HETATM    3  N   UNL     1      22.781  45.352  48.158  1.00  0.00    -0.325 N 
HETATM    4  H   UNL     1      23.336  45.490  47.319  1.00  0.00     0.169 HD
BRANCH   3   5
HETATM    5  C   UNL     1      21.810  46.310  48.369  1.00  0.00     0.094 C 
HETATM    6  S   UNL     1      20.276  45.589  48.543  1.00  0.00    -0.075 SA
HETATM    7  C   UNL     1      19.487  47.101  48.612  1.00  0.00    -0.007 C 
HETATM    8  C   UNL     1      17.993  47.145  48.653  1.00  0.00     0.057 C 
HETATM    9  C   UNL     1      20.401  48.142  48.644  1.00  0.00     0.006 C 
HETATM   10  C   UNL     1      21.778  47.677  48.584  1.00  0.00     0.085 C 
BRANCH   9  11
HETATM   11  C   UNL     1      19.961  49.534  48.707  1.00  0.00    -0.024 A 
HETATM   12  C   UNL     1      19.739  50.242  47.519  1.00  0.00     0.012 A 
HETATM   13  C   UNL     1      19.334  51.578  47.564  1.00  0.00     0.001 A 
HETATM   14  C   UNL     1      19.150  52.211  48.792  1.00  0.00     0.000 A 
HETATM   15  C   UNL     1      19.372  51.511  49.978  1.00  0.00     0.001 A 
HETATM   16  C   UNL     1      19.779  50.175  49.937  1.00  0.00     0.012 A 
ENDBRANCH   9  11
BRANCH  10  17
HETATM   17  C   UNL     1      22.950  48.524  48.790  1.00  0.00     0.296 C 
HETATM   18  O   UNL     1      23.530  48.627  49.862  1.00  0.00    -0.259 OA
BRANCH  17  19
HETATM   19  O   UNL     1      23.300  49.211  47.665  1.00  0.00    -0.322 OA
HETATM   20  C   UNL     1      23.541  50.602  47.868  1.00  0.00     0.213 C 
ENDBRANCH  17  19
ENDBRANCH  10  17
ENDBRANCH   3   5
ENDBRANCH   1   3
BRANCH   1  21
HETATM   21  N   UNL     1      23.536  45.039  50.367  1.00  0.00    -0.273 N 
HETATM   22  H   UNL     1      22.787  45.599  50.772  1.00  0.00     0.189 HD
BRANCH  21  23
HETATM   23  N   UNL     1      24.356  44.409  51.318  1.00  0.00    -0.266 N 
HETATM   24  C   UNL     1      25.159  45.210  52.112  1.00  0.00     0.265 C 
HETATM   25  O   UNL     1      25.146  46.439  52.015  1.00  0.00    -0.269 OA
HETATM   26  H   UNL     1      24.434  43.398  51.258  1.00  0.00     0.190 HD
BRANCH  24  27
HETATM   27  C   UNL     1      26.092  44.450  53.077  1.00  0.00     0.218 C 
HETATM   28  C   UNL     1      25.493  44.326  54.476  1.00  0.00     0.050 C 
BRANCH  27  29
HETATM   29  O   UNL     1      27.302  45.215  53.175  1.00  0.00    -0.335 OA
BRANCH  29  30
HETATM   30  C   UNL     1      28.248  44.758  54.049  1.00  0.00     0.091 A 
HETATM   31  C   UNL     1      28.695  45.623  55.060  1.00  0.00     0.068 A 
HETATM   32 CL   UNL     1      27.992  47.186  55.275  1.00  0.00    -0.081 Cl
HETATM   33  C   UNL     1      29.718  45.234  55.925  1.00  0.00     0.046 A 
HETATM   34  C   UNL     1      30.306  43.982  55.769  1.00  0.00     0.012 A 
HETATM   35 BR   UNL     1      31.704  43.453  56.927  1.00  0.00    -0.051 Br
HETATM   36  C   UNL     1      29.885  43.121  54.755  1.00  0.00     0.022 A 
HETATM   37  C   UNL     1      28.862  43.513  53.887  1.00  0.00     0.040 A 
ENDBRANCH  29  30
ENDBRANCH  27  29
ENDBRANCH  24  27
ENDBRANCH  21  23
ENDBRANCH   1  21
TORSDOF 10
ENDMDL
MODEL 2
REMARK VINA RESULT:      -9.0      1.673      2.077
REMARK  10 active torsions:
REMARK  status: ('A' for Active; 'I' for Inactive)
REMARK    1  A    between atoms: C_4  and  N_5 
REMARK    2  A    between atoms: N_5  and  C_6 
REMARK    3  A    between atoms: C_6  and  N_7 
REMARK    4  A    between atoms: N_7  and  N_8 
REMARK       I    between atoms: N_8  and  C_9 
REMARK    5  A    between atoms: C_9  and  C_10 
REMARK    6  A    between atoms: C_10  and  O_11 
REMARK    7  A    between atoms: O_11  and  C_12 
REMARK    8  A    between atoms: C_23  and  C_24 
REMARK    9  A    between atoms: C_24  and  O_25 
REMARK   10  A    between atoms: C_28  and  C_29 
ROOT
HETATM    1  C   UNL     1      22.632  44.457  48.424  1.00  0.00     0.191 C 
HETATM    2  S   UNL     1      23.396  43.130  47.725  1.00  0.00    -0.039 SA
ENDROOT
BRANCH   1   3
HETATM    3  N   UNL     1      21.834  45.214  47.612  1.00  0.00    -0.325 N 
HETATM    4  H   UNL     1      22.198  45.265  46.666  1.00  0.00     0.169 HD
BRANCH   3   5
HETATM    5  C   UNL     1      20.991  46.251  47.960  1.00  0.00     0.094 C 
HETATM    6  S   UNL     1      19.439  45.665  48.350  1.00  0.00    -0.075 SA
HETATM    7  C   UNL     1      18.806  47.240  48.532  1.00  0.00    -0.007 C 
HETATM    8  C   UNL     1      17.342  47.415  48.784  1.00  0.00     0.057 C 
HETATM    9  C   UNL     1      19.804  48.196  48.435  1.00  0.00     0.006 C 
HETATM   10  C   UNL     1      21.112  47.613  48.178  1.00  0.00     0.085 C 
BRANCH   9  11
HETATM   11  C   UNL     1      19.503  49.621  48.561  1.00  0.00    -0.024 A 
HETATM   12  C   UNL     1      19.191  50.364  47.415  1.00  0.00     0.012 A 
HETATM   13  C   UNL     1      18.918  51.730  47.518  1.00  0.00     0.001 A 
HETATM   14  C   UNL     1      18.954  52.356  48.763  1.00  0.00     0.000 A 
HETATM   15  C   UNL     1      19.265  51.621  49.906  1.00  0.00     0.001 A 
HETATM   16  C   UNL     1      19.542  50.256  49.807  1.00  0.00     0.012 A 
ENDBRANCH   9  11
BRANCH  10  17
HETATM   17  C   UNL     1      22.371  48.350  48.217  1.00  0.00     0.296 C 
HETATM   18  O   UNL     1      22.623  49.301  47.489  1.00  0.00    -0.259 OA
BRANCH  17  19
HETATM   19  O   UNL     1      23.246  47.838  49.131  1.00  0.00    -0.322 OA
HETATM   20  C   UNL     1      24.464  48.568  49.262  1.00  0.00     0.213 C 
ENDBRANCH  17  19
ENDBRANCH  10  17
ENDBRANCH   3   5
ENDBRANCH   1   3
BRANCH   1  21
HETATM   21  N   UNL     1      22.888  44.890  49.693  1.00  0.00    -0.273 N 
HETATM   22  H   UNL     1      22.197  44.757  50.430  1.00  0.00     0.189 HD
BRANCH  21  23
HETATM   23  N   UNL     1      24.197  45.076  50.166  1.00  0.00    -0.266 N 
HETATM   24  C   UNL     1      24.694  44.156  51.075  1.00  0.00     0.265 C 
HETATM   25  O   UNL     1      24.027  43.187  51.445  1.00  0.00    -0.269 OA
HETATM   26  H   UNL     1      24.645  45.960  49.943  1.00  0.00     0.190 HD
BRANCH  24  27
HETATM   27  C   UNL     1      26.104  44.466  51.615  1.00  0.00     0.218 C 
HETATM   28  C   UNL     1      27.148  44.510  50.501  1.00  0.00     0.050 C 
BRANCH  27  29
HETATM   29  O   UNL     1      26.451  43.399  52.510  1.00  0.00    -0.335 OA
BRANCH  29  30
HETATM   30  C   UNL     1      27.538  43.600  53.314  1.00  0.00     0.091 A 
HETATM   31  C   UNL     1      28.481  42.568  53.432  1.00  0.00     0.068 A 
HETATM   32 CL   UNL     1      28.343  41.119  52.499  1.00  0.00    -0.081 Cl
HETATM   33  C   UNL     1      29.564  42.691  54.304  1.00  0.00     0.046 A 
HETATM   34  C   UNL     1      29.695  43.845  55.071  1.00  0.00     0.012 A 
HETATM   35 BR   UNL     1      31.149  44.014  56.266  1.00  0.00    -0.051 Br
HETATM   36  C   UNL     1      28.753  44.870  54.979  1.00  0.00     0.022 A 
HETATM   37  C   UNL     1      27.667  44.743  54.107  1.00  0.00     0.040 A 
ENDBRANCH  29  30
ENDBRANCH  27  29
ENDBRANCH  24  27
ENDBRANCH  21  23
ENDBRANCH   1  21
TORSDOF 10
ENDMDL
MODEL 3
REMARK VINA RESULT:      -8.8      4.353      9.857
REMARK  10 active torsions:
REMARK  status: ('A' for Active; 'I' for Inactive)
REMARK    1  A    between atoms: C_4  and  N_5 
REMARK    2  A    between atoms: N_5  and  C_6 
REMARK    3  A    between atoms: C_6  and  N_7 
REMARK    4  A    between atoms: N_7  and  N_8 
REMARK       I    between atoms: N_8  and  C_9 
REMARK    5  A    between atoms: C_9  and  C_10 
REMARK    6  A    between atoms: C_10  and  O_11 
REMARK    7  A    between atoms: O_11  and  C_12 
REMARK    8  A    between atoms: C_23  and  C_24 
REMARK    9  A    between atoms: C_24  and  O_25 
REMARK   10  A    between atoms: C_28  and  C_29 
ROOT
HETATM    1  C   UNL     1      22.851  44.769  48.146  1.00  0.00     0.191 C 
HETATM    2  S   UNL     1      21.604  44.177  47.183  1.00  0.00    -0.039 SA
ENDROOT
BRANCH   1   3
HETATM    3  N   UNL     1      24.086  44.206  47.981  1.00  0.00    -0.325 N 
HETATM    4  H   UNL     1      24.187  43.779  47.065  1.00  0.00     0.169 HD
BRANCH   3   5
HETATM    5  C   UNL     1      24.941  43.707  48.944  1.00  0.00     0.094 C 
HETATM    6  S   UNL     1      24.914  42.004  48.954  1.00  0.00    -0.075 SA
HETATM    7  C   UNL     1      25.933  41.919  50.320  1.00  0.00    -0.007 C 
HETATM    8  C   UNL     1      26.218  40.587  50.939  1.00  0.00     0.057 C 
HETATM    9  C   UNL     1      26.402  43.174  50.675  1.00  0.00     0.006 C 
HETATM   10  C   UNL     1      25.883  44.226  49.815  1.00  0.00     0.085 C 
BRANCH   9  11
HETATM   11  C   UNL     1      27.297  43.353  51.817  1.00  0.00    -0.024 A 
HETATM   12  C   UNL     1      28.667  43.105  51.665  1.00  0.00     0.012 A 
HETATM   13  C   UNL     1      29.532  43.257  52.752  1.00  0.00     0.001 A 
HETATM   14  C   UNL     1      29.032  43.656  53.990  1.00  0.00     0.000 A 
HETATM   15  C   UNL     1      27.669  43.903  54.146  1.00  0.00     0.001 A 
HETATM   16  C   UNL     1      26.801  43.750  53.063  1.00  0.00     0.012 A 
ENDBRANCH   9  11
BRANCH  10  17
HETATM   17  C   UNL     1      26.346  45.611  49.826  1.00  0.00     0.296 C 
HETATM   18  O   UNL     1      27.424  45.969  49.371  1.00  0.00    -0.259 OA
BRANCH  17  19
HETATM   19  O   UNL     1      25.459  46.451  50.433  1.00  0.00    -0.322 OA
HETATM   20  C   UNL     1      25.961  47.112  51.592  1.00  0.00     0.213 C 
ENDBRANCH  17  19
ENDBRANCH  10  17
ENDBRANCH   3   5
ENDBRANCH   1   3
BRANCH   1  21
HETATM   21  N   UNL     1      22.658  45.653  49.168  1.00  0.00    -0.273 N 
HETATM   22  H   UNL     1      22.829  45.369  50.132  1.00  0.00     0.189 HD
BRANCH  21  23
HETATM   23  N   UNL     1      22.698  47.043  48.968  1.00  0.00    -0.266 N 
HETATM   24  C   UNL     1      21.497  47.702  48.762  1.00  0.00     0.265 C 
HETATM   25  O   UNL     1      20.419  47.103  48.774  1.00  0.00    -0.269 OA
HETATM   26  H   UNL     1      23.613  47.459  48.824  1.00  0.00     0.190 HD
BRANCH  24  27
HETATM   27  C   UNL     1      21.621  49.211  48.468  1.00  0.00     0.218 C 
HETATM   28  C   UNL     1      23.067  49.627  48.207  1.00  0.00     0.050 C 
BRANCH  27  29
HETATM   29  O   UNL     1      21.162  49.901  49.639  1.00  0.00    -0.335 OA
BRANCH  29  30
HETATM   30  C   UNL     1      20.037  50.665  49.499  1.00  0.00     0.091 A 
HETATM   31  C   UNL     1      18.864  50.251  50.150  1.00  0.00     0.068 A 
HETATM   32 CL   UNL     1      18.860  48.875  51.196  1.00  0.00    -0.081 Cl
HETATM   33  C   UNL     1      17.669  50.949  49.972  1.00  0.00     0.046 A 
HETATM   34  C   UNL     1      17.644  52.056  49.129  1.00  0.00     0.012 A 
HETATM   35 BR   UNL     1      16.026  52.998  48.870  1.00  0.00    -0.051 Br
HETATM   36  C   UNL     1      18.797  52.466  48.460  1.00  0.00     0.022 A 
HETATM   37  C   UNL     1      19.993  51.764  48.637  1.00  0.00     0.040 A 
ENDBRANCH  29  30
ENDBRANCH  27  29
ENDBRANCH  24  27
ENDBRANCH  21  23
ENDBRANCH   1  21
TORSDOF 10
ENDMDL
MODEL 4
REMARK VINA RESULT:      -8.4      2.188      3.116
REMARK  10 active torsions:
REMARK  status: ('A' for Active; 'I' for Inactive)
REMARK    1  A    between atoms: C_4  and  N_5 
REMARK    2  A    between atoms: N_5  and  C_6 
REMARK    3  A    between atoms: C_6  and  N_7 
REMARK    4  A    between atoms: N_7  and  N_8 
REMARK       I    between atoms: N_8  and  C_9 
REMARK    5  A    between atoms: C_9  and  C_10 
REMARK    6  A    between atoms: C_10  and  O_11 
REMARK    7  A    between atoms: O_11  and  C_12 
REMARK    8  A    between atoms: C_23  and  C_24 
REMARK    9  A    between atoms: C_24  and  O_25 
REMARK   10  A    between atoms: C_28  and  C_29 
ROOT
HETATM    1  C   UNL     1      23.271  45.156  48.179  1.00  0.00     0.191 C 
HETATM    2  S   UNL     1      22.407  44.850  46.768  1.00  0.00    -0.039 SA
ENDROOT
BRANCH   1   3
HETATM    3  N   UNL     1      22.673  45.954  49.114  1.00  0.00    -0.325 N 
HETATM    4  H   UNL     1      22.120  45.415  49.774  1.00  0.00     0.169 HD
BRANCH   3   5
HETATM    5  C   UNL     1      22.302  47.280  49.004  1.00  0.00     0.094 C 
HETATM    6  S   UNL     1      23.671  48.294  49.021  1.00  0.00    -0.075 SA
HETATM    7  C   UNL     1      22.719  49.710  49.021  1.00  0.00    -0.007 C 
HETATM    8  C   UNL     1      23.386  51.041  49.154  1.00  0.00     0.057 C 
HETATM    9  C   UNL     1      21.375  49.410  48.866  1.00  0.00     0.006 C 
HETATM   10  C   UNL     1      21.130  47.979  48.773  1.00  0.00     0.085 C 
BRANCH   9  11
HETATM   11  C   UNL     1      20.362  50.463  48.833  1.00  0.00    -0.024 A 
HETATM   12  C   UNL     1      19.736  50.856  50.023  1.00  0.00     0.012 A 
HETATM   13  C   UNL     1      18.754  51.850  50.005  1.00  0.00     0.001 A 
HETATM   14  C   UNL     1      18.396  52.453  48.800  1.00  0.00     0.000 A 
HETATM   15  C   UNL     1      19.016  52.065  47.613  1.00  0.00     0.001 A 
HETATM   16  C   UNL     1      19.995  51.070  47.627  1.00  0.00     0.012 A 
ENDBRANCH   9  11
BRANCH  10  17
HETATM   17  C   UNL     1      19.848  47.377  48.418  1.00  0.00     0.296 C 
HETATM   18  O   UNL     1      19.004  47.937  47.732  1.00  0.00    -0.259 OA
BRANCH  17  19
HETATM   19  O   UNL     1      19.685  46.139  48.966  1.00  0.00    -0.322 OA
HETATM   20  C   UNL     1      18.939  45.226  48.163  1.00  0.00     0.213 C 
ENDBRANCH  17  19
ENDBRANCH  10  17
ENDBRANCH   3   5
ENDBRANCH   1   3
BRANCH   1  21
HETATM   21  N   UNL     1      24.571  44.781  48.362  1.00  0.00    -0.273 N 
HETATM   22  H   UNL     1      25.328  45.395  48.063  1.00  0.00     0.189 HD
BRANCH  21  23
HETATM   23  N   UNL     1      24.947  43.847  49.341  1.00  0.00    -0.266 N 
HETATM   24  C   UNL     1      26.246  43.899  49.819  1.00  0.00     0.265 C 
HETATM   25  O   UNL     1      27.048  44.748  49.425  1.00  0.00    -0.269 OA
HETATM   26  H   UNL     1      24.298  43.087  49.523  1.00  0.00     0.190 HD
BRANCH  24  27
HETATM   27  C   UNL     1      26.614  42.795  50.830  1.00  0.00     0.218 C 
HETATM   28  C   UNL     1      25.801  41.522  50.611  1.00  0.00     0.050 C 
BRANCH  27  29
HETATM   29  O   UNL     1      26.303  43.305  52.135  1.00  0.00    -0.335 OA
BRANCH  29  30
HETATM   30  C   UNL     1      27.339  43.390  53.024  1.00  0.00     0.091 A 
HETATM   31  C   UNL     1      27.282  44.376  54.021  1.00  0.00     0.068 A 
HETATM   32 CL   UNL     1      25.891  45.386  54.203  1.00  0.00    -0.081 Cl
HETATM   33  C   UNL     1      28.350  44.559  54.900  1.00  0.00     0.046 A 
HETATM   34  C   UNL     1      29.485  43.763  54.771  1.00  0.00     0.012 A 
HETATM   35 BR   UNL     1      30.943  44.015  55.947  1.00  0.00    -0.051 Br
HETATM   36  C   UNL     1      29.563  42.794  53.770  1.00  0.00     0.022 A 
HETATM   37  C   UNL     1      28.493  42.614  52.888  1.00  0.00     0.040 A 
ENDBRANCH  29  30
ENDBRANCH  27  29
ENDBRANCH  24  27
ENDBRANCH  21  23
ENDBRANCH   1  21
TORSDOF 10
ENDMDL
MODEL 5
REMARK VINA RESULT:      -8.0      2.642      3.447
REMARK  10 active torsions:
REMARK  status: ('A' for Active; 'I' for Inactive)
REMARK    1  A    between atoms: C_4  and  N_5 
REMARK    2  A    between atoms: N_5  and  C_6 
REMARK    3  A    between atoms: C_6  and  N_7 
REMARK    4  A    between atoms: N_7  and  N_8 
REMARK       I    between atoms: N_8  and  C_9 
REMARK    5  A    between atoms: C_9  and  C_10 
REMARK    6  A    between atoms: C_10  and  O_11 
REMARK    7  A    between atoms: O_11  and  C_12 
REMARK    8  A    between atoms: C_23  and  C_24 
REMARK    9  A    between atoms: C_24  and  O_25 
REMARK   10  A    between atoms: C_28  and  C_29 
ROOT
HETATM    1  C   UNL     1      24.804  46.816  50.225  1.00  0.00     0.191 C 
HETATM    2  S   UNL     1      25.308  47.163  51.793  1.00  0.00    -0.039 SA
ENDROOT
BRANCH   1   3
HETATM    3  N   UNL     1      24.397  47.870  49.455  1.00  0.00    -0.325 N 
HETATM    4  H   UNL     1      25.099  48.603  49.417  1.00  0.00     0.169 HD
BRANCH   3   5
HETATM    5  C   UNL     1      23.111  48.292  49.185  1.00  0.00     0.094 C 
HETATM    6  S   UNL     1      22.939  49.956  49.510  1.00  0.00    -0.075 SA
HETATM    7  C   UNL     1      21.263  49.924  49.190  1.00  0.00    -0.007 C 
HETATM    8  C   UNL     1      20.449  51.157  49.427  1.00  0.00     0.057 C 
HETATM    9  C   UNL     1      20.868  48.688  48.704  1.00  0.00     0.006 C 
HETATM   10  C   UNL     1      21.972  47.744  48.621  1.00  0.00     0.085 C 
BRANCH   9  11
HETATM   11  C   UNL     1      19.474  48.421  48.355  1.00  0.00    -0.024 A 
HETATM   12  C   UNL     1      19.001  48.774  47.084  1.00  0.00     0.012 A 
HETATM   13  C   UNL     1      17.667  48.540  46.743  1.00  0.00     0.001 A 
HETATM   14  C   UNL     1      16.803  47.953  47.666  1.00  0.00     0.000 A 
HETATM   15  C   UNL     1      17.270  47.601  48.932  1.00  0.00     0.001 A 
HETATM   16  C   UNL     1      18.602  47.836  49.279  1.00  0.00     0.012 A 
ENDBRANCH   9  11
BRANCH  10  17
HETATM   17  C   UNL     1      21.899  46.438  47.973  1.00  0.00     0.296 C 
HETATM   18  O   UNL     1      21.799  45.382  48.585  1.00  0.00    -0.259 OA
BRANCH  17  19
HETATM   19  O   UNL     1      21.992  46.525  46.615  1.00  0.00    -0.322 OA
HETATM   20  C   UNL     1      20.959  45.845  45.904  1.00  0.00     0.213 C 
ENDBRANCH  17  19
ENDBRANCH  10  17
ENDBRANCH   3   5
ENDBRANCH   1   3
BRANCH   1  21
HETATM   21  N   UNL     1      24.639  45.547  49.751  1.00  0.00    -0.273 N 
HETATM   22  H   UNL     1      24.329  45.394  48.792  1.00  0.00     0.189 HD
BRANCH  21  23
HETATM   23  N   UNL     1      25.306  44.448  50.316  1.00  0.00    -0.266 N 
HETATM   24  C   UNL     1      26.647  44.279  50.014  1.00  0.00     0.265 C 
HETATM   25  O   UNL     1      27.254  45.074  49.293  1.00  0.00    -0.269 OA
HETATM   26  H   UNL     1      24.730  43.751  50.780  1.00  0.00     0.190 HD
BRANCH  24  27
HETATM   27  C   UNL     1      27.295  43.009  50.601  1.00  0.00     0.218 C 
HETATM   28  C   UNL     1      26.827  41.743  49.886  1.00  0.00     0.050 C 
BRANCH  27  29
HETATM   29  O   UNL     1      26.880  42.926  51.972  1.00  0.00    -0.335 OA
BRANCH  29  30
HETATM   30  C   UNL     1      27.779  43.347  52.912  1.00  0.00     0.091 A 
HETATM   31  C   UNL     1      28.715  42.423  53.402  1.00  0.00     0.068 A 
HETATM   32 CL   UNL     1      28.813  40.822  52.758  1.00  0.00    -0.081 Cl
HETATM   33  C   UNL     1      29.599  42.780  54.421  1.00  0.00     0.046 A 
HETATM   34  C   UNL     1      29.536  44.061  54.962  1.00  0.00     0.012 A 
HETATM   35 BR   UNL     1      30.719  44.547  56.354  1.00  0.00    -0.051 Br
HETATM   36  C   UNL     1      28.597  44.982  54.499  1.00  0.00     0.022 A 
HETATM   37  C   UNL     1      27.710  44.622  53.480  1.00  0.00     0.040 A 
ENDBRANCH  29  30
ENDBRANCH  27  29
ENDBRANCH  24  27
ENDBRANCH  21  23
ENDBRANCH   1  21
TORSDOF 10
ENDMDL
MODEL 6
REMARK VINA RESULT:      -7.9      4.909     10.099
REMARK  10 active torsions:
REMARK  status: ('A' for Active; 'I' for Inactive)
REMARK    1  A    between atoms: C_4  and  N_5 
REMARK    2  A    between atoms: N_5  and  C_6 
REMARK    3  A    between atoms: C_6  and  N_7 
REMARK    4  A    between atoms: N_7  and  N_8 
REMARK       I    between atoms: N_8  and  C_9 
REMARK    5  A    between atoms: C_9  and  C_10 
REMARK    6  A    between atoms: C_10  and  O_11 
REMARK    7  A    between atoms: O_11  and  C_12 
REMARK    8  A    between atoms: C_23  and  C_24 
REMARK    9  A    between atoms: C_24  and  O_25 
REMARK   10  A    between atoms: C_28  and  C_29 
ROOT
HETATM    1  C   UNL     1      22.909  45.636  48.663  1.00  0.00     0.191 C 
HETATM    2  S   UNL     1      21.643  44.535  48.795  1.00  0.00    -0.039 SA
ENDROOT
BRANCH   1   3
HETATM    3  N   UNL     1      24.170  45.166  48.906  1.00  0.00    -0.325 N 
HETATM    4  H   UNL     1      24.417  44.405  48.280  1.00  0.00     0.169 HD
BRANCH   3   5
HETATM    5  C   UNL     1      24.886  45.194  50.086  1.00  0.00     0.094 C 
HETATM    6  S   UNL     1      25.394  43.628  50.524  1.00  0.00    -0.075 SA
HETATM    7  C   UNL     1      26.037  44.167  52.009  1.00  0.00    -0.007 C 
HETATM    8  C   UNL     1      26.572  43.165  52.982  1.00  0.00     0.057 C 
HETATM    9  C   UNL     1      25.990  45.549  52.104  1.00  0.00     0.006 C 
HETATM   10  C   UNL     1      25.385  46.167  50.934  1.00  0.00     0.085 C 
BRANCH   9  11
HETATM   11  C   UNL     1      26.488  46.245  53.289  1.00  0.00    -0.024 A 
HETATM   12  C   UNL     1      25.747  47.303  53.831  1.00  0.00     0.012 A 
HETATM   13  C   UNL     1      26.219  47.987  54.953  1.00  0.00     0.001 A 
HETATM   14  C   UNL     1      27.430  47.618  55.536  1.00  0.00     0.000 A 
HETATM   15  C   UNL     1      28.172  46.567  55.000  1.00  0.00     0.001 A 
HETATM   16  C   UNL     1      27.705  45.882  53.876  1.00  0.00     0.012 A 
ENDBRANCH   9  11
BRANCH  10  17
HETATM   17  C   UNL     1      25.373  47.603  50.667  1.00  0.00     0.296 C 
HETATM   18  O   UNL     1      24.349  48.257  50.528  1.00  0.00    -0.259 OA
BRANCH  17  19
HETATM   19  O   UNL     1      26.630  48.122  50.557  1.00  0.00    -0.322 OA
HETATM   20  C   UNL     1      26.993  48.523  49.238  1.00  0.00     0.213 C 
ENDBRANCH  17  19
ENDBRANCH  10  17
ENDBRANCH   3   5
ENDBRANCH   1   3
BRANCH   1  21
HETATM   21  N   UNL     1      22.726  46.976  48.482  1.00  0.00    -0.273 N 
HETATM   22  H   UNL     1      23.028  47.424  47.617  1.00  0.00     0.189 HD
BRANCH  21  23
HETATM   23  N   UNL     1      21.742  47.695  49.181  1.00  0.00    -0.266 N 
HETATM   24  C   UNL     1      20.701  48.245  48.451  1.00  0.00     0.265 C 
HETATM   25  O   UNL     1      20.616  48.095  47.230  1.00  0.00    -0.269 OA
HETATM   26  H   UNL     1      21.935  47.908  50.155  1.00  0.00     0.190 HD
BRANCH  24  27
HETATM   27  C   UNL     1      19.702  49.088  49.270  1.00  0.00     0.218 C 
HETATM   28  C   UNL     1      18.960  48.250  50.308  1.00  0.00     0.050 C 
BRANCH  27  29
HETATM   29  O   UNL     1      18.739  49.608  48.342  1.00  0.00    -0.335 OA
BRANCH  29  30
HETATM   30  C   UNL     1      17.905  50.587  48.807  1.00  0.00     0.091 A 
HETATM   31  C   UNL     1      16.530  50.469  48.551  1.00  0.00     0.068 A 
HETATM   32 CL   UNL     1      15.882  49.070  47.771  1.00  0.00    -0.081 Cl
HETATM   33  C   UNL     1      15.649  51.482  48.931  1.00  0.00     0.046 A 
HETATM   34  C   UNL     1      16.146  52.622  49.556  1.00  0.00     0.012 A 
HETATM   35 BR   UNL     1      14.960  54.005  50.060  1.00  0.00    -0.051 Br
HETATM   36  C   UNL     1      17.513  52.761  49.797  1.00  0.00     0.022 A 
HETATM   37  C   UNL     1      18.396  51.747  49.413  1.00  0.00     0.040 A 
ENDBRANCH  29  30
ENDBRANCH  27  29
ENDBRANCH  24  27
ENDBRANCH  21  23
ENDBRANCH   1  21
TORSDOF 10
ENDMDL
MODEL 7
REMARK VINA RESULT:      -7.9      4.108      9.875
REMARK  10 active torsions:
REMARK  status: ('A' for Active; 'I' for Inactive)
REMARK    1  A    between atoms: C_4  and  N_5 
REMARK    2  A    between atoms: N_5  and  C_6 
REMARK    3  A    between atoms: C_6  and  N_7 
REMARK    4  A    between atoms: N_7  and  N_8 
REMARK       I    between atoms: N_8  and  C_9 
REMARK    5  A    between atoms: C_9  and  C_10 
REMARK    6  A    between atoms: C_10  and  O_11 
REMARK    7  A    between atoms: O_11  and  C_12 
REMARK    8  A    between atoms: C_23  and  C_24 
REMARK    9  A    between atoms: C_24  and  O_25 
REMARK   10  A    between atoms: C_28  and  C_29 
ROOT
HETATM    1  C   UNL     1      24.330  42.388  48.286  1.00  0.00     0.191 C 
HETATM    2  S   UNL     1      23.705  40.958  47.655  1.00  0.00    -0.039 SA
ENDROOT
BRANCH   1   3
HETATM    3  N   UNL     1      25.691  42.513  48.313  1.00  0.00    -0.325 N 
HETATM    4  H   UNL     1      26.109  42.296  47.413  1.00  0.00     0.169 HD
BRANCH   3   5
HETATM    5  C   UNL     1      26.546  42.380  49.390  1.00  0.00     0.094 C 
HETATM    6  S   UNL     1      27.205  40.810  49.449  1.00  0.00    -0.075 SA
HETATM    7  C   UNL     1      27.993  41.113  50.933  1.00  0.00    -0.007 C 
HETATM    8  C   UNL     1      28.709  39.996  51.623  1.00  0.00     0.057 C 
HETATM    9  C   UNL     1      27.868  42.443  51.304  1.00  0.00     0.006 C 
HETATM   10  C   UNL     1      27.083  43.215  50.354  1.00  0.00     0.085 C 
BRANCH   9  11
HETATM   11  C   UNL     1      28.465  42.943  52.541  1.00  0.00    -0.024 A 
HETATM   12  C   UNL     1      29.851  42.860  52.721  1.00  0.00     0.012 A 
HETATM   13  C   UNL     1      30.433  43.319  53.905  1.00  0.00     0.001 A 
HETATM   14  C   UNL     1      29.634  43.861  54.911  1.00  0.00     0.000 A 
HETATM   15  C   UNL     1      28.253  43.945  54.736  1.00  0.00     0.001 A 
HETATM   16  C   UNL     1      27.667  43.484  53.555  1.00  0.00     0.012 A 
ENDBRANCH   9  11
BRANCH  10  17
HETATM   17  C   UNL     1      26.944  44.668  50.380  1.00  0.00     0.296 C 
HETATM   18  O   UNL     1      27.650  45.428  49.730  1.00  0.00    -0.259 OA
BRANCH  17  19
HETATM   19  O   UNL     1      25.965  45.083  51.235  1.00  0.00    -0.322 OA
HETATM   20  C   UNL     1      25.970  46.482  51.511  1.00  0.00     0.213 C 
ENDBRANCH  17  19
ENDBRANCH  10  17
ENDBRANCH   3   5
ENDBRANCH   1   3
BRANCH   1  21
HETATM   21  N   UNL     1      23.565  43.338  48.898  1.00  0.00    -0.273 N 
HETATM   22  H   UNL     1      23.851  43.725  49.797  1.00  0.00     0.189 HD
BRANCH  21  23
HETATM   23  N   UNL     1      22.677  44.156  48.181  1.00  0.00    -0.266 N 
HETATM   24  C   UNL     1      22.855  45.528  48.260  1.00  0.00     0.265 C 
HETATM   25  O   UNL     1      23.773  46.026  48.915  1.00  0.00    -0.269 OA
HETATM   26  H   UNL     1      21.861  43.706  47.779  1.00  0.00     0.190 HD
BRANCH  24  27
HETATM   27  C   UNL     1      21.797  46.368  47.515  1.00  0.00     0.218 C 
HETATM   28  C   UNL     1      21.610  45.906  46.072  1.00  0.00     0.050 C 
BRANCH  27  29
HETATM   29  O   UNL     1      22.280  47.719  47.493  1.00  0.00    -0.335 OA
BRANCH  29  30
HETATM   30  C   UNL     1      21.389  48.695  47.845  1.00  0.00     0.091 A 
HETATM   31  C   UNL     1      21.855  50.014  47.959  1.00  0.00     0.068 A 
HETATM   32 CL   UNL     1      23.484  50.425  47.555  1.00  0.00    -0.081 Cl
HETATM   33  C   UNL     1      21.005  51.031  48.396  1.00  0.00     0.046 A 
HETATM   34  C   UNL     1      19.690  50.725  48.734  1.00  0.00     0.012 A 
HETATM   35 BR   UNL     1      18.538  52.095  49.341  1.00  0.00    -0.051 Br
HETATM   36  C   UNL     1      19.221  49.415  48.645  1.00  0.00     0.022 A 
HETATM   37  C   UNL     1      20.074  48.396  48.211  1.00  0.00     0.040 A 
ENDBRANCH  29  30
ENDBRANCH  27  29
ENDBRANCH  24  27
ENDBRANCH  21  23
ENDBRANCH   1  21
TORSDOF 10
ENDMDL
MODEL 8
REMARK VINA RESULT:      -7.8      4.932     10.837
REMARK  10 active torsions:
REMARK  status: ('A' for Active; 'I' for Inactive)
REMARK    1  A    between atoms: C_4  and  N_5 
REMARK    2  A    between atoms: N_5  and  C_6 
REMARK    3  A    between atoms: C_6  and  N_7 
REMARK    4  A    between atoms: N_7  and  N_8 
REMARK       I    between atoms: N_8  and  C_9 
REMARK    5  A    between atoms: C_9  and  C_10 
REMARK    6  A    between atoms: C_10  and  O_11 
REMARK    7  A    between atoms: O_11  and  C_12 
REMARK    8  A    between atoms: C_23  and  C_24 
REMARK    9  A    between atoms: C_24  and  O_25 
REMARK   10  A    between atoms: C_28  and  C_29 
ROOT
HETATM    1  C   UNL     1      23.248  45.298  48.824  1.00  0.00     0.191 C 
HETATM    2  S   UNL     1      22.460  44.012  49.571  1.00  0.00    -0.039 SA
ENDROOT
BRANCH   1   3
HETATM    3  N   UNL     1      24.606  45.368  48.976  1.00  0.00    -0.325 N 
HETATM    4  H   UNL     1      25.095  45.114  48.124  1.00  0.00     0.169 HD
BRANCH   3   5
HETATM    5  C   UNL     1      25.351  45.225  50.130  1.00  0.00     0.094 C 
HETATM    6  S   UNL     1      25.047  46.509  51.209  1.00  0.00    -0.075 SA
HETATM    7  C   UNL     1      26.241  45.973  52.304  1.00  0.00    -0.007 C 
HETATM    8  C   UNL     1      26.564  46.808  53.502  1.00  0.00     0.057 C 
HETATM    9  C   UNL     1      26.765  44.750  51.916  1.00  0.00     0.006 C 
HETATM   10  C   UNL     1      26.183  44.263  50.675  1.00  0.00     0.085 C 
BRANCH   9  11
HETATM   11  C   UNL     1      27.804  44.087  52.702  1.00  0.00    -0.024 A 
HETATM   12  C   UNL     1      27.638  43.943  54.085  1.00  0.00     0.012 A 
HETATM   13  C   UNL     1      28.630  43.326  54.851  1.00  0.00     0.001 A 
HETATM   14  C   UNL     1      29.790  42.853  54.238  1.00  0.00     0.000 A 
HETATM   15  C   UNL     1      29.960  42.995  52.862  1.00  0.00     0.001 A 
HETATM   16  C   UNL     1      28.972  43.613  52.094  1.00  0.00     0.012 A 
ENDBRANCH   9  11
BRANCH  10  17
HETATM   17  C   UNL     1      26.396  42.927  50.127  1.00  0.00     0.296 C 
HETATM   18  O   UNL     1      27.029  42.708  49.102  1.00  0.00    -0.259 OA
BRANCH  17  19
HETATM   19  O   UNL     1      25.782  41.958  50.864  1.00  0.00    -0.322 OA
HETATM   20  C   UNL     1      26.208  40.628  50.573  1.00  0.00     0.213 C 
ENDBRANCH  17  19
ENDBRANCH  10  17
ENDBRANCH   3   5
ENDBRANCH   1   3
BRANCH   1  21
HETATM   21  N   UNL     1      22.595  46.334  48.221  1.00  0.00    -0.273 N 
HETATM   22  H   UNL     1      22.329  46.270  47.239  1.00  0.00     0.189 HD
BRANCH  21  23
HETATM   23  N   UNL     1      21.851  47.273  48.954  1.00  0.00    -0.266 N 
HETATM   24  C   UNL     1      20.706  47.789  48.369  1.00  0.00     0.265 C 
HETATM   25  O   UNL     1      20.328  47.425  47.253  1.00  0.00    -0.269 OA
HETATM   26  H   UNL     1      22.280  47.641  49.798  1.00  0.00     0.190 HD
BRANCH  24  27
HETATM   27  C   UNL     1      19.983  48.874  49.193  1.00  0.00     0.218 C 
HETATM   28  C   UNL     1      18.934  48.279  50.130  1.00  0.00     0.050 C 
BRANCH  27  29
HETATM   29  O   UNL     1      19.312  49.729  48.256  1.00  0.00    -0.335 OA
BRANCH  29  30
HETATM   30  C   UNL     1      18.326  50.534  48.757  1.00  0.00     0.091 A 
HETATM   31  C   UNL     1      16.998  50.271  48.386  1.00  0.00     0.068 A 
HETATM   32 CL   UNL     1      16.595  48.899  47.416  1.00  0.00    -0.081 Cl
HETATM   33  C   UNL     1      15.966  51.113  48.802  1.00  0.00     0.046 A 
HETATM   34  C   UNL     1      16.265  52.229  49.579  1.00  0.00     0.012 A 
HETATM   35 BR   UNL     1      14.875  53.383  50.134  1.00  0.00    -0.051 Br
HETATM   36  C   UNL     1      17.583  52.513  49.936  1.00  0.00     0.022 A 
HETATM   37  C   UNL     1      18.617  51.670  49.516  1.00  0.00     0.040 A 
ENDBRANCH  29  30
ENDBRANCH  27  29
ENDBRANCH  24  27
ENDBRANCH  21  23
ENDBRANCH   1  21
TORSDOF 10
ENDMDL
MODEL 9
REMARK VINA RESULT:      -7.6      2.346      3.414
REMARK  10 active torsions:
REMARK  status: ('A' for Active; 'I' for Inactive)
REMARK    1  A    between atoms: C_4  and  N_5 
REMARK    2  A    between atoms: N_5  and  C_6 
REMARK    3  A    between atoms: C_6  and  N_7 
REMARK    4  A    between atoms: N_7  and  N_8 
REMARK       I    between atoms: N_8  and  C_9 
REMARK    5  A    between atoms: C_9  and  C_10 
REMARK    6  A    between atoms: C_10  and  O_11 
REMARK    7  A    between atoms: O_11  and  C_12 
REMARK    8  A    between atoms: C_23  and  C_24 
REMARK    9  A    between atoms: C_24  and  O_25 
REMARK   10  A    between atoms: C_28  and  C_29 
ROOT
HETATM    1  C   UNL     1      21.485  46.913  48.539  1.00  0.00     0.191 C 
HETATM    2  S   UNL     1      21.605  46.349  46.958  1.00  0.00    -0.039 SA
ENDROOT
BRANCH   1   3
HETATM    3  N   UNL     1      20.230  47.186  49.009  1.00  0.00    -0.325 N 
HETATM    4  H   UNL     1      19.912  46.482  49.667  1.00  0.00     0.169 HD
BRANCH   3   5
HETATM    5  C   UNL     1      19.219  47.900  48.396  1.00  0.00     0.094 C 
HETATM    6  S   UNL     1      17.877  46.898  48.082  1.00  0.00    -0.075 SA
HETATM    7  C   UNL     1      17.052  48.136  47.245  1.00  0.00    -0.007 C 
HETATM    8  C   UNL     1      15.754  47.824  46.571  1.00  0.00     0.057 C 
HETATM    9  C   UNL     1      17.734  49.339  47.329  1.00  0.00     0.006 C 
HETATM   10  C   UNL     1      18.976  49.225  48.078  1.00  0.00     0.085 C 
BRANCH   9  11
HETATM   11  C   UNL     1      17.219  50.549  46.690  1.00  0.00    -0.024 A 
HETATM   12  C   UNL     1      16.167  51.253  47.290  1.00  0.00     0.012 A 
HETATM   13  C   UNL     1      15.654  52.400  46.682  1.00  0.00     0.001 A 
HETATM   14  C   UNL     1      16.189  52.849  45.475  1.00  0.00     0.000 A 
HETATM   15  C   UNL     1      17.235  52.151  44.873  1.00  0.00     0.001 A 
HETATM   16  C   UNL     1      17.749  51.001  45.476  1.00  0.00     0.012 A 
ENDBRANCH   9  11
BRANCH  10  17
HETATM   17  C   UNL     1      19.802  50.355  48.492  1.00  0.00     0.296 C 
HETATM   18  O   UNL     1      20.676  50.847  47.792  1.00  0.00    -0.259 OA
BRANCH  17  19
HETATM   19  O   UNL     1      19.515  50.774  49.758  1.00  0.00    -0.322 OA
HETATM   20  C   UNL     1      18.757  51.980  49.828  1.00  0.00     0.213 C 
ENDBRANCH  17  19
ENDBRANCH  10  17
ENDBRANCH   3   5
ENDBRANCH   1   3
BRANCH   1  21
HETATM   21  N   UNL     1      22.566  47.251  49.302  1.00  0.00    -0.273 N 
HETATM   22  H   UNL     1      22.507  48.028  49.960  1.00  0.00     0.189 HD
BRANCH  21  23
HETATM   23  N   UNL     1      23.588  46.333  49.594  1.00  0.00    -0.266 N 
HETATM   24  C   UNL     1      24.629  46.759  50.403  1.00  0.00     0.265 C 
HETATM   25  O   UNL     1      24.656  47.897  50.877  1.00  0.00    -0.269 OA
HETATM   26  H   UNL     1      23.590  45.466  49.066  1.00  0.00     0.190 HD
BRANCH  24  27
HETATM   27  C   UNL     1      25.756  45.729  50.615  1.00  0.00     0.218 C 
HETATM   28  C   UNL     1      25.826  44.713  49.477  1.00  0.00     0.050 C 
BRANCH  27  29
HETATM   29  O   UNL     1      25.450  45.022  51.826  1.00  0.00    -0.335 OA
BRANCH  29  30
HETATM   30  C   UNL     1      26.510  44.668  52.615  1.00  0.00     0.091 A 
HETATM   31  C   UNL     1      26.874  45.525  53.665  1.00  0.00     0.068 A 
HETATM   32 CL   UNL     1      25.944  46.933  54.035  1.00  0.00    -0.081 Cl
HETATM   33  C   UNL     1      27.998  45.251  54.446  1.00  0.00     0.046 A 
HETATM   34  C   UNL     1      28.768  44.127  54.165  1.00  0.00     0.012 A 
HETATM   35 BR   UNL     1      30.301  43.758  55.208  1.00  0.00    -0.051 Br
HETATM   36  C   UNL     1      28.429  43.279  53.110  1.00  0.00     0.022 A 
HETATM   37  C   UNL     1      27.305  43.556  52.327  1.00  0.00     0.040 A 
ENDBRANCH  29  30
ENDBRANCH  27  29
ENDBRANCH  24  27
ENDBRANCH  21  23
ENDBRANCH   1  21
TORSDOF 10
ENDMDL
MODEL 10
REMARK VINA RESULT:      -7.5     13.096     14.402
REMARK  10 active torsions:
REMARK  status: ('A' for Active; 'I' for Inactive)
REMARK    1  A    between atoms: C_4  and  N_5 
REMARK    2  A    between atoms: N_5  and  C_6 
REMARK    3  A    between atoms: C_6  and  N_7 
REMARK    4  A    between atoms: N_7  and  N_8 
REMARK       I    between atoms: N_8  and  C_9 
REMARK    5  A    between atoms: C_9  and  C_10 
REMARK    6  A    between atoms: C_10  and  O_11 
REMARK    7  A    between atoms: O_11  and  C_12 
REMARK    8  A    between atoms: C_23  and  C_24 
REMARK    9  A    between atoms: C_24  and  O_25 
REMARK   10  A    between atoms: C_28  and  C_29 
ROOT
HETATM    1  C   UNL     1      33.767  51.305  42.411  1.00  0.00     0.191 C 
HETATM    2  S   UNL     1      34.146  51.153  40.778  1.00  0.00    -0.039 SA
ENDROOT
BRANCH   1   3
HETATM    3  N   UNL     1      32.597  50.738  42.833  1.00  0.00    -0.325 N 
HETATM    4  H   UNL     1      32.689  50.325  43.756  1.00  0.00     0.169 HD
BRANCH   3   5
HETATM    5  C   UNL     1      31.568  50.220  42.072  1.00  0.00     0.094 C 
HETATM    6  S   UNL     1      31.794  48.552  41.805  1.00  0.00    -0.075 SA
HETATM    7  C   UNL     1      30.444  48.457  40.766  1.00  0.00    -0.007 C 
HETATM    8  C   UNL     1      30.154  47.171  40.058  1.00  0.00     0.057 C 
HETATM    9  C   UNL     1      29.747  49.655  40.737  1.00  0.00     0.006 C 
HETATM   10  C   UNL     1      30.361  50.676  41.571  1.00  0.00     0.085 C 
BRANCH   9  11
HETATM   11  C   UNL     1      28.549  49.815  39.916  1.00  0.00    -0.024 A 
HETATM   12  C   UNL     1      28.621  50.549  38.725  1.00  0.00     0.012 A 
HETATM   13  C   UNL     1      27.479  50.724  37.939  1.00  0.00     0.001 A 
HETATM   14  C   UNL     1      26.265  50.168  38.339  1.00  0.00     0.000 A 
HETATM   15  C   UNL     1      26.188  49.437  39.524  1.00  0.00     0.001 A 
HETATM   16  C   UNL     1      27.327  49.262  40.314  1.00  0.00     0.012 A 
ENDBRANCH   9  11
BRANCH  10  17
HETATM   17  C   UNL     1      29.753  51.965  41.887  1.00  0.00     0.296 C 
HETATM   18  O   UNL     1      28.546  52.140  41.982  1.00  0.00    -0.259 OA
BRANCH  17  19
HETATM   19  O   UNL     1      30.679  52.957  42.028  1.00  0.00    -0.322 OA
HETATM   20  C   UNL     1      31.019  53.630  40.817  1.00  0.00     0.213 C 
ENDBRANCH  17  19
ENDBRANCH  10  17
ENDBRANCH   3   5
ENDBRANCH   1   3
BRANCH   1  21
HETATM   21  N   UNL     1      34.478  52.083  43.279  1.00  0.00    -0.273 N 
HETATM   22  H   UNL     1      33.999  52.766  43.865  1.00  0.00     0.189 HD
BRANCH  21  23
HETATM   23  N   UNL     1      35.737  51.696  43.766  1.00  0.00    -0.266 N 
HETATM   24  C   UNL     1      36.806  52.549  43.547  1.00  0.00     0.265 C 
HETATM   25  O   UNL     1      36.666  53.627  42.965  1.00  0.00    -0.269 OA
HETATM   26  H   UNL     1      35.824  50.743  44.107  1.00  0.00     0.190 HD
BRANCH  24  27
HETATM   27  C   UNL     1      38.171  52.025  44.036  1.00  0.00     0.218 C 
HETATM   28  C   UNL     1      38.373  50.549  43.701  1.00  0.00     0.050 C 
BRANCH  27  29
HETATM   29  O   UNL     1      38.184  52.165  45.464  1.00  0.00    -0.335 OA
BRANCH  29  30
HETATM   30  C   UNL     1      39.210  52.890  46.001  1.00  0.00     0.091 A 
HETATM   31  C   UNL     1      38.999  54.253  46.262  1.00  0.00     0.068 A 
HETATM   32 CL   UNL     1      37.450  54.979  46.024  1.00  0.00    -0.081 Cl
HETATM   33  C   UNL     1      40.040  55.055  46.732  1.00  0.00     0.046 A 
HETATM   34  C   UNL     1      41.300  54.495  46.926  1.00  0.00     0.012 A 
HETATM   35 BR   UNL     1      42.719  55.578  47.547  1.00  0.00    -0.051 Br
HETATM   36  C   UNL     1      41.528  53.147  46.650  1.00  0.00     0.022 A 
HETATM   37  C   UNL     1      40.485  52.345  46.176  1.00  0.00     0.040 A 
ENDBRANCH  29  30
ENDBRANCH  27  29
ENDBRANCH  24  27
ENDBRANCH  21  23
ENDBRANCH   1  21
TORSDOF 10
ENDMDL
