MODEL 1
REMARK VINA RESULT:     -11.2      0.000      0.000
REMARK  6 active torsions:
REMARK  status: ('A' for Active; 'I' for Inactive)
REMARK    1  A    between atoms: C_6  and  O_7 
REMARK    2  A    between atoms: C_6  and  C_8 
REMARK    3  A    between atoms: C_8  and  N_9 
REMARK       I    between atoms: N_9  and  C_10 
REMARK    4  A    between atoms: C_10  and  C_11 
REMARK       I    between atoms: C_11  and  N_12 
REMARK    5  A    between atoms: N_12  and  C_13 
REMARK       I    between atoms: N_17  and  C_18 
REMARK    6  A    between atoms: C_18  and  C_19 
ROOT
HETATM    1  C   UNL     1      25.060  45.371  50.610  1.00  0.00     0.313 C 
HETATM    2  N   UNL     1      24.892  46.208  49.528  1.00  0.00    -0.319 N 
HETATM    3  O   UNL     1      24.240  45.020  51.449  1.00  0.00    -0.262 OA
HETATM    4  H   UNL     1      25.707  46.300  48.928  1.00  0.00     0.169 HD
ENDROOT
BRANCH   1   5
HETATM    5  C   UNL     1      26.506  44.842  50.734  1.00  0.00     0.309 C 
HETATM    6  N   UNL     1      26.783  44.328  51.974  1.00  0.00    -0.350 N 
HETATM    7  H   UNL     1      26.001  44.245  52.625  1.00  0.00     0.163 HD
HETATM    8  O   UNL     1      27.279  44.922  49.791  1.00  0.00    -0.262 OA
BRANCH   6   9
HETATM    9  C   UNL     1      28.073  43.808  52.379  1.00  0.00     0.161 C 
BRANCH   9  10
HETATM   10  C   UNL     1      28.327  44.067  53.883  1.00  0.00     0.078 C 
HETATM   11  C   UNL     1      29.710  43.516  54.288  1.00  0.00     0.078 C 
HETATM   12  C   UNL     1      30.197  43.990  55.639  1.00  0.00    -0.049 A 
HETATM   13  C   UNL     1      29.618  45.096  56.285  1.00  0.00    -0.052 A 
HETATM   14  C   UNL     1      31.286  43.339  56.238  1.00  0.00     0.007 A 
HETATM   15  C   UNL     1      30.111  45.503  57.534  1.00  0.00     0.007 A 
HETATM   16  C   UNL     1      28.431  45.820  55.702  1.00  0.00     0.042 C 
HETATM   17  C   UNL     1      31.186  44.840  58.124  1.00  0.00     0.001 A 
HETATM   18  C   UNL     1      31.776  43.760  57.474  1.00  0.00     0.001 A 
HETATM   19  C   UNL     1      28.251  45.568  54.207  1.00  0.00     0.044 C 
BRANCH  10  20
HETATM   20  O   UNL     1      27.283  43.399  54.617  1.00  0.00    -0.388 OA
HETATM   21  H   UNL     1      26.462  43.446  54.095  1.00  0.00     0.210 HD
ENDBRANCH  10  20
ENDBRANCH   9  10
ENDBRANCH   6   9
ENDBRANCH   1   5
BRANCH   2  22
HETATM   22  C   UNL     1      23.741  46.945  49.198  1.00  0.00     0.035 A 
HETATM   23  C   UNL     1      23.569  48.289  49.520  1.00  0.00     0.039 A 
HETATM   24  C   UNL     1      22.414  48.994  49.128  1.00  0.00    -0.029 A 
HETATM   25  C   UNL     1      21.378  48.344  48.424  1.00  0.00     0.043 A 
HETATM   26  C   UNL     1      22.330  50.447  49.514  1.00  0.00     0.042 C 
HETATM   27  N   UNL     1      20.174  49.063  48.079  1.00  0.00    -0.313 N 
HETATM   28  C   UNL     1      21.561  46.986  48.126  1.00  0.00     0.032 A 
HETATM   29  C   UNL     1      19.167  48.522  47.240  1.00  0.00     0.265 C 
HETATM   30  C   UNL     1      20.044  50.433  48.594  1.00  0.00     0.133 C 
HETATM   31  O   UNL     1      19.380  47.619  46.433  1.00  0.00    -0.267 OA
HETATM   32  C   UNL     1      21.362  51.184  48.615  1.00  0.00     0.025 C 
HETATM   33  C   UNL     1      22.730  46.300  48.492  1.00  0.00     0.032 A 
BRANCH  29  34
HETATM   34  C   UNL     1      17.829  49.097  47.372  1.00  0.00     0.073 A 
HETATM   35  S   UNL     1      17.290  50.239  46.213  1.00  0.00    -0.097 SA
HETATM   36  C   UNL     1      15.783  50.424  46.998  1.00  0.00     0.050 A 
HETATM   37  C   UNL     1      15.671  49.611  48.103  1.00  0.00     0.009 A 
HETATM   38  C   UNL     1      16.848  48.832  48.311  1.00  0.00     0.025 A 
ENDBRANCH  29  34
ENDBRANCH   2  22
TORSDOF 6
ENDMDL
MODEL 2
REMARK VINA RESULT:     -11.0      2.027      2.459
REMARK  6 active torsions:
REMARK  status: ('A' for Active; 'I' for Inactive)
REMARK    1  A    between atoms: C_6  and  O_7 
REMARK    2  A    between atoms: C_6  and  C_8 
REMARK    3  A    between atoms: C_8  and  N_9 
REMARK       I    between atoms: N_9  and  C_10 
REMARK    4  A    between atoms: C_10  and  C_11 
REMARK       I    between atoms: C_11  and  N_12 
REMARK    5  A    between atoms: N_12  and  C_13 
REMARK       I    between atoms: N_17  and  C_18 
REMARK    6  A    between atoms: C_18  and  C_19 
ROOT
HETATM    1  C   UNL     1      26.199  43.681  49.696  1.00  0.00     0.313 C 
HETATM    2  N   UNL     1      26.260  44.979  50.157  1.00  0.00    -0.319 N 
HETATM    3  O   UNL     1      25.474  43.202  48.833  1.00  0.00    -0.262 OA
HETATM    4  H   UNL     1      26.994  45.157  50.837  1.00  0.00     0.169 HD
ENDROOT
BRANCH   1   5
HETATM    5  C   UNL     1      27.201  42.748  50.411  1.00  0.00     0.309 C 
HETATM    6  N   UNL     1      27.805  43.340  51.490  1.00  0.00    -0.350 N 
HETATM    7  H   UNL     1      27.458  44.258  51.769  1.00  0.00     0.163 HD
HETATM    8  O   UNL     1      27.404  41.618  49.993  1.00  0.00    -0.262 OA
BRANCH   6   9
HETATM    9  C   UNL     1      28.819  42.711  52.312  1.00  0.00     0.161 C 
BRANCH   9  10
HETATM   10  C   UNL     1      28.803  43.287  53.747  1.00  0.00     0.078 C 
HETATM   11  C   UNL     1      30.155  43.016  54.440  1.00  0.00     0.078 C 
HETATM   12  C   UNL     1      30.369  43.803  55.714  1.00  0.00    -0.049 A 
HETATM   13  C   UNL     1      29.583  44.924  56.030  1.00  0.00    -0.052 A 
HETATM   14  C   UNL     1      31.412  43.432  56.577  1.00  0.00     0.007 A 
HETATM   15  C   UNL     1      29.827  45.627  57.219  1.00  0.00     0.007 A 
HETATM   16  C   UNL     1      28.434  45.355  55.154  1.00  0.00     0.042 C 
HETATM   17  C   UNL     1      30.859  45.241  58.074  1.00  0.00     0.001 A 
HETATM   18  C   UNL     1      31.654  44.146  57.750  1.00  0.00     0.001 A 
HETATM   19  C   UNL     1      28.520  44.797  53.735  1.00  0.00     0.044 C 
BRANCH  10  20
HETATM   20  O   UNL     1      27.732  42.638  54.459  1.00  0.00    -0.388 OA
HETATM   21  H   UNL     1      26.890  42.880  54.034  1.00  0.00     0.210 HD
ENDBRANCH  10  20
ENDBRANCH   9  10
ENDBRANCH   6   9
ENDBRANCH   1   5
BRANCH   2  22
HETATM   22  C   UNL     1      25.413  46.044  49.804  1.00  0.00     0.035 A 
HETATM   23  C   UNL     1      25.871  47.324  49.504  1.00  0.00     0.039 A 
HETATM   24  C   UNL     1      24.982  48.347  49.113  1.00  0.00    -0.029 A 
HETATM   25  C   UNL     1      23.594  48.109  49.050  1.00  0.00     0.043 A 
HETATM   26  C   UNL     1      25.580  49.693  48.797  1.00  0.00     0.042 C 
HETATM   27  N   UNL     1      22.689  49.180  48.705  1.00  0.00    -0.313 N 
HETATM   28  C   UNL     1      23.150  46.818  49.375  1.00  0.00     0.032 A 
HETATM   29  C   UNL     1      21.306  48.977  48.470  1.00  0.00     0.265 C 
HETATM   30  C   UNL     1      23.271  50.520  48.548  1.00  0.00     0.133 C 
HETATM   31  O   UNL     1      20.834  47.888  48.143  1.00  0.00    -0.267 OA
HETATM   32  C   UNL     1      24.649  50.495  47.914  1.00  0.00     0.025 C 
HETATM   33  C   UNL     1      24.045  45.798  49.731  1.00  0.00     0.032 A 
BRANCH  29  34
HETATM   34  C   UNL     1      20.437  50.141  48.631  1.00  0.00     0.073 A 
HETATM   35  S   UNL     1      19.908  50.581  50.201  1.00  0.00    -0.097 SA
HETATM   36  C   UNL     1      19.008  51.905  49.599  1.00  0.00     0.050 A 
HETATM   37  C   UNL     1      19.130  52.036  48.234  1.00  0.00     0.009 A 
HETATM   38  C   UNL     1      19.968  51.026  47.676  1.00  0.00     0.025 A 
ENDBRANCH  29  34
ENDBRANCH   2  22
TORSDOF 6
ENDMDL
MODEL 3
REMARK VINA RESULT:     -10.8      3.650     11.870
REMARK  6 active torsions:
REMARK  status: ('A' for Active; 'I' for Inactive)
REMARK    1  A    between atoms: C_6  and  O_7 
REMARK    2  A    between atoms: C_6  and  C_8 
REMARK    3  A    between atoms: C_8  and  N_9 
REMARK       I    between atoms: N_9  and  C_10 
REMARK    4  A    between atoms: C_10  and  C_11 
REMARK       I    between atoms: C_11  and  N_12 
REMARK    5  A    between atoms: N_12  and  C_13 
REMARK       I    between atoms: N_17  and  C_18 
REMARK    6  A    between atoms: C_18  and  C_19 
ROOT
HETATM    1  C   UNL     1      23.106  44.183  50.185  1.00  0.00     0.313 C 
HETATM    2  N   UNL     1      23.963  45.185  50.586  1.00  0.00    -0.319 N 
HETATM    3  O   UNL     1      23.061  43.015  50.549  1.00  0.00    -0.262 OA
HETATM    4  H   UNL     1      23.764  46.101  50.193  1.00  0.00     0.169 HD
ENDROOT
BRANCH   1   5
HETATM    5  C   UNL     1      22.090  44.659  49.123  1.00  0.00     0.309 C 
HETATM    6  N   UNL     1      21.942  46.022  49.098  1.00  0.00    -0.350 N 
HETATM    7  H   UNL     1      22.579  46.567  49.680  1.00  0.00     0.163 HD
HETATM    8  O   UNL     1      21.498  43.850  48.423  1.00  0.00    -0.262 OA
BRANCH   6   9
HETATM    9  C   UNL     1      21.023  46.733  48.233  1.00  0.00     0.161 C 
BRANCH   9  10
HETATM   10  C   UNL     1      20.545  48.047  48.895  1.00  0.00     0.078 C 
HETATM   11  C   UNL     1      20.233  49.101  47.813  1.00  0.00     0.078 C 
HETATM   12  C   UNL     1      19.462  50.301  48.317  1.00  0.00    -0.049 A 
HETATM   13  C   UNL     1      18.791  50.281  49.552  1.00  0.00    -0.052 A 
HETATM   14  C   UNL     1      19.376  51.445  47.509  1.00  0.00     0.007 A 
HETATM   15  C   UNL     1      18.082  51.416  49.972  1.00  0.00     0.007 A 
HETATM   16  C   UNL     1      18.868  49.090  50.473  1.00  0.00     0.042 C 
HETATM   17  C   UNL     1      18.014  52.551  49.164  1.00  0.00     0.001 A 
HETATM   18  C   UNL     1      18.658  52.563  47.931  1.00  0.00     0.001 A 
HETATM   19  C   UNL     1      19.299  47.809  49.763  1.00  0.00     0.044 C 
BRANCH  10  20
HETATM   20  O   UNL     1      21.606  48.506  49.755  1.00  0.00    -0.388 OA
HETATM   21  H   UNL     1      21.224  48.731  50.621  1.00  0.00     0.210 HD
ENDBRANCH  10  20
ENDBRANCH   9  10
ENDBRANCH   6   9
ENDBRANCH   1   5
BRANCH   2  22
HETATM   22  C   UNL     1      25.068  45.061  51.445  1.00  0.00     0.035 A 
HETATM   23  C   UNL     1      25.982  44.012  51.376  1.00  0.00     0.039 A 
HETATM   24  C   UNL     1      27.099  43.956  52.234  1.00  0.00    -0.029 A 
HETATM   25  C   UNL     1      27.304  44.949  53.215  1.00  0.00     0.043 A 
HETATM   26  C   UNL     1      28.035  42.787  52.069  1.00  0.00     0.042 C 
HETATM   27  N   UNL     1      28.420  44.849  54.125  1.00  0.00    -0.313 N 
HETATM   28  C   UNL     1      26.363  45.986  53.282  1.00  0.00     0.032 A 
HETATM   29  C   UNL     1      28.776  45.884  55.026  1.00  0.00     0.265 C 
HETATM   30  C   UNL     1      29.234  43.628  54.051  1.00  0.00     0.133 C 
HETATM   31  O   UNL     1      28.459  47.060  54.856  1.00  0.00    -0.267 OA
HETATM   32  C   UNL     1      29.401  43.113  52.634  1.00  0.00     0.025 C 
HETATM   33  C   UNL     1      25.271  46.051  52.402  1.00  0.00     0.032 A 
BRANCH  29  34
HETATM   34  C   UNL     1      29.557  45.491  56.198  1.00  0.00     0.073 A 
HETATM   35  S   UNL     1      29.052  46.006  57.754  1.00  0.00    -0.097 SA
HETATM   36  C   UNL     1      30.369  45.223  58.513  1.00  0.00     0.050 A 
HETATM   37  C   UNL     1      31.164  44.553  57.610  1.00  0.00     0.009 A 
HETATM   38  C   UNL     1      30.687  44.695  56.274  1.00  0.00     0.025 A 
ENDBRANCH  29  34
ENDBRANCH   2  22
TORSDOF 6
ENDMDL
MODEL 4
REMARK VINA RESULT:     -10.2      1.613      2.461
REMARK  6 active torsions:
REMARK  status: ('A' for Active; 'I' for Inactive)
REMARK    1  A    between atoms: C_6  and  O_7 
REMARK    2  A    between atoms: C_6  and  C_8 
REMARK    3  A    between atoms: C_8  and  N_9 
REMARK       I    between atoms: N_9  and  C_10 
REMARK    4  A    between atoms: C_10  and  C_11 
REMARK       I    between atoms: C_11  and  N_12 
REMARK    5  A    between atoms: N_12  and  C_13 
REMARK       I    between atoms: N_17  and  C_18 
REMARK    6  A    between atoms: C_18  and  C_19 
ROOT
HETATM    1  C   UNL     1      24.037  44.089  50.229  1.00  0.00     0.313 C 
HETATM    2  N   UNL     1      23.908  44.948  49.158  1.00  0.00    -0.319 N 
HETATM    3  O   UNL     1      23.188  43.727  51.034  1.00  0.00    -0.262 OA
HETATM    4  H   UNL     1      24.743  45.046  48.586  1.00  0.00     0.169 HD
ENDROOT
BRANCH   1   5
HETATM    5  C   UNL     1      25.475  43.550  50.389  1.00  0.00     0.309 C 
HETATM    6  N   UNL     1      25.737  43.091  51.654  1.00  0.00    -0.350 N 
HETATM    7  H   UNL     1      24.949  43.047  52.302  1.00  0.00     0.163 HD
HETATM    8  O   UNL     1      26.257  43.577  49.450  1.00  0.00    -0.262 OA
BRANCH   6   9
HETATM    9  C   UNL     1      27.017  42.575  52.093  1.00  0.00     0.161 C 
BRANCH   9  10
HETATM   10  C   UNL     1      27.453  43.236  53.423  1.00  0.00     0.078 C 
HETATM   11  C   UNL     1      28.887  42.797  53.785  1.00  0.00     0.078 C 
HETATM   12  C   UNL     1      29.530  43.619  54.881  1.00  0.00    -0.049 A 
HETATM   13  C   UNL     1      29.014  44.868  55.266  1.00  0.00    -0.052 A 
HETATM   14  C   UNL     1      30.699  43.141  55.493  1.00  0.00     0.007 A 
HETATM   15  C   UNL     1      29.652  45.596  56.281  1.00  0.00     0.007 A 
HETATM   16  C   UNL     1      27.748  45.420  54.661  1.00  0.00     0.042 C 
HETATM   17  C   UNL     1      30.806  45.106  56.890  1.00  0.00     0.001 A 
HETATM   18  C   UNL     1      31.332  43.880  56.492  1.00  0.00     0.001 A 
HETATM   19  C   UNL     1      27.387  44.768  53.328  1.00  0.00     0.044 C 
BRANCH  10  20
HETATM   20  O   UNL     1      26.523  42.811  54.438  1.00  0.00    -0.388 OA
HETATM   21  H   UNL     1      27.026  42.596  55.243  1.00  0.00     0.210 HD
ENDBRANCH  10  20
ENDBRANCH   9  10
ENDBRANCH   6   9
ENDBRANCH   1   5
BRANCH   2  22
HETATM   22  C   UNL     1      22.772  45.697  48.805  1.00  0.00     0.035 A 
HETATM   23  C   UNL     1      21.548  45.125  48.469  1.00  0.00     0.039 A 
HETATM   24  C   UNL     1      20.426  45.923  48.164  1.00  0.00    -0.029 A 
HETATM   25  C   UNL     1      20.524  47.330  48.157  1.00  0.00     0.043 A 
HETATM   26  C   UNL     1      19.145  45.207  47.825  1.00  0.00     0.042 C 
HETATM   27  N   UNL     1      19.383  48.134  47.786  1.00  0.00    -0.313 N 
HETATM   28  C   UNL     1      21.770  47.886  48.479  1.00  0.00     0.032 A 
HETATM   29  C   UNL     1      19.363  49.546  47.909  1.00  0.00     0.265 C 
HETATM   30  C   UNL     1      18.189  47.420  47.313  1.00  0.00     0.133 C 
HETATM   31  O   UNL     1      20.097  50.163  48.679  1.00  0.00    -0.267 OA
HETATM   32  C   UNL     1      17.953  46.113  48.046  1.00  0.00     0.025 C 
HETATM   33  C   UNL     1      22.873  47.085  48.813  1.00  0.00     0.032 A 
BRANCH  29  34
HETATM   34  C   UNL     1      18.407  50.262  47.065  1.00  0.00     0.073 A 
HETATM   35  S   UNL     1      16.967  50.876  47.764  1.00  0.00    -0.097 SA
HETATM   36  C   UNL     1      16.430  51.505  46.268  1.00  0.00     0.050 A 
HETATM   37  C   UNL     1      17.339  51.285  45.257  1.00  0.00     0.009 A 
HETATM   38  C   UNL     1      18.489  50.581  45.720  1.00  0.00     0.025 A 
ENDBRANCH  29  34
ENDBRANCH   2  22
TORSDOF 6
ENDMDL
MODEL 5
REMARK VINA RESULT:      -9.9      2.717      4.562
REMARK  6 active torsions:
REMARK  status: ('A' for Active; 'I' for Inactive)
REMARK    1  A    between atoms: C_6  and  O_7 
REMARK    2  A    between atoms: C_6  and  C_8 
REMARK    3  A    between atoms: C_8  and  N_9 
REMARK       I    between atoms: N_9  and  C_10 
REMARK    4  A    between atoms: C_10  and  C_11 
REMARK       I    between atoms: C_11  and  N_12 
REMARK    5  A    between atoms: N_12  and  C_13 
REMARK       I    between atoms: N_17  and  C_18 
REMARK    6  A    between atoms: C_18  and  C_19 
ROOT
HETATM    1  C   UNL     1      21.883  46.268  48.207  1.00  0.00     0.313 C 
HETATM    2  N   UNL     1      20.924  46.659  49.117  1.00  0.00    -0.319 N 
HETATM    3  O   UNL     1      22.286  46.854  47.211  1.00  0.00    -0.262 OA
HETATM    4  H   UNL     1      20.805  46.033  49.909  1.00  0.00     0.169 HD
ENDROOT
BRANCH   1   5
HETATM    5  C   UNL     1      22.490  44.887  48.540  1.00  0.00     0.309 C 
HETATM    6  N   UNL     1      23.812  44.955  48.895  1.00  0.00    -0.350 N 
HETATM    7  H   UNL     1      24.212  45.887  49.012  1.00  0.00     0.163 HD
HETATM    8  O   UNL     1      21.812  43.873  48.454  1.00  0.00    -0.262 OA
BRANCH   6   9
HETATM    9  C   UNL     1      24.639  43.809  49.212  1.00  0.00     0.161 C 
BRANCH   9  10
HETATM   10  C   UNL     1      25.741  44.186  50.229  1.00  0.00     0.078 C 
HETATM   11  C   UNL     1      25.282  45.383  51.087  1.00  0.00     0.078 C 
HETATM   12  C   UNL     1      26.132  45.631  52.314  1.00  0.00    -0.049 A 
HETATM   13  C   UNL     1      27.017  44.658  52.807  1.00  0.00    -0.052 A 
HETATM   14  C   UNL     1      25.996  46.847  53.002  1.00  0.00     0.007 A 
HETATM   15  C   UNL     1      27.778  44.933  53.953  1.00  0.00     0.007 A 
HETATM   16  C   UNL     1      27.223  43.344  52.097  1.00  0.00     0.042 C 
HETATM   17  C   UNL     1      27.642  46.149  54.622  1.00  0.00     0.001 A 
HETATM   18  C   UNL     1      26.748  47.104  54.148  1.00  0.00     0.001 A 
HETATM   19  C   UNL     1      26.086  42.996  51.139  1.00  0.00     0.044 C 
BRANCH  10  20
HETATM   20  O   UNL     1      26.921  44.528  49.477  1.00  0.00    -0.388 OA
HETATM   21  H   UNL     1      27.350  45.289  49.907  1.00  0.00     0.210 HD
ENDBRANCH  10  20
ENDBRANCH   9  10
ENDBRANCH   6   9
ENDBRANCH   1   5
BRANCH   2  22
HETATM   22  C   UNL     1      20.103  47.797  49.045  1.00  0.00     0.035 A 
HETATM   23  C   UNL     1      20.595  49.099  48.989  1.00  0.00     0.039 A 
HETATM   24  C   UNL     1      19.729  50.205  48.873  1.00  0.00    -0.029 A 
HETATM   25  C   UNL     1      18.330  50.024  48.847  1.00  0.00     0.043 A 
HETATM   26  C   UNL     1      20.361  51.570  48.806  1.00  0.00     0.042 C 
HETATM   27  N   UNL     1      17.452  51.169  48.788  1.00  0.00    -0.313 N 
HETATM   28  C   UNL     1      17.853  48.708  48.925  1.00  0.00     0.032 A 
HETATM   29  C   UNL     1      16.051  51.058  48.601  1.00  0.00     0.265 C 
HETATM   30  C   UNL     1      18.078  52.495  48.877  1.00  0.00     0.133 C 
HETATM   31  O   UNL     1      15.519  50.076  48.086  1.00  0.00    -0.267 OA
HETATM   32  C   UNL     1      19.418  52.565  48.167  1.00  0.00     0.025 C 
HETATM   33  C   UNL     1      18.724  47.610  49.007  1.00  0.00     0.032 A 
BRANCH  29  34
HETATM   34  C   UNL     1      15.239  52.187  49.053  1.00  0.00     0.073 A 
HETATM   35  S   UNL     1      14.707  53.347  47.908  1.00  0.00    -0.097 SA
HETATM   36  C   UNL     1      13.907  54.263  49.110  1.00  0.00     0.050 A 
HETATM   37  C   UNL     1      14.011  53.686  50.356  1.00  0.00     0.009 A 
HETATM   38  C   UNL     1      14.768  52.478  50.321  1.00  0.00     0.025 A 
ENDBRANCH  29  34
ENDBRANCH   2  22
TORSDOF 6
ENDMDL
MODEL 6
REMARK VINA RESULT:      -9.9      1.934      2.486
REMARK  6 active torsions:
REMARK  status: ('A' for Active; 'I' for Inactive)
REMARK    1  A    between atoms: C_6  and  O_7 
REMARK    2  A    between atoms: C_6  and  C_8 
REMARK    3  A    between atoms: C_8  and  N_9 
REMARK       I    between atoms: N_9  and  C_10 
REMARK    4  A    between atoms: C_10  and  C_11 
REMARK       I    between atoms: C_11  and  N_12 
REMARK    5  A    between atoms: N_12  and  C_13 
REMARK       I    between atoms: N_17  and  C_18 
REMARK    6  A    between atoms: C_18  and  C_19 
ROOT
HETATM    1  C   UNL     1      23.838  44.369  48.177  1.00  0.00     0.313 C 
HETATM    2  N   UNL     1      23.653  45.375  49.102  1.00  0.00    -0.319 N 
HETATM    3  O   UNL     1      23.388  44.271  47.043  1.00  0.00    -0.262 OA
HETATM    4  H   UNL     1      24.187  45.270  49.960  1.00  0.00     0.169 HD
ENDROOT
BRANCH   1   5
HETATM    5  C   UNL     1      24.739  43.232  48.707  1.00  0.00     0.309 C 
HETATM    6  N   UNL     1      25.888  43.692  49.299  1.00  0.00    -0.350 N 
HETATM    7  H   UNL     1      25.969  44.701  49.427  1.00  0.00     0.163 HD
HETATM    8  O   UNL     1      24.414  42.063  48.563  1.00  0.00    -0.262 OA
BRANCH   6   9
HETATM    9  C   UNL     1      26.930  42.845  49.839  1.00  0.00     0.161 C 
BRANCH   9  10
HETATM   10  C   UNL     1      27.174  43.153  51.335  1.00  0.00     0.078 C 
HETATM   11  C   UNL     1      28.613  42.757  51.728  1.00  0.00     0.078 C 
HETATM   12  C   UNL     1      29.063  43.302  53.066  1.00  0.00    -0.049 A 
HETATM   13  C   UNL     1      28.378  44.349  53.705  1.00  0.00    -0.052 A 
HETATM   14  C   UNL     1      30.223  42.779  53.659  1.00  0.00     0.007 A 
HETATM   15  C   UNL     1      28.840  44.825  54.941  1.00  0.00     0.007 A 
HETATM   16  C   UNL     1      27.114  44.933  53.128  1.00  0.00     0.042 C 
HETATM   17  C   UNL     1      29.987  44.289  55.525  1.00  0.00     0.001 A 
HETATM   18  C   UNL     1      30.680  43.269  54.882  1.00  0.00     0.001 A 
HETATM   19  C   UNL     1      26.943  44.641  51.639  1.00  0.00     0.044 C 
BRANCH  10  20
HETATM   20  O   UNL     1      26.216  42.389  52.092  1.00  0.00    -0.388 OA
HETATM   21  H   UNL     1      25.344  42.809  51.997  1.00  0.00     0.210 HD
ENDBRANCH  10  20
ENDBRANCH   9  10
ENDBRANCH   6   9
ENDBRANCH   1   5
BRANCH   2  22
HETATM   22  C   UNL     1      22.804  46.488  48.983  1.00  0.00     0.035 A 
HETATM   23  C   UNL     1      23.237  47.805  49.120  1.00  0.00     0.039 A 
HETATM   24  C   UNL     1      22.352  48.888  48.949  1.00  0.00    -0.029 A 
HETATM   25  C   UNL     1      20.988  48.667  48.668  1.00  0.00     0.043 A 
HETATM   26  C   UNL     1      22.923  50.273  49.105  1.00  0.00     0.042 C 
HETATM   27  N   UNL     1      20.081  49.784  48.553  1.00  0.00    -0.313 N 
HETATM   28  C   UNL     1      20.567  47.334  48.554  1.00  0.00     0.032 A 
HETATM   29  C   UNL     1      18.738  49.646  48.119  1.00  0.00     0.265 C 
HETATM   30  C   UNL     1      20.621  51.116  48.857  1.00  0.00     0.133 C 
HETATM   31  O   UNL     1      18.347  48.697  47.441  1.00  0.00    -0.267 OA
HETATM   32  C   UNL     1      22.056  51.291  48.397  1.00  0.00     0.025 C 
HETATM   33  C   UNL     1      21.462  46.262  48.693  1.00  0.00     0.032 A 
BRANCH  29  34
HETATM   34  C   UNL     1      17.810  50.704  48.516  1.00  0.00     0.073 A 
HETATM   35  S   UNL     1      16.783  51.403  47.335  1.00  0.00    -0.097 SA
HETATM   36  C   UNL     1      16.083  52.466  48.478  1.00  0.00     0.050 A 
HETATM   37  C   UNL     1      16.593  52.274  49.742  1.00  0.00     0.009 A 
HETATM   38  C   UNL     1      17.580  51.246  49.768  1.00  0.00     0.025 A 
ENDBRANCH  29  34
ENDBRANCH   2  22
TORSDOF 6
ENDMDL
MODEL 7
REMARK VINA RESULT:      -9.7      2.367      3.654
REMARK  6 active torsions:
REMARK  status: ('A' for Active; 'I' for Inactive)
REMARK    1  A    between atoms: C_6  and  O_7 
REMARK    2  A    between atoms: C_6  and  C_8 
REMARK    3  A    between atoms: C_8  and  N_9 
REMARK       I    between atoms: N_9  and  C_10 
REMARK    4  A    between atoms: C_10  and  C_11 
REMARK       I    between atoms: C_11  and  N_12 
REMARK    5  A    between atoms: N_12  and  C_13 
REMARK       I    between atoms: N_17  and  C_18 
REMARK    6  A    between atoms: C_18  and  C_19 
ROOT
HETATM    1  C   UNL     1      21.435  45.243  48.956  1.00  0.00     0.313 C 
HETATM    2  N   UNL     1      21.838  46.534  48.691  1.00  0.00    -0.319 N 
HETATM    3  O   UNL     1      20.332  44.733  48.804  1.00  0.00    -0.262 OA
HETATM    4  H   UNL     1      22.829  46.710  48.836  1.00  0.00     0.169 HD
ENDROOT
BRANCH   1   5
HETATM    5  C   UNL     1      22.572  44.370  49.531  1.00  0.00     0.309 C 
HETATM    6  N   UNL     1      23.780  45.019  49.563  1.00  0.00    -0.350 N 
HETATM    7  H   UNL     1      23.778  46.011  49.322  1.00  0.00     0.163 HD
HETATM    8  O   UNL     1      22.355  43.220  49.884  1.00  0.00    -0.262 OA
BRANCH   6   9
HETATM    9  C   UNL     1      25.021  44.423  50.009  1.00  0.00     0.161 C 
BRANCH   9  10
HETATM   10  C   UNL     1      25.359  44.862  51.454  1.00  0.00     0.078 C 
HETATM   11  C   UNL     1      26.715  44.267  51.884  1.00  0.00     0.078 C 
HETATM   12  C   UNL     1      27.292  44.881  53.141  1.00  0.00    -0.049 A 
HETATM   13  C   UNL     1      26.822  46.104  53.648  1.00  0.00    -0.052 A 
HETATM   14  C   UNL     1      28.358  44.235  53.788  1.00  0.00     0.007 A 
HETATM   15  C   UNL     1      27.397  46.637  54.811  1.00  0.00     0.007 A 
HETATM   16  C   UNL     1      25.666  46.831  53.010  1.00  0.00     0.042 C 
HETATM   17  C   UNL     1      28.447  45.980  55.451  1.00  0.00     0.001 A 
HETATM   18  C   UNL     1      28.929  44.780  54.936  1.00  0.00     0.001 A 
HETATM   19  C   UNL     1      25.404  46.394  51.571  1.00  0.00     0.044 C 
BRANCH  10  20
HETATM   20  O   UNL     1      24.302  44.381  52.307  1.00  0.00    -0.388 OA
HETATM   21  H   UNL     1      23.906  43.595  51.892  1.00  0.00     0.210 HD
ENDBRANCH  10  20
ENDBRANCH   9  10
ENDBRANCH   6   9
ENDBRANCH   1   5
BRANCH   2  22
HETATM   22  C   UNL     1      21.030  47.605  48.274  1.00  0.00     0.035 A 
HETATM   23  C   UNL     1      20.833  48.759  49.029  1.00  0.00     0.039 A 
HETATM   24  C   UNL     1      20.046  49.825  48.546  1.00  0.00    -0.029 A 
HETATM   25  C   UNL     1      19.404  49.735  47.293  1.00  0.00     0.043 A 
HETATM   26  C   UNL     1      19.906  51.033  49.433  1.00  0.00     0.042 C 
HETATM   27  N   UNL     1      18.554  50.809  46.836  1.00  0.00    -0.313 N 
HETATM   28  C   UNL     1      19.599  48.558  46.557  1.00  0.00     0.032 A 
HETATM   29  C   UNL     1      18.008  50.857  45.529  1.00  0.00     0.265 C 
HETATM   30  C   UNL     1      18.307  51.911  47.776  1.00  0.00     0.133 C 
HETATM   31  O   UNL     1      18.498  50.255  44.574  1.00  0.00    -0.267 OA
HETATM   32  C   UNL     1      19.521  52.250  48.621  1.00  0.00     0.025 C 
HETATM   33  C   UNL     1      20.410  47.516  47.031  1.00  0.00     0.032 A 
BRANCH  29  34
HETATM   34  C   UNL     1      16.808  51.674  45.350  1.00  0.00     0.073 A 
HETATM   35  S   UNL     1      15.285  51.038  45.812  1.00  0.00    -0.097 SA
HETATM   36  C   UNL     1      14.469  52.458  45.321  1.00  0.00     0.050 A 
HETATM   37  C   UNL     1      15.336  53.415  44.845  1.00  0.00     0.009 A 
HETATM   38  C   UNL     1      16.690  52.969  44.875  1.00  0.00     0.025 A 
ENDBRANCH  29  34
ENDBRANCH   2  22
TORSDOF 6
ENDMDL
MODEL 8
REMARK VINA RESULT:      -9.4     11.437     16.246
REMARK  6 active torsions:
REMARK  status: ('A' for Active; 'I' for Inactive)
REMARK    1  A    between atoms: C_6  and  O_7 
REMARK    2  A    between atoms: C_6  and  C_8 
REMARK    3  A    between atoms: C_8  and  N_9 
REMARK       I    between atoms: N_9  and  C_10 
REMARK    4  A    between atoms: C_10  and  C_11 
REMARK       I    between atoms: C_11  and  N_12 
REMARK    5  A    between atoms: N_12  and  C_13 
REMARK       I    between atoms: N_17  and  C_18 
REMARK    6  A    between atoms: C_18  and  C_19 
ROOT
HETATM    1  C   UNL     1      25.849  48.432  39.298  1.00  0.00     0.313 C 
HETATM    2  N   UNL     1      26.178  49.214  40.384  1.00  0.00    -0.319 N 
HETATM    3  O   UNL     1      26.580  47.958  38.438  1.00  0.00    -0.262 OA
HETATM    4  H   UNL     1      25.402  49.434  41.003  1.00  0.00     0.169 HD
ENDROOT
BRANCH   1   5
HETATM    5  C   UNL     1      24.332  48.157  39.201  1.00  0.00     0.309 C 
HETATM    6  N   UNL     1      23.682  49.031  38.368  1.00  0.00    -0.350 N 
HETATM    7  H   UNL     1      24.263  49.673  37.828  1.00  0.00     0.163 HD
HETATM    8  O   UNL     1      23.822  47.251  39.844  1.00  0.00    -0.262 OA
BRANCH   6   9
HETATM    9  C   UNL     1      22.254  49.032  38.130  1.00  0.00     0.161 C 
BRANCH   9  10
HETATM   10  C   UNL     1      21.562  50.168  38.919  1.00  0.00     0.078 C 
HETATM   11  C   UNL     1      20.187  50.484  38.294  1.00  0.00     0.078 C 
HETATM   12  C   UNL     1      19.293  51.343  39.162  1.00  0.00    -0.049 A 
HETATM   13  C   UNL     1      19.548  51.525  40.532  1.00  0.00    -0.052 A 
HETATM   14  C   UNL     1      18.154  51.934  38.592  1.00  0.00     0.007 A 
HETATM   15  C   UNL     1      18.684  52.324  41.295  1.00  0.00     0.007 A 
HETATM   16  C   UNL     1      20.768  50.936  41.193  1.00  0.00     0.042 C 
HETATM   17  C   UNL     1      17.562  52.915  40.715  1.00  0.00     0.001 A 
HETATM   18  C   UNL     1      17.296  52.716  39.364  1.00  0.00     0.001 A 
HETATM   19  C   UNL     1      21.385  49.788  40.398  1.00  0.00     0.044 C 
BRANCH  10  20
HETATM   20  O   UNL     1      22.422  51.322  38.855  1.00  0.00    -0.388 OA
HETATM   21  H   UNL     1      22.671  51.468  37.925  1.00  0.00     0.210 HD
ENDBRANCH  10  20
ENDBRANCH   9  10
ENDBRANCH   6   9
ENDBRANCH   1   5
BRANCH   2  22
HETATM   22  C   UNL     1      27.444  49.740  40.696  1.00  0.00     0.035 A 
HETATM   23  C   UNL     1      27.893  50.980  40.248  1.00  0.00     0.039 A 
HETATM   24  C   UNL     1      29.155  51.481  40.626  1.00  0.00    -0.029 A 
HETATM   25  C   UNL     1      30.017  50.721  41.444  1.00  0.00     0.043 A 
HETATM   26  C   UNL     1      29.542  52.838  40.098  1.00  0.00     0.042 C 
HETATM   27  N   UNL     1      31.330  51.220  41.774  1.00  0.00    -0.313 N 
HETATM   28  C   UNL     1      29.554  49.467  41.868  1.00  0.00     0.032 A 
HETATM   29  C   UNL     1      32.183  50.587  42.714  1.00  0.00     0.265 C 
HETATM   30  C   UNL     1      31.750  52.472  41.131  1.00  0.00     0.133 C 
HETATM   31  O   UNL     1      31.768  49.837  43.597  1.00  0.00    -0.267 OA
HETATM   32  C   UNL     1      30.612  53.463  40.966  1.00  0.00     0.025 C 
HETATM   33  C   UNL     1      28.283  48.990  41.514  1.00  0.00     0.032 A 
BRANCH  29  34
HETATM   34  C   UNL     1      33.612  50.867  42.593  1.00  0.00     0.073 A 
HETATM   35  S   UNL     1      34.526  50.060  41.388  1.00  0.00    -0.097 SA
HETATM   36  C   UNL     1      35.969  50.846  41.862  1.00  0.00     0.050 A 
HETATM   37  C   UNL     1      35.761  51.732  42.895  1.00  0.00     0.009 A 
HETATM   38  C   UNL     1      34.396  51.756  43.308  1.00  0.00     0.025 A 
ENDBRANCH  29  34
ENDBRANCH   2  22
TORSDOF 6
ENDMDL
MODEL 9
REMARK VINA RESULT:      -9.2      2.321      3.492
REMARK  6 active torsions:
REMARK  status: ('A' for Active; 'I' for Inactive)
REMARK    1  A    between atoms: C_6  and  O_7 
REMARK    2  A    between atoms: C_6  and  C_8 
REMARK    3  A    between atoms: C_8  and  N_9 
REMARK       I    between atoms: N_9  and  C_10 
REMARK    4  A    between atoms: C_10  and  C_11 
REMARK       I    between atoms: C_11  and  N_12 
REMARK    5  A    between atoms: N_12  and  C_13 
REMARK       I    between atoms: N_17  and  C_18 
REMARK    6  A    between atoms: C_18  and  C_19 
ROOT
HETATM    1  C   UNL     1      23.527  43.602  47.779  1.00  0.00     0.313 C 
HETATM    2  N   UNL     1      23.043  44.497  48.711  1.00  0.00    -0.319 N 
HETATM    3  O   UNL     1      23.226  43.479  46.599  1.00  0.00    -0.262 OA
HETATM    4  H   UNL     1      23.496  44.454  49.620  1.00  0.00     0.169 HD
ENDROOT
BRANCH   1   5
HETATM    5  C   UNL     1      24.586  42.645  48.369  1.00  0.00     0.309 C 
HETATM    6  N   UNL     1      25.657  43.304  48.916  1.00  0.00    -0.350 N 
HETATM    7  H   UNL     1      25.590  44.320  48.980  1.00  0.00     0.163 HD
HETATM    8  O   UNL     1      24.435  41.434  48.301  1.00  0.00    -0.262 OA
BRANCH   6   9
HETATM    9  C   UNL     1      26.813  42.653  49.496  1.00  0.00     0.161 C 
BRANCH   9  10
HETATM   10  C   UNL     1      26.987  43.053  50.980  1.00  0.00     0.078 C 
HETATM   11  C   UNL     1      28.379  42.617  51.485  1.00  0.00     0.078 C 
HETATM   12  C   UNL     1      28.780  43.231  52.808  1.00  0.00    -0.049 A 
HETATM   13  C   UNL     1      28.115  44.353  53.333  1.00  0.00    -0.052 A 
HETATM   14  C   UNL     1      29.875  42.696  53.504  1.00  0.00     0.007 A 
HETATM   15  C   UNL     1      28.531  44.891  54.560  1.00  0.00     0.007 A 
HETATM   16  C   UNL     1      26.918  44.956  52.643  1.00  0.00     0.042 C 
HETATM   17  C   UNL     1      29.613  44.343  55.247  1.00  0.00     0.001 A 
HETATM   18  C   UNL     1      30.287  43.248  54.716  1.00  0.00     0.001 A 
HETATM   19  C   UNL     1      26.818  44.569  51.169  1.00  0.00     0.044 C 
BRANCH  10  20
HETATM   20  O   UNL     1      25.949  42.391  51.728  1.00  0.00    -0.388 OA
HETATM   21  H   UNL     1      25.619  43.006  52.406  1.00  0.00     0.210 HD
ENDBRANCH  10  20
ENDBRANCH   9  10
ENDBRANCH   6   9
ENDBRANCH   1   5
BRANCH   2  22
HETATM   22  C   UNL     1      21.997  45.419  48.535  1.00  0.00     0.035 A 
HETATM   23  C   UNL     1      20.676  45.047  48.298  1.00  0.00     0.039 A 
HETATM   24  C   UNL     1      19.656  46.012  48.173  1.00  0.00    -0.029 A 
HETATM   25  C   UNL     1      19.953  47.389  48.249  1.00  0.00     0.043 A 
HETATM   26  C   UNL     1      18.258  45.506  47.930  1.00  0.00     0.042 C 
HETATM   27  N   UNL     1      18.908  48.367  48.060  1.00  0.00    -0.313 N 
HETATM   28  C   UNL     1      21.292  47.743  48.469  1.00  0.00     0.032 A 
HETATM   29  C   UNL     1      19.102  49.755  48.279  1.00  0.00     0.265 C 
HETATM   30  C   UNL     1      17.583  47.863  47.676  1.00  0.00     0.133 C 
HETATM   31  O   UNL     1      19.991  50.202  49.003  1.00  0.00    -0.267 OA
HETATM   32  C   UNL     1      17.236  46.544  48.341  1.00  0.00     0.025 C 
HETATM   33  C   UNL     1      22.296  46.775  48.625  1.00  0.00     0.032 A 
BRANCH  29  34
HETATM   34  C   UNL     1      18.180  50.660  47.595  1.00  0.00     0.073 A 
HETATM   35  S   UNL     1      16.861  51.327  48.464  1.00  0.00    -0.097 SA
HETATM   36  C   UNL     1      16.304  52.183  47.093  1.00  0.00     0.050 A 
HETATM   37  C   UNL     1      17.120  51.996  45.999  1.00  0.00     0.009 A 
HETATM   38  C   UNL     1      18.213  51.128  46.293  1.00  0.00     0.025 A 
ENDBRANCH  29  34
ENDBRANCH   2  22
TORSDOF 6
ENDMDL
MODEL 10
REMARK VINA RESULT:      -9.0      1.782      2.261
REMARK  6 active torsions:
REMARK  status: ('A' for Active; 'I' for Inactive)
REMARK    1  A    between atoms: C_6  and  O_7 
REMARK    2  A    between atoms: C_6  and  C_8 
REMARK    3  A    between atoms: C_8  and  N_9 
REMARK       I    between atoms: N_9  and  C_10 
REMARK    4  A    between atoms: C_10  and  C_11 
REMARK       I    between atoms: C_11  and  N_12 
REMARK    5  A    between atoms: N_12  and  C_13 
REMARK       I    between atoms: N_17  and  C_18 
REMARK    6  A    between atoms: C_18  and  C_19 
ROOT
HETATM    1  C   UNL     1      23.848  45.285  49.800  1.00  0.00     0.313 C 
HETATM    2  N   UNL     1      22.491  45.183  49.576  1.00  0.00    -0.319 N 
HETATM    3  O   UNL     1      24.622  46.170  49.459  1.00  0.00    -0.262 OA
HETATM    4  H   UNL     1      22.044  44.384  50.018  1.00  0.00     0.169 HD
ENDROOT
BRANCH   1   5
HETATM    5  C   UNL     1      24.412  44.083  50.589  1.00  0.00     0.309 C 
HETATM    6  N   UNL     1      25.751  44.201  50.859  1.00  0.00    -0.350 N 
HETATM    7  H   UNL     1      26.193  45.090  50.623  1.00  0.00     0.163 HD
HETATM    8  O   UNL     1      23.690  43.144  50.891  1.00  0.00    -0.262 OA
BRANCH   6   9
HETATM    9  C   UNL     1      26.544  43.200  51.542  1.00  0.00     0.161 C 
BRANCH   9  10
HETATM   10  C   UNL     1      27.016  43.716  52.922  1.00  0.00     0.078 C 
HETATM   11  C   UNL     1      28.454  43.232  53.203  1.00  0.00     0.078 C 
HETATM   12  C   UNL     1      29.129  43.930  54.363  1.00  0.00    -0.049 A 
HETATM   13  C   UNL     1      28.634  45.136  54.887  1.00  0.00    -0.052 A 
HETATM   14  C   UNL     1      30.308  43.384  54.895  1.00  0.00     0.007 A 
HETATM   15  C   UNL     1      29.301  45.750  55.958  1.00  0.00     0.007 A 
HETATM   16  C   UNL     1      27.360  45.757  54.373  1.00  0.00     0.042 C 
HETATM   17  C   UNL     1      30.465  45.192  56.485  1.00  0.00     0.001 A 
HETATM   18  C   UNL     1      30.969  44.010  55.950  1.00  0.00     0.001 A 
HETATM   19  C   UNL     1      26.963  45.250  52.989  1.00  0.00     0.044 C 
BRANCH  10  20
HETATM   20  O   UNL     1      26.106  43.194  53.910  1.00  0.00    -0.388 OA
HETATM   21  H   UNL     1      25.366  42.762  53.448  1.00  0.00     0.210 HD
ENDBRANCH  10  20
ENDBRANCH   9  10
ENDBRANCH   6   9
ENDBRANCH   1   5
BRANCH   2  22
HETATM   22  C   UNL     1      21.695  46.040  48.797  1.00  0.00     0.035 A 
HETATM   23  C   UNL     1      21.573  47.406  49.038  1.00  0.00     0.039 A 
HETATM   24  C   UNL     1      20.794  48.230  48.201  1.00  0.00    -0.029 A 
HETATM   25  C   UNL     1      20.085  47.685  47.110  1.00  0.00     0.043 A 
HETATM   26  C   UNL     1      20.737  49.697  48.540  1.00  0.00     0.042 C 
HETATM   27  N   UNL     1      19.245  48.530  46.296  1.00  0.00    -0.313 N 
HETATM   28  C   UNL     1      20.205  46.304  46.896  1.00  0.00     0.032 A 
HETATM   29  C   UNL     1      18.633  48.084  45.098  1.00  0.00     0.265 C 
HETATM   30  C   UNL     1      19.081  49.924  46.729  1.00  0.00     0.133 C 
HETATM   31  O   UNL     1      19.054  47.131  44.443  1.00  0.00    -0.267 OA
HETATM   32  C   UNL     1      20.347  50.511  47.325  1.00  0.00     0.025 C 
HETATM   33  C   UNL     1      21.009  45.496  47.716  1.00  0.00     0.032 A 
BRANCH  29  34
HETATM   34  C   UNL     1      17.451  48.821  44.653  1.00  0.00     0.073 A 
HETATM   35  S   UNL     1      17.583  49.895  43.323  1.00  0.00    -0.097 SA
HETATM   36  C   UNL     1      15.934  50.333  43.428  1.00  0.00     0.050 A 
HETATM   37  C   UNL     1      15.280  49.655  44.431  1.00  0.00     0.009 A 
HETATM   38  C   UNL     1      16.152  48.769  45.131  1.00  0.00     0.025 A 
ENDBRANCH  29  34
ENDBRANCH   2  22
TORSDOF 6
ENDMDL
