MODEL 1
REMARK VINA RESULT:      -9.3      0.000      0.000
REMARK  6 active torsions:
REMARK  status: ('A' for Active; 'I' for Inactive)
REMARK    1  A    between atoms: C_6  and  C_7 
REMARK    2  A    between atoms: C_7  and  N_8 
REMARK       I    between atoms: N_8  and  C_9 
REMARK       I    between atoms: C_9  and  N_10 
REMARK    3  A    between atoms: N_10  and  C_11 
REMARK    4  A    between atoms: C_11  and  C_12 
REMARK       I    between atoms: C_12  and  N_13 
REMARK    5  A    between atoms: N_13  and  N_14 
REMARK       I    between atoms: N_14  and  C_15 
REMARK    6  A    between atoms: C_15  and  C_16 
ROOT
HETATM    1  C   UNL     1      24.836  43.127  50.192  1.00  0.00     0.117 C 
HETATM    2  C   UNL     1      25.429  42.323  49.024  1.00  0.00     0.041 C 
HETATM    3  C   UNL     1      24.347  42.379  47.958  1.00  0.00     0.003 C 
HETATM    4  C   UNL     1      23.042  42.259  48.730  1.00  0.00     0.003 C 
HETATM    5  C   UNL     1      23.352  42.690  50.165  1.00  0.00     0.041 C 
ENDROOT
BRANCH   1   6
HETATM    6  N   UNL     1      25.403  42.766  51.501  1.00  0.00    -0.325 N 
HETATM    7  C   UNL     1      26.748  42.648  51.714  1.00  0.00     0.317 C 
HETATM    8  N   UNL     1      27.020  42.306  53.010  1.00  0.00    -0.339 N 
HETATM    9  O   UNL     1      27.596  42.846  50.855  1.00  0.00    -0.247 OA
HETATM   10  H   UNL     1      26.355  41.659  53.409  1.00  0.00     0.164 HD
HETATM   11  H   UNL     1      24.903  43.117  52.307  1.00  0.00     0.165 HD
BRANCH   8  12
HETATM   12  C   UNL     1      28.400  42.134  53.411  1.00  0.00     0.162 C 
BRANCH  12  13
HETATM   13  C   UNL     1      28.908  43.266  54.270  1.00  0.00    -0.039 A 
HETATM   14  C   UNL     1      28.249  44.503  54.338  1.00  0.00     0.027 A 
HETATM   15  C   UNL     1      28.763  45.532  55.129  1.00  0.00     0.011 A 
HETATM   16  C   UNL     1      29.947  45.357  55.841  1.00  0.00     0.019 A 
HETATM   17 BR   UNL     1      27.842  47.180  55.235  1.00  0.00    -0.051 Br
HETATM   18  C   UNL     1      30.626  44.143  55.757  1.00  0.00     0.002 A 
HETATM   19  C   UNL     1      30.112  43.106  54.976  1.00  0.00     0.009 A 
ENDBRANCH  12  13
ENDBRANCH   8  12
ENDBRANCH   1   6
BRANCH   1  20
HETATM   20  C   UNL     1      24.959  44.670  49.976  1.00  0.00     0.264 C 
HETATM   21  N   UNL     1      23.896  45.415  50.451  1.00  0.00    -0.265 N 
HETATM   22  H   UNL     1      22.992  44.970  50.662  1.00  0.00     0.190 HD
HETATM   23  O   UNL     1      25.904  45.199  49.388  1.00  0.00    -0.269 OA
BRANCH  21  24
HETATM   24  N   UNL     1      23.874  46.786  50.170  1.00  0.00    -0.262 N 
HETATM   25  C   UNL     1      23.081  47.258  49.145  1.00  0.00     0.286 C 
HETATM   26  O   UNL     1      22.398  46.513  48.443  1.00  0.00    -0.264 OA
HETATM   27  H   UNL     1      24.451  47.382  50.755  1.00  0.00     0.190 HD
BRANCH  25  28
HETATM   28  C   UNL     1      23.105  48.691  48.947  1.00  0.00     0.102 A 
HETATM   29  N   UNL     1      22.373  49.533  49.759  1.00  0.00    -0.361 N 
HETATM   30  H   UNL     1      21.788  49.207  50.519  1.00  0.00     0.165 HD
HETATM   31  C   UNL     1      22.558  50.836  49.385  1.00  0.00     0.088 A 
HETATM   32  C   UNL     1      23.424  50.848  48.315  1.00  0.00     0.019 A 
HETATM   33  C   UNL     1      23.768  49.501  48.038  1.00  0.00     0.036 A 
ENDBRANCH  25  28
ENDBRANCH  21  24
ENDBRANCH   1  20
TORSDOF 6
ENDMDL
MODEL 2
REMARK VINA RESULT:      -8.6      3.018      6.497
REMARK  6 active torsions:
REMARK  status: ('A' for Active; 'I' for Inactive)
REMARK    1  A    between atoms: C_6  and  C_7 
REMARK    2  A    between atoms: C_7  and  N_8 
REMARK       I    between atoms: N_8  and  C_9 
REMARK       I    between atoms: C_9  and  N_10 
REMARK    3  A    between atoms: N_10  and  C_11 
REMARK    4  A    between atoms: C_11  and  C_12 
REMARK       I    between atoms: C_12  and  N_13 
REMARK    5  A    between atoms: N_13  and  N_14 
REMARK       I    between atoms: N_14  and  C_15 
REMARK    6  A    between atoms: C_15  and  C_16 
ROOT
HETATM    1  C   UNL     1      24.573  43.884  50.770  1.00  0.00     0.117 C 
HETATM    2  C   UNL     1      23.094  43.468  50.691  1.00  0.00     0.041 C 
HETATM    3  C   UNL     1      22.697  43.810  49.264  1.00  0.00     0.003 C 
HETATM    4  C   UNL     1      23.412  45.120  48.971  1.00  0.00     0.003 C 
HETATM    5  C   UNL     1      24.582  45.199  49.954  1.00  0.00     0.041 C 
ENDROOT
BRANCH   1   6
HETATM    6  N   UNL     1      25.025  44.183  52.139  1.00  0.00    -0.325 N 
HETATM    7  C   UNL     1      26.115  44.966  52.399  1.00  0.00     0.317 C 
HETATM    8  N   UNL     1      26.326  45.093  53.744  1.00  0.00    -0.339 N 
HETATM    9  O   UNL     1      26.794  45.501  51.534  1.00  0.00    -0.247 OA
HETATM   10  H   UNL     1      26.133  44.252  54.269  1.00  0.00     0.164 HD
HETATM   11  H   UNL     1      24.294  44.275  52.831  1.00  0.00     0.165 HD
BRANCH   8  12
HETATM   12  C   UNL     1      27.445  45.890  54.201  1.00  0.00     0.162 C 
BRANCH  12  13
HETATM   13  C   UNL     1      28.578  45.056  54.748  1.00  0.00    -0.039 A 
HETATM   14  C   UNL     1      29.208  45.364  55.963  1.00  0.00     0.027 A 
HETATM   15  C   UNL     1      30.267  44.580  56.426  1.00  0.00     0.011 A 
HETATM   16  C   UNL     1      30.729  43.499  55.679  1.00  0.00     0.019 A 
HETATM   17 BR   UNL     1      31.081  44.989  58.082  1.00  0.00    -0.051 Br
HETATM   18  C   UNL     1      30.130  43.202  54.456  1.00  0.00     0.002 A 
HETATM   19  C   UNL     1      29.064  43.976  53.993  1.00  0.00     0.009 A 
ENDBRANCH  12  13
ENDBRANCH   8  12
ENDBRANCH   1   6
BRANCH   1  20
HETATM   20  C   UNL     1      25.525  42.828  50.123  1.00  0.00     0.264 C 
HETATM   21  N   UNL     1      25.596  41.617  50.785  1.00  0.00    -0.265 N 
HETATM   22  H   UNL     1      25.277  41.530  51.760  1.00  0.00     0.190 HD
HETATM   23  O   UNL     1      26.207  43.054  49.121  1.00  0.00    -0.269 OA
BRANCH  21  24
HETATM   24  N   UNL     1      26.531  40.676  50.341  1.00  0.00    -0.262 N 
HETATM   25  C   UNL     1      27.761  40.593  50.961  1.00  0.00     0.286 C 
HETATM   26  O   UNL     1      28.083  41.335  51.888  1.00  0.00    -0.264 OA
HETATM   27  H   UNL     1      26.248  40.079  49.570  1.00  0.00     0.190 HD
BRANCH  25  28
HETATM   28  C   UNL     1      28.650  39.573  50.448  1.00  0.00     0.102 A 
HETATM   29  N   UNL     1      29.431  38.818  51.299  1.00  0.00    -0.361 N 
HETATM   30  H   UNL     1      29.431  38.930  52.305  1.00  0.00     0.165 HD
HETATM   31  C   UNL     1      30.180  37.920  50.587  1.00  0.00     0.088 A 
HETATM   32  C   UNL     1      29.885  38.090  49.254  1.00  0.00     0.019 A 
HETATM   33  C   UNL     1      28.925  39.129  49.164  1.00  0.00     0.036 A 
ENDBRANCH  25  28
ENDBRANCH  21  24
ENDBRANCH   1  20
TORSDOF 6
ENDMDL
MODEL 3
REMARK VINA RESULT:      -8.6      3.206      8.780
REMARK  6 active torsions:
REMARK  status: ('A' for Active; 'I' for Inactive)
REMARK    1  A    between atoms: C_6  and  C_7 
REMARK    2  A    between atoms: C_7  and  N_8 
REMARK       I    between atoms: N_8  and  C_9 
REMARK       I    between atoms: C_9  and  N_10 
REMARK    3  A    between atoms: N_10  and  C_11 
REMARK    4  A    between atoms: C_11  and  C_12 
REMARK       I    between atoms: C_12  and  N_13 
REMARK    5  A    between atoms: N_13  and  N_14 
REMARK       I    between atoms: N_14  and  C_15 
REMARK    6  A    between atoms: C_15  and  C_16 
ROOT
HETATM    1  C   UNL     1      26.433  44.982  52.784  1.00  0.00     0.117 C 
HETATM    2  C   UNL     1      27.428  45.378  53.888  1.00  0.00     0.041 C 
HETATM    3  C   UNL     1      27.389  44.202  54.850  1.00  0.00     0.003 C 
HETATM    4  C   UNL     1      25.928  43.784  54.887  1.00  0.00     0.003 C 
HETATM    5  C   UNL     1      25.298  44.314  53.597  1.00  0.00     0.041 C 
ENDROOT
BRANCH   1   6
HETATM    6  N   UNL     1      25.870  46.133  52.060  1.00  0.00    -0.325 N 
HETATM    7  C   UNL     1      24.917  45.999  51.090  1.00  0.00     0.317 C 
HETATM    8  N   UNL     1      24.559  47.212  50.572  1.00  0.00    -0.339 N 
HETATM    9  O   UNL     1      24.434  44.927  50.751  1.00  0.00    -0.247 OA
HETATM   10  H   UNL     1      25.328  47.860  50.481  1.00  0.00     0.164 HD
HETATM   11  H   UNL     1      25.773  46.983  52.598  1.00  0.00     0.165 HD
BRANCH   8  12
HETATM   12  C   UNL     1      23.558  47.256  49.527  1.00  0.00     0.162 C 
BRANCH  12  13
HETATM   13  C   UNL     1      23.244  48.659  49.071  1.00  0.00    -0.039 A 
HETATM   14  C   UNL     1      21.976  49.233  49.250  1.00  0.00     0.027 A 
HETATM   15  C   UNL     1      21.717  50.527  48.795  1.00  0.00     0.011 A 
HETATM   16  C   UNL     1      22.703  51.258  48.136  1.00  0.00     0.019 A 
HETATM   17 BR   UNL     1      20.014  51.297  49.078  1.00  0.00    -0.051 Br
HETATM   18  C   UNL     1      23.957  50.687  47.926  1.00  0.00     0.002 A 
HETATM   19  C   UNL     1      24.224  49.397  48.388  1.00  0.00     0.009 A 
ENDBRANCH  12  13
ENDBRANCH   8  12
ENDBRANCH   1   6
BRANCH   1  20
HETATM   20  C   UNL     1      27.047  43.971  51.764  1.00  0.00     0.264 C 
HETATM   21  N   UNL     1      26.475  42.712  51.769  1.00  0.00    -0.265 N 
HETATM   22  H   UNL     1      25.903  42.396  52.563  1.00  0.00     0.190 HD
HETATM   23  O   UNL     1      28.002  44.241  51.032  1.00  0.00    -0.269 OA
BRANCH  21  24
HETATM   24  N   UNL     1      27.065  41.717  50.980  1.00  0.00    -0.262 N 
HETATM   25  C   UNL     1      28.013  40.882  51.534  1.00  0.00     0.286 C 
HETATM   26  O   UNL     1      28.384  40.989  52.702  1.00  0.00    -0.264 OA
HETATM   27  H   UNL     1      26.751  41.651  50.017  1.00  0.00     0.190 HD
BRANCH  25  28
HETATM   28  C   UNL     1      28.546  39.870  50.648  1.00  0.00     0.102 A 
HETATM   29  N   UNL     1      29.350  38.857  51.129  1.00  0.00    -0.361 N 
HETATM   30  H   UNL     1      29.611  38.765  52.103  1.00  0.00     0.165 HD
HETATM   31  C   UNL     1      29.725  38.023  50.111  1.00  0.00     0.088 A 
HETATM   32  C   UNL     1      29.159  38.495  48.950  1.00  0.00     0.019 A 
HETATM   33  C   UNL     1      28.418  39.656  49.285  1.00  0.00     0.036 A 
ENDBRANCH  25  28
ENDBRANCH  21  24
ENDBRANCH   1  20
TORSDOF 6
ENDMDL
MODEL 4
REMARK VINA RESULT:      -8.6      1.745      2.209
REMARK  6 active torsions:
REMARK  status: ('A' for Active; 'I' for Inactive)
REMARK    1  A    between atoms: C_6  and  C_7 
REMARK    2  A    between atoms: C_7  and  N_8 
REMARK       I    between atoms: N_8  and  C_9 
REMARK       I    between atoms: C_9  and  N_10 
REMARK    3  A    between atoms: N_10  and  C_11 
REMARK    4  A    between atoms: C_11  and  C_12 
REMARK       I    between atoms: C_12  and  N_13 
REMARK    5  A    between atoms: N_13  and  N_14 
REMARK       I    between atoms: N_14  and  C_15 
REMARK    6  A    between atoms: C_15  and  C_16 
ROOT
HETATM    1  C   UNL     1      23.935  43.927  49.723  1.00  0.00     0.117 C 
HETATM    2  C   UNL     1      24.761  43.519  48.492  1.00  0.00     0.041 C 
HETATM    3  C   UNL     1      23.817  42.628  47.700  1.00  0.00     0.003 C 
HETATM    4  C   UNL     1      23.080  41.818  48.756  1.00  0.00     0.003 C 
HETATM    5  C   UNL     1      23.186  42.614  50.058  1.00  0.00     0.041 C 
ENDROOT
BRANCH   1   6
HETATM    6  N   UNL     1      24.758  44.302  50.884  1.00  0.00    -0.325 N 
HETATM    7  C   UNL     1      25.709  43.474  51.411  1.00  0.00     0.317 C 
HETATM    8  N   UNL     1      26.336  44.052  52.480  1.00  0.00    -0.339 N 
HETATM    9  O   UNL     1      25.976  42.368  50.963  1.00  0.00    -0.247 OA
HETATM   10  H   UNL     1      25.723  44.603  53.063  1.00  0.00     0.164 HD
HETATM   11  H   UNL     1      25.003  45.281  50.949  1.00  0.00     0.165 HD
BRANCH   8  12
HETATM   12  C   UNL     1      27.373  43.310  53.164  1.00  0.00     0.162 C 
BRANCH  12  13
HETATM   13  C   UNL     1      28.184  44.164  54.108  1.00  0.00    -0.039 A 
HETATM   14  C   UNL     1      29.252  43.641  54.853  1.00  0.00     0.027 A 
HETATM   15  C   UNL     1      29.965  44.459  55.731  1.00  0.00     0.011 A 
HETATM   16  C   UNL     1      29.613  45.796  55.900  1.00  0.00     0.019 A 
HETATM   17 BR   UNL     1      31.423  43.746  56.700  1.00  0.00    -0.051 Br
HETATM   18  C   UNL     1      28.535  46.319  55.188  1.00  0.00     0.002 A 
HETATM   19  C   UNL     1      27.825  45.508  54.300  1.00  0.00     0.009 A 
ENDBRANCH  12  13
ENDBRANCH   8  12
ENDBRANCH   1   6
BRANCH   1  20
HETATM   20  C   UNL     1      22.920  45.073  49.408  1.00  0.00     0.264 C 
HETATM   21  N   UNL     1      23.415  46.354  49.566  1.00  0.00    -0.265 N 
HETATM   22  H   UNL     1      24.270  46.525  50.112  1.00  0.00     0.190 HD
HETATM   23  O   UNL     1      21.748  44.871  49.086  1.00  0.00    -0.269 OA
BRANCH  21  24
HETATM   24  N   UNL     1      22.524  47.425  49.435  1.00  0.00    -0.262 N 
HETATM   25  C   UNL     1      23.013  48.714  49.384  1.00  0.00     0.286 C 
HETATM   26  O   UNL     1      24.213  48.968  49.471  1.00  0.00    -0.264 OA
HETATM   27  H   UNL     1      21.538  47.195  49.374  1.00  0.00     0.190 HD
BRANCH  25  28
HETATM   28  C   UNL     1      22.017  49.752  49.223  1.00  0.00     0.102 A 
HETATM   29  N   UNL     1      20.824  49.705  49.913  1.00  0.00    -0.361 N 
HETATM   30  H   UNL     1      20.578  48.961  50.555  1.00  0.00     0.165 HD
HETATM   31  C   UNL     1      20.051  50.791  49.603  1.00  0.00     0.088 A 
HETATM   32  C   UNL     1      20.747  51.558  48.699  1.00  0.00     0.019 A 
HETATM   33  C   UNL     1      21.983  50.907  48.457  1.00  0.00     0.036 A 
ENDBRANCH  25  28
ENDBRANCH  21  24
ENDBRANCH   1  20
TORSDOF 6
ENDMDL
MODEL 5
REMARK VINA RESULT:      -8.5      3.083      8.523
REMARK  6 active torsions:
REMARK  status: ('A' for Active; 'I' for Inactive)
REMARK    1  A    between atoms: C_6  and  C_7 
REMARK    2  A    between atoms: C_7  and  N_8 
REMARK       I    between atoms: N_8  and  C_9 
REMARK       I    between atoms: C_9  and  N_10 
REMARK    3  A    between atoms: N_10  and  C_11 
REMARK    4  A    between atoms: C_11  and  C_12 
REMARK       I    between atoms: C_12  and  N_13 
REMARK    5  A    between atoms: N_13  and  N_14 
REMARK       I    between atoms: N_14  and  C_15 
REMARK    6  A    between atoms: C_15  and  C_16 
ROOT
HETATM    1  C   UNL     1      24.799  44.320  50.813  1.00  0.00     0.117 C 
HETATM    2  C   UNL     1      24.279  42.874  50.739  1.00  0.00     0.041 C 
HETATM    3  C   UNL     1      25.544  42.040  50.616  1.00  0.00     0.003 C 
HETATM    4  C   UNL     1      26.452  42.853  49.706  1.00  0.00     0.003 C 
HETATM    5  C   UNL     1      25.960  44.299  49.789  1.00  0.00     0.041 C 
ENDROOT
BRANCH   1   6
HETATM    6  N   UNL     1      23.813  45.322  50.378  1.00  0.00    -0.325 N 
HETATM    7  C   UNL     1      24.163  46.594  50.023  1.00  0.00     0.317 C 
HETATM    8  N   UNL     1      23.069  47.328  49.656  1.00  0.00    -0.339 N 
HETATM    9  O   UNL     1      25.313  47.009  50.016  1.00  0.00    -0.247 OA
HETATM   10  H   UNL     1      22.244  47.132  50.204  1.00  0.00     0.164 HD
HETATM   11  H   UNL     1      23.029  44.963  49.849  1.00  0.00     0.165 HD
BRANCH   8  12
HETATM   12  C   UNL     1      23.257  48.705  49.252  1.00  0.00     0.162 C 
BRANCH  12  13
HETATM   13  C   UNL     1      21.957  49.446  49.061  1.00  0.00    -0.039 A 
HETATM   14  C   UNL     1      20.715  48.793  49.107  1.00  0.00     0.027 A 
HETATM   15  C   UNL     1      19.534  49.510  48.905  1.00  0.00     0.011 A 
HETATM   16  C   UNL     1      19.571  50.875  48.631  1.00  0.00     0.019 A 
HETATM   17 BR   UNL     1      17.869  48.621  49.007  1.00  0.00    -0.051 Br
HETATM   18  C   UNL     1      20.800  51.528  48.553  1.00  0.00     0.002 A 
HETATM   19  C   UNL     1      21.983  50.818  48.765  1.00  0.00     0.009 A 
ENDBRANCH  12  13
ENDBRANCH   8  12
ENDBRANCH   1   6
BRANCH   1  20
HETATM   20  C   UNL     1      25.328  44.690  52.236  1.00  0.00     0.264 C 
HETATM   21  N   UNL     1      26.568  45.302  52.260  1.00  0.00    -0.265 N 
HETATM   22  H   UNL     1      27.196  45.252  51.447  1.00  0.00     0.190 HD
HETATM   23  O   UNL     1      24.722  44.424  53.276  1.00  0.00    -0.269 OA
BRANCH  21  24
HETATM   24  N   UNL     1      27.163  45.536  53.505  1.00  0.00    -0.262 N 
HETATM   25  C   UNL     1      28.291  44.827  53.864  1.00  0.00     0.286 C 
HETATM   26  O   UNL     1      28.790  43.970  53.137  1.00  0.00    -0.264 OA
HETATM   27  H   UNL     1      26.731  46.241  54.094  1.00  0.00     0.190 HD
BRANCH  25  28
HETATM   28  C   UNL     1      28.848  45.157  55.158  1.00  0.00     0.102 A 
HETATM   29  N   UNL     1      28.159  45.957  56.046  1.00  0.00    -0.361 N 
HETATM   30  H   UNL     1      27.247  46.353  55.850  1.00  0.00     0.165 HD
HETATM   31  C   UNL     1      28.880  46.123  57.197  1.00  0.00     0.088 A 
HETATM   32  C   UNL     1      30.056  45.422  57.061  1.00  0.00     0.019 A 
HETATM   33  C   UNL     1      30.039  44.815  55.780  1.00  0.00     0.036 A 
ENDBRANCH  25  28
ENDBRANCH  21  24
ENDBRANCH   1  20
TORSDOF 6
ENDMDL
MODEL 6
REMARK VINA RESULT:      -8.4      2.035      2.689
REMARK  6 active torsions:
REMARK  status: ('A' for Active; 'I' for Inactive)
REMARK    1  A    between atoms: C_6  and  C_7 
REMARK    2  A    between atoms: C_7  and  N_8 
REMARK       I    between atoms: N_8  and  C_9 
REMARK       I    between atoms: C_9  and  N_10 
REMARK    3  A    between atoms: N_10  and  C_11 
REMARK    4  A    between atoms: C_11  and  C_12 
REMARK       I    between atoms: C_12  and  N_13 
REMARK    5  A    between atoms: N_13  and  N_14 
REMARK       I    between atoms: N_14  and  C_15 
REMARK    6  A    between atoms: C_15  and  C_16 
ROOT
HETATM    1  C   UNL     1      26.222  41.664  50.093  1.00  0.00     0.117 C 
HETATM    2  C   UNL     1      27.475  41.755  49.206  1.00  0.00     0.041 C 
HETATM    3  C   UNL     1      27.213  40.742  48.103  1.00  0.00     0.003 C 
HETATM    4  C   UNL     1      26.536  39.576  48.807  1.00  0.00     0.003 C 
HETATM    5  C   UNL     1      25.939  40.143  50.097  1.00  0.00     0.041 C 
ENDROOT
BRANCH   1   6
HETATM    6  N   UNL     1      26.451  42.098  51.480  1.00  0.00    -0.325 N 
HETATM    7  C   UNL     1      27.034  43.295  51.790  1.00  0.00     0.317 C 
HETATM    8  N   UNL     1      27.133  43.465  53.143  1.00  0.00    -0.339 N 
HETATM    9  O   UNL     1      27.396  44.115  50.958  1.00  0.00    -0.247 OA
HETATM   10  H   UNL     1      27.351  42.617  53.646  1.00  0.00     0.164 HD
HETATM   11  H   UNL     1      25.750  41.812  52.150  1.00  0.00     0.165 HD
BRANCH   8  12
HETATM   12  C   UNL     1      27.731  44.681  53.651  1.00  0.00     0.162 C 
BRANCH  12  13
HETATM   13  C   UNL     1      28.874  44.424  54.602  1.00  0.00    -0.039 A 
HETATM   14  C   UNL     1      29.104  45.233  55.725  1.00  0.00     0.027 A 
HETATM   15  C   UNL     1      30.184  44.975  56.571  1.00  0.00     0.011 A 
HETATM   16  C   UNL     1      31.063  43.929  56.300  1.00  0.00     0.019 A 
HETATM   17 BR   UNL     1      30.457  46.055  58.099  1.00  0.00    -0.051 Br
HETATM   18  C   UNL     1      30.862  43.136  55.171  1.00  0.00     0.002 A 
HETATM   19  C   UNL     1      29.777  43.384  54.328  1.00  0.00     0.009 A 
ENDBRANCH  12  13
ENDBRANCH   8  12
ENDBRANCH   1   6
BRANCH   1  20
HETATM   20  C   UNL     1      25.009  42.447  49.493  1.00  0.00     0.264 C 
HETATM   21  N   UNL     1      25.320  43.672  48.934  1.00  0.00    -0.265 N 
HETATM   22  H   UNL     1      26.210  44.141  49.154  1.00  0.00     0.190 HD
HETATM   23  O   UNL     1      23.847  42.040  49.545  1.00  0.00    -0.269 OA
BRANCH  21  24
HETATM   24  N   UNL     1      24.267  44.487  48.504  1.00  0.00    -0.262 N 
HETATM   25  C   UNL     1      23.818  45.506  49.318  1.00  0.00     0.286 C 
HETATM   26  O   UNL     1      24.295  45.719  50.432  1.00  0.00    -0.264 OA
HETATM   27  H   UNL     1      23.882  44.289  47.586  1.00  0.00     0.190 HD
BRANCH  25  28
HETATM   28  C   UNL     1      22.743  46.309  48.776  1.00  0.00     0.102 A 
HETATM   29  N   UNL     1      21.433  45.879  48.839  1.00  0.00    -0.361 N 
HETATM   30  H   UNL     1      21.153  45.000  49.255  1.00  0.00     0.165 HD
HETATM   31  C   UNL     1      20.601  46.804  48.269  1.00  0.00     0.088 A 
HETATM   32  C   UNL     1      21.375  47.852  47.828  1.00  0.00     0.019 A 
HETATM   33  C   UNL     1      22.722  47.543  48.145  1.00  0.00     0.036 A 
ENDBRANCH  25  28
ENDBRANCH  21  24
ENDBRANCH   1  20
TORSDOF 6
ENDMDL
MODEL 7
REMARK VINA RESULT:      -8.3      2.462      3.462
REMARK  6 active torsions:
REMARK  status: ('A' for Active; 'I' for Inactive)
REMARK    1  A    between atoms: C_6  and  C_7 
REMARK    2  A    between atoms: C_7  and  N_8 
REMARK       I    between atoms: N_8  and  C_9 
REMARK       I    between atoms: C_9  and  N_10 
REMARK    3  A    between atoms: N_10  and  C_11 
REMARK    4  A    between atoms: C_11  and  C_12 
REMARK       I    between atoms: C_12  and  N_13 
REMARK    5  A    between atoms: N_13  and  N_14 
REMARK       I    between atoms: N_14  and  C_15 
REMARK    6  A    between atoms: C_15  and  C_16 
ROOT
HETATM    1  C   UNL     1      27.604  40.460  48.706  1.00  0.00     0.117 C 
HETATM    2  C   UNL     1      28.386  40.333  47.388  1.00  0.00     0.041 C 
HETATM    3  C   UNL     1      27.443  39.559  46.480  1.00  0.00     0.003 C 
HETATM    4  C   UNL     1      26.793  38.530  47.391  1.00  0.00     0.003 C 
HETATM    5  C   UNL     1      26.928  39.072  48.816  1.00  0.00     0.041 C 
ENDROOT
BRANCH   1   6
HETATM    6  N   UNL     1      28.465  40.652  49.884  1.00  0.00    -0.325 N 
HETATM    7  C   UNL     1      27.968  40.743  51.153  1.00  0.00     0.317 C 
HETATM    8  N   UNL     1      28.968  40.917  52.069  1.00  0.00    -0.339 N 
HETATM    9  O   UNL     1      26.780  40.656  51.429  1.00  0.00    -0.247 OA
HETATM   10  H   UNL     1      29.720  41.508  51.744  1.00  0.00     0.164 HD
HETATM   11  H   UNL     1      29.370  40.201  49.842  1.00  0.00     0.165 HD
BRANCH   8  12
HETATM   12  C   UNL     1      28.619  41.037  53.468  1.00  0.00     0.162 C 
BRANCH  12  13
HETATM   13  C   UNL     1      28.663  42.461  53.966  1.00  0.00    -0.039 A 
HETATM   14  C   UNL     1      27.636  43.377  53.691  1.00  0.00     0.027 A 
HETATM   15  C   UNL     1      27.722  44.692  54.152  1.00  0.00     0.011 A 
HETATM   16  C   UNL     1      28.837  45.121  54.869  1.00  0.00     0.019 A 
HETATM   17 BR   UNL     1      26.312  45.902  53.802  1.00  0.00    -0.051 Br
HETATM   18  C   UNL     1      29.877  44.228  55.122  1.00  0.00     0.002 A 
HETATM   19  C   UNL     1      29.791  42.909  54.672  1.00  0.00     0.009 A 
ENDBRANCH  12  13
ENDBRANCH   8  12
ENDBRANCH   1   6
BRANCH   1  20
HETATM   20  C   UNL     1      26.528  41.592  48.654  1.00  0.00     0.264 C 
HETATM   21  N   UNL     1      26.992  42.856  48.966  1.00  0.00    -0.265 N 
HETATM   22  H   UNL     1      27.885  42.983  49.460  1.00  0.00     0.190 HD
HETATM   23  O   UNL     1      25.339  41.386  48.401  1.00  0.00    -0.269 OA
BRANCH  21  24
HETATM   24  N   UNL     1      26.057  43.893  49.074  1.00  0.00    -0.262 N 
HETATM   25  C   UNL     1      26.468  45.136  49.508  1.00  0.00     0.286 C 
HETATM   26  O   UNL     1      27.632  45.372  49.829  1.00  0.00    -0.264 OA
HETATM   27  H   UNL     1      25.101  43.675  48.812  1.00  0.00     0.190 HD
BRANCH  25  28
HETATM   28  C   UNL     1      25.435  46.149  49.562  1.00  0.00     0.102 A 
HETATM   29  N   UNL     1      25.758  47.487  49.669  1.00  0.00    -0.361 N 
HETATM   30  H   UNL     1      26.709  47.831  49.716  1.00  0.00     0.165 HD
HETATM   31  C   UNL     1      24.622  48.249  49.697  1.00  0.00     0.088 A 
HETATM   32  C   UNL     1      23.543  47.400  49.608  1.00  0.00     0.019 A 
HETATM   33  C   UNL     1      24.052  46.080  49.524  1.00  0.00     0.036 A 
ENDBRANCH  25  28
ENDBRANCH  21  24
ENDBRANCH   1  20
TORSDOF 6
ENDMDL
MODEL 8
REMARK VINA RESULT:      -8.0      5.348      8.898
REMARK  6 active torsions:
REMARK  status: ('A' for Active; 'I' for Inactive)
REMARK    1  A    between atoms: C_6  and  C_7 
REMARK    2  A    between atoms: C_7  and  N_8 
REMARK       I    between atoms: N_8  and  C_9 
REMARK       I    between atoms: C_9  and  N_10 
REMARK    3  A    between atoms: N_10  and  C_11 
REMARK    4  A    between atoms: C_11  and  C_12 
REMARK       I    between atoms: C_12  and  N_13 
REMARK    5  A    between atoms: N_13  and  N_14 
REMARK       I    between atoms: N_14  and  C_15 
REMARK    6  A    between atoms: C_15  and  C_16 
ROOT
HETATM    1  C   UNL     1      19.357  50.129  49.173  1.00  0.00     0.117 C 
HETATM    2  C   UNL     1      19.013  50.759  47.813  1.00  0.00     0.041 C 
HETATM    3  C   UNL     1      19.095  52.254  48.074  1.00  0.00     0.003 C 
HETATM    4  C   UNL     1      18.510  52.433  49.465  1.00  0.00     0.003 C 
HETATM    5  C   UNL     1      18.631  51.075  50.160  1.00  0.00     0.041 C 
ENDROOT
BRANCH   1   6
HETATM    6  N   UNL     1      18.816  48.772  49.346  1.00  0.00    -0.325 N 
HETATM    7  C   UNL     1      18.816  47.845  48.341  1.00  0.00     0.317 C 
HETATM    8  N   UNL     1      18.261  46.665  48.751  1.00  0.00    -0.339 N 
HETATM    9  O   UNL     1      19.276  48.048  47.226  1.00  0.00    -0.247 OA
HETATM   10  H   UNL     1      17.476  46.778  49.376  1.00  0.00     0.164 HD
HETATM   11  H   UNL     1      18.942  48.364  50.262  1.00  0.00     0.165 HD
BRANCH   8  12
HETATM   12  C   UNL     1      18.177  45.570  47.809  1.00  0.00     0.162 C 
BRANCH  12  13
HETATM   13  C   UNL     1      19.498  44.871  47.597  1.00  0.00    -0.039 A 
HETATM   14  C   UNL     1      20.515  44.894  48.564  1.00  0.00     0.027 A 
HETATM   15  C   UNL     1      21.731  44.253  48.323  1.00  0.00     0.011 A 
HETATM   16  C   UNL     1      21.963  43.604  47.113  1.00  0.00     0.019 A 
HETATM   17 BR   UNL     1      23.075  44.265  49.652  1.00  0.00    -0.051 Br
HETATM   18  C   UNL     1      20.972  43.600  46.133  1.00  0.00     0.002 A 
HETATM   19  C   UNL     1      19.749  44.231  46.373  1.00  0.00     0.009 A 
ENDBRANCH  12  13
ENDBRANCH   8  12
ENDBRANCH   1   6
BRANCH   1  20
HETATM   20  C   UNL     1      20.895  50.119  49.453  1.00  0.00     0.264 C 
HETATM   21  N   UNL     1      21.621  49.212  48.704  1.00  0.00    -0.265 N 
HETATM   22  H   UNL     1      21.155  48.429  48.227  1.00  0.00     0.190 HD
HETATM   23  O   UNL     1      21.433  50.827  50.306  1.00  0.00    -0.269 OA
BRANCH  21  24
HETATM   24  N   UNL     1      22.980  49.052  49.000  1.00  0.00    -0.262 N 
HETATM   25  C   UNL     1      23.928  49.627  48.179  1.00  0.00     0.286 C 
HETATM   26  O   UNL     1      23.627  50.265  47.172  1.00  0.00    -0.264 OA
HETATM   27  H   UNL     1      23.206  48.514  49.831  1.00  0.00     0.190 HD
BRANCH  25  28
HETATM   28  C   UNL     1      25.304  49.427  48.581  1.00  0.00     0.102 A 
HETATM   29  N   UNL     1      25.655  48.392  49.423  1.00  0.00    -0.361 N 
HETATM   30  H   UNL     1      24.989  47.730  49.802  1.00  0.00     0.165 HD
HETATM   31  C   UNL     1      27.003  48.403  49.655  1.00  0.00     0.088 A 
HETATM   32  C   UNL     1      27.542  49.458  48.955  1.00  0.00     0.019 A 
HETATM   33  C   UNL     1      26.475  50.103  48.280  1.00  0.00     0.036 A 
ENDBRANCH  25  28
ENDBRANCH  21  24
ENDBRANCH   1  20
TORSDOF 6
ENDMDL
MODEL 9
REMARK VINA RESULT:      -7.9      3.266      6.779
REMARK  6 active torsions:
REMARK  status: ('A' for Active; 'I' for Inactive)
REMARK    1  A    between atoms: C_6  and  C_7 
REMARK    2  A    between atoms: C_7  and  N_8 
REMARK       I    between atoms: N_8  and  C_9 
REMARK       I    between atoms: C_9  and  N_10 
REMARK    3  A    between atoms: N_10  and  C_11 
REMARK    4  A    between atoms: C_11  and  C_12 
REMARK       I    between atoms: C_12  and  N_13 
REMARK    5  A    between atoms: N_13  and  N_14 
REMARK       I    between atoms: N_14  and  C_15 
REMARK    6  A    between atoms: C_15  and  C_16 
ROOT
HETATM    1  C   UNL     1      25.317  42.717  50.453  1.00  0.00     0.117 C 
HETATM    2  C   UNL     1      23.787  42.864  50.499  1.00  0.00     0.041 C 
HETATM    3  C   UNL     1      23.484  43.851  49.382  1.00  0.00     0.003 C 
HETATM    4  C   UNL     1      24.616  44.864  49.449  1.00  0.00     0.003 C 
HETATM    5  C   UNL     1      25.773  44.168  50.169  1.00  0.00     0.041 C 
ENDROOT
BRANCH   1   6
HETATM    6  N   UNL     1      25.904  42.288  51.733  1.00  0.00    -0.325 N 
HETATM    7  C   UNL     1      27.243  42.366  51.992  1.00  0.00     0.317 C 
HETATM    8  N   UNL     1      27.535  41.908  53.247  1.00  0.00    -0.339 N 
HETATM    9  O   UNL     1      28.067  42.811  51.205  1.00  0.00    -0.247 OA
HETATM   10  H   UNL     1      26.980  41.115  53.532  1.00  0.00     0.164 HD
HETATM   11  H   UNL     1      25.331  42.444  52.551  1.00  0.00     0.165 HD
BRANCH   8  12
HETATM   12  C   UNL     1      28.914  41.916  53.688  1.00  0.00     0.162 C 
BRANCH  12  13
HETATM   13  C   UNL     1      29.268  43.142  54.494  1.00  0.00    -0.039 A 
HETATM   14  C   UNL     1      28.518  44.326  54.415  1.00  0.00     0.027 A 
HETATM   15  C   UNL     1      28.890  45.446  55.161  1.00  0.00     0.011 A 
HETATM   16  C   UNL     1      30.021  45.415  55.973  1.00  0.00     0.019 A 
HETATM   17 BR   UNL     1      27.848  47.021  55.068  1.00  0.00    -0.051 Br
HETATM   18  C   UNL     1      30.790  44.254  56.037  1.00  0.00     0.002 A 
HETATM   19  C   UNL     1      30.417  43.127  55.301  1.00  0.00     0.009 A 
ENDBRANCH  12  13
ENDBRANCH   8  12
ENDBRANCH   1   6
BRANCH   1  20
HETATM   20  C   UNL     1      25.790  41.759  49.313  1.00  0.00     0.264 C 
HETATM   21  N   UNL     1      25.349  40.454  49.423  1.00  0.00    -0.265 N 
HETATM   22  H   UNL     1      24.990  40.092  50.317  1.00  0.00     0.190 HD
HETATM   23  O   UNL     1      26.539  42.111  48.399  1.00  0.00    -0.269 OA
BRANCH  21  24
HETATM   24  N   UNL     1      25.846  39.511  48.515  1.00  0.00    -0.262 N 
HETATM   25  C   UNL     1      26.963  38.771  48.845  1.00  0.00     0.286 C 
HETATM   26  O   UNL     1      27.562  38.920  49.908  1.00  0.00    -0.264 OA
HETATM   27  H   UNL     1      25.342  39.410  47.640  1.00  0.00     0.190 HD
BRANCH  25  28
HETATM   28  C   UNL     1      27.385  37.805  47.853  1.00  0.00     0.102 A 
HETATM   29  N   UNL     1      28.590  37.943  47.195  1.00  0.00    -0.361 N 
HETATM   30  H   UNL     1      29.232  38.709  47.360  1.00  0.00     0.165 HD
HETATM   31  C   UNL     1      28.772  36.912  46.314  1.00  0.00     0.088 A 
HETATM   32  C   UNL     1      27.673  36.089  46.397  1.00  0.00     0.019 A 
HETATM   33  C   UNL     1      26.800  36.649  47.363  1.00  0.00     0.036 A 
ENDBRANCH  25  28
ENDBRANCH  21  24
ENDBRANCH   1  20
TORSDOF 6
ENDMDL
MODEL 10
REMARK VINA RESULT:      -7.7      2.689      3.963
REMARK  6 active torsions:
REMARK  status: ('A' for Active; 'I' for Inactive)
REMARK    1  A    between atoms: C_6  and  C_7 
REMARK    2  A    between atoms: C_7  and  N_8 
REMARK       I    between atoms: N_8  and  C_9 
REMARK       I    between atoms: C_9  and  N_10 
REMARK    3  A    between atoms: N_10  and  C_11 
REMARK    4  A    between atoms: C_11  and  C_12 
REMARK       I    between atoms: C_12  and  N_13 
REMARK    5  A    between atoms: N_13  and  N_14 
REMARK       I    between atoms: N_14  and  C_15 
REMARK    6  A    between atoms: C_15  and  C_16 
ROOT
HETATM    1  C   UNL     1      22.695  45.424  48.792  1.00  0.00     0.117 C 
HETATM    2  C   UNL     1      23.554  44.917  47.622  1.00  0.00     0.041 C 
HETATM    3  C   UNL     1      22.545  44.665  46.513  1.00  0.00     0.003 C 
HETATM    4  C   UNL     1      21.333  44.084  47.224  1.00  0.00     0.003 C 
HETATM    5  C   UNL     1      21.441  44.524  48.686  1.00  0.00     0.041 C 
ENDROOT
BRANCH   1   6
HETATM    6  N   UNL     1      23.313  45.208  50.111  1.00  0.00    -0.325 N 
HETATM    7  C   UNL     1      24.600  45.572  50.390  1.00  0.00     0.317 C 
HETATM    8  N   UNL     1      24.935  45.267  51.680  1.00  0.00    -0.339 N 
HETATM    9  O   UNL     1      25.343  46.121  49.589  1.00  0.00    -0.247 OA
HETATM   10  H   UNL     1      24.541  44.398  52.009  1.00  0.00     0.164 HD
HETATM   11  H   UNL     1      22.693  45.299  50.904  1.00  0.00     0.165 HD
BRANCH   8  12
HETATM   12  C   UNL     1      26.269  45.582  52.146  1.00  0.00     0.162 C 
BRANCH  12  13
HETATM   13  C   UNL     1      27.056  44.360  52.551  1.00  0.00    -0.039 A 
HETATM   14  C   UNL     1      28.120  44.429  53.462  1.00  0.00     0.027 A 
HETATM   15  C   UNL     1      28.838  43.279  53.796  1.00  0.00     0.011 A 
HETATM   16  C   UNL     1      28.526  42.053  53.212  1.00  0.00     0.019 A 
HETATM   17 BR   UNL     1      30.246  43.385  55.053  1.00  0.00    -0.051 Br
HETATM   18  C   UNL     1      27.490  41.978  52.283  1.00  0.00     0.002 A 
HETATM   19  C   UNL     1      26.762  43.123  51.954  1.00  0.00     0.009 A 
ENDBRANCH  12  13
ENDBRANCH   8  12
ENDBRANCH   1   6
BRANCH   1  20
HETATM   20  C   UNL     1      22.306  46.930  48.637  1.00  0.00     0.264 C 
HETATM   21  N   UNL     1      21.092  47.282  49.195  1.00  0.00    -0.265 N 
HETATM   22  H   UNL     1      20.391  46.565  49.430  1.00  0.00     0.190 HD
HETATM   23  O   UNL     1      22.996  47.749  48.027  1.00  0.00    -0.269 OA
BRANCH  21  24
HETATM   24  N   UNL     1      20.616  48.580  48.975  1.00  0.00    -0.262 N 
HETATM   25  C   UNL     1      19.540  49.043  49.702  1.00  0.00     0.286 C 
HETATM   26  O   UNL     1      18.957  48.349  50.533  1.00  0.00    -0.264 OA
HETATM   27  H   UNL     1      21.106  49.134  48.279  1.00  0.00     0.190 HD
BRANCH  25  28
HETATM   28  C   UNL     1      19.138  50.405  49.421  1.00  0.00     0.102 A 
HETATM   29  N   UNL     1      19.835  51.180  48.516  1.00  0.00    -0.361 N 
HETATM   30  H   UNL     1      20.649  50.851  48.010  1.00  0.00     0.165 HD
HETATM   31  C   UNL     1      19.268  52.421  48.415  1.00  0.00     0.088 A 
HETATM   32  C   UNL     1      18.186  52.459  49.264  1.00  0.00     0.019 A 
HETATM   33  C   UNL     1      18.103  51.194  49.898  1.00  0.00     0.036 A 
ENDBRANCH  25  28
ENDBRANCH  21  24
ENDBRANCH   1  20
TORSDOF 6
ENDMDL
