MODEL 1
REMARK VINA RESULT:     -10.2      0.000      0.000
REMARK  7 active torsions:
REMARK  status: ('A' for Active; 'I' for Inactive)
REMARK    1  A    between atoms: N_7  and  C_8 
REMARK    2  A    between atoms: C_8  and  C_9 
REMARK       I    between atoms: C_9  and  N_10 
REMARK    3  A    between atoms: N_10  and  C_11 
REMARK    4  A    between atoms: C_11  and  C_12 
REMARK    5  A    between atoms: C_12  and  C_13 
REMARK    6  A    between atoms: C_12  and  C_23 
REMARK    7  A    between atoms: C_26  and  O_27 
ROOT
HETATM    1  C   UNL     1      24.165  43.888  49.857  1.00  0.00     0.136 C 
ENDROOT
BRANCH   1   2
HETATM    2  N   UNL     1      23.823  44.693  48.687  1.00  0.00    -0.359 N 
HETATM    3  C   UNL     1      22.471  44.874  48.425  1.00  0.00     0.236 C 
HETATM    4  O   UNL     1      21.604  44.204  48.986  1.00  0.00    -0.272 OA
HETATM    5  H   UNL     1      24.454  45.450  48.425  1.00  0.00     0.162 HD
BRANCH   3   6
HETATM    6  C   UNL     1      22.099  46.095  47.596  1.00  0.00     0.239 C 
BRANCH   6   7
HETATM    7  N   UNL     1      21.543  47.201  48.336  1.00  0.00    -0.259 N 
HETATM    8  C   UNL     1      22.248  47.938  49.238  1.00  0.00     0.326 C 
HETATM    9  N   UNL     1      21.476  49.012  49.621  1.00  0.00    -0.324 N 
HETATM   10  O   UNL     1      23.382  47.746  49.637  1.00  0.00    -0.247 OA
HETATM   11  C   UNL     1      20.301  49.158  48.787  1.00  0.00     0.119 C 
HETATM   12  H   UNL     1      21.889  49.740  50.191  1.00  0.00     0.165 HD
HETATM   13  C   UNL     1      19.013  49.434  49.583  1.00  0.00     0.019 C 
HETATM   14  C   UNL     1      20.335  47.784  48.080  1.00  0.00     0.257 C 
HETATM   15  C   UNL     1      20.542  50.229  47.703  1.00  0.00     0.041 C 
HETATM   16  C   UNL     1      18.785  48.443  50.729  1.00  0.00     0.013 C 
HETATM   17  C   UNL     1      19.002  50.873  50.135  1.00  0.00     0.007 C 
HETATM   18  C   UNL     1      19.233  51.913  49.041  1.00  0.00     0.001 C 
HETATM   19  C   UNL     1      20.517  51.646  48.268  1.00  0.00     0.003 C 
HETATM   20  O   UNL     1      19.477  47.332  47.333  1.00  0.00    -0.270 OA
ENDBRANCH   6   7
ENDBRANCH   3   6
ENDBRANCH   1   2
BRANCH   1  21
HETATM   21  C   UNL     1      25.542  44.148  50.503  1.00  0.00     0.071 C 
BRANCH  21  22
HETATM   22  C   UNL     1      26.192  42.850  50.957  1.00  0.00    -0.020 A 
HETATM   23  C   UNL     1      27.456  42.702  51.626  1.00  0.00    -0.001 A 
HETATM   24  C   UNL     1      27.662  41.337  51.844  1.00  0.00     0.042 A 
HETATM   25  C   UNL     1      28.448  43.601  52.072  1.00  0.00     0.014 A 
HETATM   26  C   UNL     1      28.801  40.829  52.481  1.00  0.00     0.030 A 
HETATM   27  N   UNL     1      26.576  40.675  51.330  1.00  0.00    -0.365 N 
HETATM   28  C   UNL     1      29.764  41.743  52.915  1.00  0.00     0.002 A 
HETATM   29  C   UNL     1      29.592  43.110  52.715  1.00  0.00     0.001 A 
HETATM   30  H   UNL     1      26.454  39.672  51.349  1.00  0.00     0.165 HD
HETATM   31  C   UNL     1      25.688  41.568  50.796  1.00  0.00     0.097 A 
ENDBRANCH  21  22
BRANCH  21  32
HETATM   32  C   UNL     1      25.569  45.031  51.746  1.00  0.00    -0.048 A 
HETATM   33  C   UNL     1      26.061  46.343  51.640  1.00  0.00     0.011 A 
HETATM   34  C   UNL     1      26.144  47.171  52.763  1.00  0.00     0.037 A 
HETATM   35  C   UNL     1      25.740  46.713  54.016  1.00  0.00     0.068 A 
HETATM   36  C   UNL     1      25.246  45.415  54.135  1.00  0.00     0.037 A 
HETATM   37  C   UNL     1      25.165  44.581  53.012  1.00  0.00     0.011 A 
BRANCH  35  38
HETATM   38  O   UNL     1      25.883  47.619  55.030  1.00  0.00    -0.356 OA
HETATM   39  C   UNL     1      27.180  48.167  55.222  1.00  0.00     0.210 C 
ENDBRANCH  35  38
ENDBRANCH  21  32
ENDBRANCH   1  21
TORSDOF 7
ENDMDL
MODEL 2
REMARK VINA RESULT:      -9.6      2.277      8.667
REMARK  7 active torsions:
REMARK  status: ('A' for Active; 'I' for Inactive)
REMARK    1  A    between atoms: N_7  and  C_8 
REMARK    2  A    between atoms: C_8  and  C_9 
REMARK       I    between atoms: C_9  and  N_10 
REMARK    3  A    between atoms: N_10  and  C_11 
REMARK    4  A    between atoms: C_11  and  C_12 
REMARK    5  A    between atoms: C_12  and  C_13 
REMARK    6  A    between atoms: C_12  and  C_23 
REMARK    7  A    between atoms: C_26  and  O_27 
ROOT
HETATM    1  C   UNL     1      21.752  46.144  48.514  1.00  0.00     0.136 C 
ENDROOT
BRANCH   1   2
HETATM    2  N   UNL     1      22.712  45.205  49.090  1.00  0.00    -0.359 N 
HETATM    3  C   UNL     1      23.298  44.297  48.219  1.00  0.00     0.236 C 
HETATM    4  O   UNL     1      22.867  44.115  47.080  1.00  0.00    -0.272 OA
HETATM    5  H   UNL     1      23.271  45.518  49.883  1.00  0.00     0.162 HD
BRANCH   3   6
HETATM    6  C   UNL     1      24.636  43.712  48.648  1.00  0.00     0.239 C 
BRANCH   6   7
HETATM    7  N   UNL     1      25.028  43.994  50.008  1.00  0.00    -0.259 N 
HETATM    8  C   UNL     1      24.414  43.457  51.098  1.00  0.00     0.326 C 
HETATM    9  N   UNL     1      25.144  43.791  52.217  1.00  0.00    -0.324 N 
HETATM   10  O   UNL     1      23.415  42.761  51.127  1.00  0.00    -0.247 OA
HETATM   11  C   UNL     1      26.426  44.371  51.873  1.00  0.00     0.119 C 
HETATM   12  H   UNL     1      24.907  43.370  53.107  1.00  0.00     0.165 HD
HETATM   13  C   UNL     1      26.775  45.623  52.698  1.00  0.00     0.019 C 
HETATM   14  C   UNL     1      26.172  44.643  50.373  1.00  0.00     0.257 C 
HETATM   15  C   UNL     1      27.538  43.305  51.957  1.00  0.00     0.041 C 
HETATM   16  C   UNL     1      25.656  46.669  52.714  1.00  0.00     0.013 C 
HETATM   17  C   UNL     1      27.149  45.245  54.144  1.00  0.00     0.007 C 
HETATM   18  C   UNL     1      28.258  44.196  54.199  1.00  0.00     0.001 C 
HETATM   19  C   UNL     1      27.900  42.952  53.396  1.00  0.00     0.003 C 
HETATM   20  O   UNL     1      26.915  45.247  49.610  1.00  0.00    -0.270 OA
ENDBRANCH   6   7
ENDBRANCH   3   6
ENDBRANCH   1   2
BRANCH   1  21
HETATM   21  C   UNL     1      21.851  47.613  48.977  1.00  0.00     0.071 C 
BRANCH  21  22
HETATM   22  C   UNL     1      20.864  48.495  48.229  1.00  0.00    -0.020 A 
HETATM   23  C   UNL     1      20.293  49.735  48.681  1.00  0.00    -0.001 A 
HETATM   24  C   UNL     1      19.432  50.195  47.682  1.00  0.00     0.042 A 
HETATM   25  C   UNL     1      20.430  50.516  49.848  1.00  0.00     0.014 A 
HETATM   26  C   UNL     1      18.707  51.388  47.788  1.00  0.00     0.030 A 
HETATM   27  N   UNL     1      19.469  49.278  46.661  1.00  0.00    -0.365 N 
HETATM   28  C   UNL     1      18.865  52.142  48.953  1.00  0.00     0.002 A 
HETATM   29  C   UNL     1      19.715  51.714  49.970  1.00  0.00     0.001 A 
HETATM   30  H   UNL     1      18.940  49.355  45.803  1.00  0.00     0.165 HD
HETATM   31  C   UNL     1      20.320  48.256  46.975  1.00  0.00     0.097 A 
ENDBRANCH  21  22
BRANCH  21  32
HETATM   32  C   UNL     1      23.192  48.312  48.784  1.00  0.00    -0.048 A 
HETATM   33  C   UNL     1      24.311  47.849  49.497  1.00  0.00     0.011 A 
HETATM   34  C   UNL     1      25.549  48.487  49.383  1.00  0.00     0.037 A 
HETATM   35  C   UNL     1      25.702  49.600  48.557  1.00  0.00     0.068 A 
HETATM   36  C   UNL     1      24.602  50.067  47.841  1.00  0.00     0.037 A 
HETATM   37  C   UNL     1      23.358  49.432  47.955  1.00  0.00     0.011 A 
BRANCH  35  38
HETATM   38  O   UNL     1      26.961  50.135  48.545  1.00  0.00    -0.356 OA
HETATM   39  C   UNL     1      27.985  49.381  49.181  1.00  0.00     0.210 C 
ENDBRANCH  35  38
ENDBRANCH  21  32
ENDBRANCH   1  21
TORSDOF 7
ENDMDL
MODEL 3
REMARK VINA RESULT:      -9.3      2.453      4.916
REMARK  7 active torsions:
REMARK  status: ('A' for Active; 'I' for Inactive)
REMARK    1  A    between atoms: N_7  and  C_8 
REMARK    2  A    between atoms: C_8  and  C_9 
REMARK       I    between atoms: C_9  and  N_10 
REMARK    3  A    between atoms: N_10  and  C_11 
REMARK    4  A    between atoms: C_11  and  C_12 
REMARK    5  A    between atoms: C_12  and  C_13 
REMARK    6  A    between atoms: C_12  and  C_23 
REMARK    7  A    between atoms: C_26  and  O_27 
ROOT
HETATM    1  C   UNL     1      24.185  45.095  50.302  1.00  0.00     0.136 C 
ENDROOT
BRANCH   1   2
HETATM    2  N   UNL     1      22.933  45.239  49.564  1.00  0.00    -0.359 N 
HETATM    3  C   UNL     1      22.909  44.740  48.268  1.00  0.00     0.236 C 
HETATM    4  O   UNL     1      23.939  44.418  47.676  1.00  0.00    -0.272 OA
HETATM    5  H   UNL     1      22.060  45.211  50.090  1.00  0.00     0.162 HD
BRANCH   3   6
HETATM    6  C   UNL     1      21.541  44.389  47.702  1.00  0.00     0.239 C 
BRANCH   6   7
HETATM    7  N   UNL     1      20.603  45.482  47.622  1.00  0.00    -0.259 N 
HETATM    8  C   UNL     1      19.305  45.395  48.024  1.00  0.00     0.326 C 
HETATM    9  N   UNL     1      18.749  46.654  47.977  1.00  0.00    -0.324 N 
HETATM   10  O   UNL     1      18.705  44.407  48.408  1.00  0.00    -0.247 OA
HETATM   11  C   UNL     1      19.750  47.679  47.766  1.00  0.00     0.119 C 
HETATM   12  H   UNL     1      17.825  46.803  48.363  1.00  0.00     0.165 HD
HETATM   13  C   UNL     1      19.345  48.727  46.714  1.00  0.00     0.019 C 
HETATM   14  C   UNL     1      20.934  46.778  47.347  1.00  0.00     0.257 C 
HETATM   15  C   UNL     1      20.136  48.337  49.107  1.00  0.00     0.041 C 
HETATM   16  C   UNL     1      18.867  48.110  45.396  1.00  0.00     0.013 C 
HETATM   17  C   UNL     1      18.258  49.671  47.266  1.00  0.00     0.007 C 
HETATM   18  C   UNL     1      18.669  50.316  48.588  1.00  0.00     0.001 C 
HETATM   19  C   UNL     1      19.052  49.273  49.630  1.00  0.00     0.003 C 
HETATM   20  O   UNL     1      22.023  47.156  46.937  1.00  0.00    -0.270 OA
ENDBRANCH   6   7
ENDBRANCH   3   6
ENDBRANCH   1   2
BRANCH   1  21
HETATM   21  C   UNL     1      24.677  46.329  51.088  1.00  0.00     0.071 C 
BRANCH  21  22
HETATM   22  C   UNL     1      25.410  47.304  50.181  1.00  0.00    -0.020 A 
HETATM   23  C   UNL     1      24.839  48.402  49.447  1.00  0.00    -0.001 A 
HETATM   24  C   UNL     1      25.873  49.021  48.740  1.00  0.00     0.042 A 
HETATM   25  C   UNL     1      23.538  48.932  49.318  1.00  0.00     0.014 A 
HETATM   26  C   UNL     1      25.674  50.136  47.917  1.00  0.00     0.030 A 
HETATM   27  N   UNL     1      27.027  48.335  49.023  1.00  0.00    -0.365 N 
HETATM   28  C   UNL     1      24.376  50.642  47.812  1.00  0.00     0.002 A 
HETATM   29  C   UNL     1      23.322  50.050  48.502  1.00  0.00     0.001 A 
HETATM   30  H   UNL     1      27.937  48.564  48.648  1.00  0.00     0.165 HD
HETATM   31  C   UNL     1      26.765  47.305  49.883  1.00  0.00     0.097 A 
ENDBRANCH  21  22
BRANCH  21  32
HETATM   32  C   UNL     1      25.655  46.078  52.230  1.00  0.00    -0.048 A 
HETATM   33  C   UNL     1      26.328  44.847  52.293  1.00  0.00     0.011 A 
HETATM   34  C   UNL     1      27.200  44.558  53.347  1.00  0.00     0.037 A 
HETATM   35  C   UNL     1      27.421  45.488  54.362  1.00  0.00     0.068 A 
HETATM   36  C   UNL     1      26.763  46.716  54.310  1.00  0.00     0.037 A 
HETATM   37  C   UNL     1      25.886  47.007  53.256  1.00  0.00     0.011 A 
BRANCH  35  38
HETATM   38  O   UNL     1      28.287  45.076  55.336  1.00  0.00    -0.356 OA
HETATM   39  C   UNL     1      28.841  46.084  56.172  1.00  0.00     0.210 C 
ENDBRANCH  35  38
ENDBRANCH  21  32
ENDBRANCH   1  21
TORSDOF 7
ENDMDL
MODEL 4
REMARK VINA RESULT:      -9.2      2.762      9.632
REMARK  7 active torsions:
REMARK  status: ('A' for Active; 'I' for Inactive)
REMARK    1  A    between atoms: N_7  and  C_8 
REMARK    2  A    between atoms: C_8  and  C_9 
REMARK       I    between atoms: C_9  and  N_10 
REMARK    3  A    between atoms: N_10  and  C_11 
REMARK    4  A    between atoms: C_11  and  C_12 
REMARK    5  A    between atoms: C_12  and  C_13 
REMARK    6  A    between atoms: C_12  and  C_23 
REMARK    7  A    between atoms: C_26  and  O_27 
ROOT
HETATM    1  C   UNL     1      21.321  44.874  48.503  1.00  0.00     0.136 C 
ENDROOT
BRANCH   1   2
HETATM    2  N   UNL     1      22.295  45.113  49.564  1.00  0.00    -0.359 N 
HETATM    3  C   UNL     1      23.635  44.967  49.229  1.00  0.00     0.236 C 
HETATM    4  O   UNL     1      23.989  44.430  48.179  1.00  0.00    -0.272 OA
HETATM    5  H   UNL     1      22.066  45.803  50.279  1.00  0.00     0.162 HD
BRANCH   3   6
HETATM    6  C   UNL     1      24.637  45.708  50.102  1.00  0.00     0.239 C 
BRANCH   6   7
HETATM    7  N   UNL     1      25.711  44.905  50.633  1.00  0.00    -0.259 N 
HETATM    8  C   UNL     1      27.004  45.005  50.222  1.00  0.00     0.326 C 
HETATM    9  N   UNL     1      27.786  44.231  51.050  1.00  0.00    -0.324 N 
HETATM   10  O   UNL     1      27.449  45.680  49.311  1.00  0.00    -0.247 OA
HETATM   11  C   UNL     1      27.053  43.771  52.211  1.00  0.00     0.119 C 
HETATM   12  H   UNL     1      28.795  44.286  50.973  1.00  0.00     0.165 HD
HETATM   13  C   UNL     1      27.281  42.283  52.532  1.00  0.00     0.019 C 
HETATM   14  C   UNL     1      25.621  44.113  51.742  1.00  0.00     0.257 C 
HETATM   15  C   UNL     1      27.356  44.670  53.428  1.00  0.00     0.041 C 
HETATM   16  C   UNL     1      27.078  41.365  51.322  1.00  0.00     0.013 C 
HETATM   17  C   UNL     1      28.685  42.055  53.124  1.00  0.00     0.007 C 
HETATM   18  C   UNL     1      28.956  42.948  54.332  1.00  0.00     0.001 C 
HETATM   19  C   UNL     1      28.746  44.421  54.004  1.00  0.00     0.003 C 
HETATM   20  O   UNL     1      24.580  43.818  52.316  1.00  0.00    -0.270 OA
ENDBRANCH   6   7
ENDBRANCH   3   6
ENDBRANCH   1   2
BRANCH   1  21
HETATM   21  C   UNL     1      20.925  46.087  47.634  1.00  0.00     0.071 C 
BRANCH  21  22
HETATM   22  C   UNL     1      20.721  47.330  48.484  1.00  0.00    -0.020 A 
HETATM   23  C   UNL     1      21.529  48.520  48.487  1.00  0.00    -0.001 A 
HETATM   24  C   UNL     1      20.984  49.399  49.427  1.00  0.00     0.042 A 
HETATM   25  C   UNL     1      22.674  48.938  47.776  1.00  0.00     0.014 A 
HETATM   26  C   UNL     1      21.521  50.665  49.689  1.00  0.00     0.030 A 
HETATM   27  N   UNL     1      19.893  48.778  49.979  1.00  0.00    -0.365 N 
HETATM   28  C   UNL     1      22.652  51.053  48.967  1.00  0.00     0.002 A 
HETATM   29  C   UNL     1      23.222  50.203  48.023  1.00  0.00     0.001 A 
HETATM   30  H   UNL     1      19.302  49.184  50.692  1.00  0.00     0.165 HD
HETATM   31  C   UNL     1      19.723  47.540  49.425  1.00  0.00     0.097 A 
ENDBRANCH  21  22
BRANCH  21  32
HETATM   32  C   UNL     1      19.635  45.971  46.830  1.00  0.00    -0.048 A 
HETATM   33  C   UNL     1      19.334  46.960  45.878  1.00  0.00     0.011 A 
HETATM   34  C   UNL     1      18.142  46.916  45.150  1.00  0.00     0.037 A 
HETATM   35  C   UNL     1      17.222  45.888  45.353  1.00  0.00     0.068 A 
HETATM   36  C   UNL     1      17.510  44.898  46.291  1.00  0.00     0.037 A 
HETATM   37  C   UNL     1      18.702  44.941  47.025  1.00  0.00     0.011 A 
BRANCH  35  38
HETATM   38  O   UNL     1      16.094  45.970  44.585  1.00  0.00    -0.356 OA
HETATM   39  C   UNL     1      15.772  44.835  43.792  1.00  0.00     0.210 C 
ENDBRANCH  35  38
ENDBRANCH  21  32
ENDBRANCH   1  21
TORSDOF 7
ENDMDL
MODEL 5
REMARK VINA RESULT:      -9.2      2.296      4.423
REMARK  7 active torsions:
REMARK  status: ('A' for Active; 'I' for Inactive)
REMARK    1  A    between atoms: N_7  and  C_8 
REMARK    2  A    between atoms: C_8  and  C_9 
REMARK       I    between atoms: C_9  and  N_10 
REMARK    3  A    between atoms: N_10  and  C_11 
REMARK    4  A    between atoms: C_11  and  C_12 
REMARK    5  A    between atoms: C_12  and  C_13 
REMARK    6  A    between atoms: C_12  and  C_23 
REMARK    7  A    between atoms: C_26  and  O_27 
ROOT
HETATM    1  C   UNL     1      24.959  46.657  50.710  1.00  0.00     0.136 C 
ENDROOT
BRANCH   1   2
HETATM    2  N   UNL     1      23.847  47.404  50.127  1.00  0.00    -0.359 N 
HETATM    3  C   UNL     1      24.174  48.499  49.338  1.00  0.00     0.236 C 
HETATM    4  O   UNL     1      25.310  48.973  49.321  1.00  0.00    -0.272 OA
HETATM    5  H   UNL     1      23.000  46.892  49.885  1.00  0.00     0.162 HD
BRANCH   3   6
HETATM    6  C   UNL     1      23.131  48.937  48.321  1.00  0.00     0.239 C 
BRANCH   6   7
HETATM    7  N   UNL     1      21.956  49.569  48.870  1.00  0.00    -0.259 N 
HETATM    8  C   UNL     1      21.997  50.631  49.721  1.00  0.00     0.326 C 
HETATM    9  N   UNL     1      20.713  51.091  49.906  1.00  0.00    -0.324 N 
HETATM   10  O   UNL     1      22.978  51.148  50.225  1.00  0.00    -0.247 OA
HETATM   11  C   UNL     1      19.783  50.486  48.975  1.00  0.00     0.119 C 
HETATM   12  H   UNL     1      20.564  51.958  50.408  1.00  0.00     0.165 HD
HETATM   13  C   UNL     1      18.470  50.023  49.632  1.00  0.00     0.019 C 
HETATM   14  C   UNL     1      20.676  49.338  48.454  1.00  0.00     0.257 C 
HETATM   15  C   UNL     1      19.522  51.432  47.785  1.00  0.00     0.041 C 
HETATM   16  C   UNL     1      18.687  49.155  50.875  1.00  0.00     0.013 C 
HETATM   17  C   UNL     1      17.579  51.228  49.994  1.00  0.00     0.007 C 
HETATM   18  C   UNL     1      17.329  52.142  48.796  1.00  0.00     0.001 C 
HETATM   19  C   UNL     1      18.631  52.612  48.162  1.00  0.00     0.003 C 
HETATM   20  O   UNL     1      20.330  48.431  47.709  1.00  0.00    -0.270 OA
ENDBRANCH   6   7
ENDBRANCH   3   6
ENDBRANCH   1   2
BRANCH   1  21
HETATM   21  C   UNL     1      24.623  45.290  51.344  1.00  0.00     0.071 C 
BRANCH  21  22
HETATM   22  C   UNL     1      25.727  44.832  52.284  1.00  0.00    -0.020 A 
HETATM   23  C   UNL     1      26.472  45.646  53.206  1.00  0.00    -0.001 A 
HETATM   24  C   UNL     1      27.390  44.817  53.856  1.00  0.00     0.042 A 
HETATM   25  C   UNL     1      26.452  47.013  53.555  1.00  0.00     0.014 A 
HETATM   26  C   UNL     1      28.281  45.281  54.831  1.00  0.00     0.030 A 
HETATM   27  N   UNL     1      27.219  43.551  53.355  1.00  0.00    -0.365 N 
HETATM   28  C   UNL     1      28.236  46.638  55.159  1.00  0.00     0.002 A 
HETATM   29  C   UNL     1      27.335  47.494  54.531  1.00  0.00     0.001 A 
HETATM   30  H   UNL     1      27.752  42.743  53.646  1.00  0.00     0.165 HD
HETATM   31  C   UNL     1      26.229  43.545  52.413  1.00  0.00     0.097 A 
ENDBRANCH  21  22
BRANCH  21  32
HETATM   32  C   UNL     1      24.435  44.113  50.393  1.00  0.00    -0.048 A 
HETATM   33  C   UNL     1      23.217  43.411  50.409  1.00  0.00     0.011 A 
HETATM   34  C   UNL     1      23.018  42.300  49.585  1.00  0.00     0.037 A 
HETATM   35  C   UNL     1      24.025  41.862  48.727  1.00  0.00     0.068 A 
HETATM   36  C   UNL     1      25.237  42.551  48.697  1.00  0.00     0.037 A 
HETATM   37  C   UNL     1      25.441  43.663  49.524  1.00  0.00     0.011 A 
BRANCH  35  38
HETATM   38  O   UNL     1      23.705  40.758  47.985  1.00  0.00    -0.356 OA
HETATM   39  C   UNL     1      22.460  40.785  47.299  1.00  0.00     0.210 C 
ENDBRANCH  35  38
ENDBRANCH  21  32
ENDBRANCH   1  21
TORSDOF 7
ENDMDL
MODEL 6
REMARK VINA RESULT:      -9.2     11.609     14.627
REMARK  7 active torsions:
REMARK  status: ('A' for Active; 'I' for Inactive)
REMARK    1  A    between atoms: N_7  and  C_8 
REMARK    2  A    between atoms: C_8  and  C_9 
REMARK       I    between atoms: C_9  and  N_10 
REMARK    3  A    between atoms: N_10  and  C_11 
REMARK    4  A    between atoms: C_11  and  C_12 
REMARK    5  A    between atoms: C_12  and  C_13 
REMARK    6  A    between atoms: C_12  and  C_23 
REMARK    7  A    between atoms: C_26  and  O_27 
ROOT
HETATM    1  C   UNL     1      27.663  47.876  40.991  1.00  0.00     0.136 C 
ENDROOT
BRANCH   1   2
HETATM    2  N   UNL     1      29.114  47.958  40.843  1.00  0.00    -0.359 N 
HETATM    3  C   UNL     1      29.737  46.906  40.185  1.00  0.00     0.236 C 
HETATM    4  O   UNL     1      29.154  45.847  39.952  1.00  0.00    -0.272 OA
HETATM    5  H   UNL     1      29.535  48.882  40.747  1.00  0.00     0.162 HD
BRANCH   3   6
HETATM    6  C   UNL     1      31.089  47.206  39.555  1.00  0.00     0.239 C 
BRANCH   6   7
HETATM    7  N   UNL     1      31.790  48.343  40.102  1.00  0.00    -0.259 N 
HETATM    8  C   UNL     1      31.529  49.632  39.751  1.00  0.00     0.326 C 
HETATM    9  N   UNL     1      32.245  50.463  40.582  1.00  0.00    -0.324 N 
HETATM   10  O   UNL     1      30.771  50.032  38.886  1.00  0.00    -0.247 OA
HETATM   11  C   UNL     1      32.831  49.742  41.693  1.00  0.00     0.119 C 
HETATM   12  H   UNL     1      32.076  51.461  40.551  1.00  0.00     0.165 HD
HETATM   13  C   UNL     1      34.297  50.124  41.968  1.00  0.00     0.019 C 
HETATM   14  C   UNL     1      32.632  48.299  41.176  1.00  0.00     0.257 C 
HETATM   15  C   UNL     1      31.956  49.894  42.954  1.00  0.00     0.041 C 
HETATM   16  C   UNL     1      35.181  50.073  40.718  1.00  0.00     0.013 C 
HETATM   17  C   UNL     1      34.392  51.521  42.612  1.00  0.00     0.007 C 
HETATM   18  C   UNL     1      33.525  51.642  43.863  1.00  0.00     0.001 C 
HETATM   19  C   UNL     1      32.073  51.281  43.581  1.00  0.00     0.003 C 
HETATM   20  O   UNL     1      33.064  47.278  41.693  1.00  0.00    -0.270 OA
ENDBRANCH   6   7
ENDBRANCH   3   6
ENDBRANCH   1   2
BRANCH   1  21
HETATM   21  C   UNL     1      26.840  49.067  40.456  1.00  0.00     0.071 C 
BRANCH  21  22
HETATM   22  C   UNL     1      26.289  48.779  39.069  1.00  0.00    -0.020 A 
HETATM   23  C   UNL     1      24.928  48.925  38.629  1.00  0.00    -0.001 A 
HETATM   24  C   UNL     1      24.872  48.539  37.288  1.00  0.00     0.042 A 
HETATM   25  C   UNL     1      23.733  49.355  39.245  1.00  0.00     0.014 A 
HETATM   26  C   UNL     1      23.692  48.561  36.535  1.00  0.00     0.030 A 
HETATM   27  N   UNL     1      26.141  48.168  36.919  1.00  0.00    -0.365 N 
HETATM   28  C   UNL     1      22.525  48.994  37.170  1.00  0.00     0.002 A 
HETATM   29  C   UNL     1      22.543  49.386  38.505  1.00  0.00     0.001 A 
HETATM   30  H   UNL     1      26.398  47.843  35.997  1.00  0.00     0.165 HD
HETATM   31  C   UNL     1      26.999  48.306  37.974  1.00  0.00     0.097 A 
ENDBRANCH  21  22
BRANCH  21  32
HETATM   32  C   UNL     1      27.568  50.397  40.297  1.00  0.00    -0.048 A 
HETATM   33  C   UNL     1      28.140  51.002  41.429  1.00  0.00     0.011 A 
HETATM   34  C   UNL     1      28.778  52.241  41.336  1.00  0.00     0.037 A 
HETATM   35  C   UNL     1      28.863  52.908  40.114  1.00  0.00     0.068 A 
HETATM   36  C   UNL     1      28.304  52.318  38.982  1.00  0.00     0.037 A 
HETATM   37  C   UNL     1      27.660  51.077  39.073  1.00  0.00     0.011 A 
BRANCH  35  38
HETATM   38  O   UNL     1      29.504  54.115  40.164  1.00  0.00    -0.356 OA
HETATM   39  C   UNL     1      30.829  54.118  40.676  1.00  0.00     0.210 C 
ENDBRANCH  35  38
ENDBRANCH  21  32
ENDBRANCH   1  21
TORSDOF 7
ENDMDL
MODEL 7
REMARK VINA RESULT:      -9.1      3.660      8.359
REMARK  7 active torsions:
REMARK  status: ('A' for Active; 'I' for Inactive)
REMARK    1  A    between atoms: N_7  and  C_8 
REMARK    2  A    between atoms: C_8  and  C_9 
REMARK       I    between atoms: C_9  and  N_10 
REMARK    3  A    between atoms: N_10  and  C_11 
REMARK    4  A    between atoms: C_11  and  C_12 
REMARK    5  A    between atoms: C_12  and  C_13 
REMARK    6  A    between atoms: C_12  and  C_23 
REMARK    7  A    between atoms: C_26  and  O_27 
ROOT
HETATM    1  C   UNL     1      25.053  43.207  51.469  1.00  0.00     0.136 C 
ENDROOT
BRANCH   1   2
HETATM    2  N   UNL     1      25.030  41.982  50.673  1.00  0.00    -0.359 N 
HETATM    3  C   UNL     1      24.369  42.041  49.454  1.00  0.00     0.236 C 
HETATM    4  O   UNL     1      23.632  42.983  49.157  1.00  0.00    -0.272 OA
HETATM    5  H   UNL     1      25.827  41.351  50.741  1.00  0.00     0.162 HD
BRANCH   3   6
HETATM    6  C   UNL     1      24.780  41.014  48.410  1.00  0.00     0.239 C 
BRANCH   6   7
HETATM    7  N   UNL     1      26.134  40.529  48.516  1.00  0.00    -0.259 N 
HETATM    8  C   UNL     1      27.227  41.340  48.549  1.00  0.00     0.326 C 
HETATM    9  N   UNL     1      28.333  40.570  48.832  1.00  0.00    -0.324 N 
HETATM   10  O   UNL     1      27.266  42.548  48.401  1.00  0.00    -0.247 OA
HETATM   11  C   UNL     1      27.968  39.230  49.242  1.00  0.00     0.119 C 
HETATM   12  H   UNL     1      29.217  41.025  49.022  1.00  0.00     0.165 HD
HETATM   13  C   UNL     1      28.816  38.132  48.576  1.00  0.00     0.019 C 
HETATM   14  C   UNL     1      26.483  39.242  48.811  1.00  0.00     0.257 C 
HETATM   15  C   UNL     1      27.990  39.114  50.780  1.00  0.00     0.041 C 
HETATM   16  C   UNL     1      28.893  38.266  47.052  1.00  0.00     0.013 C 
HETATM   17  C   UNL     1      30.240  38.100  49.165  1.00  0.00     0.007 C 
HETATM   18  C   UNL     1      30.234  37.975  50.686  1.00  0.00     0.001 C 
HETATM   19  C   UNL     1      29.408  39.075  51.341  1.00  0.00     0.003 C 
HETATM   20  O   UNL     1      25.716  38.289  48.827  1.00  0.00    -0.270 OA
ENDBRANCH   6   7
ENDBRANCH   3   6
ENDBRANCH   1   2
BRANCH   1  21
HETATM   21  C   UNL     1      26.237  44.169  51.233  1.00  0.00     0.071 C 
BRANCH  21  22
HETATM   22  C   UNL     1      26.958  44.487  52.533  1.00  0.00    -0.020 A 
HETATM   23  C   UNL     1      28.188  43.910  53.005  1.00  0.00    -0.001 A 
HETATM   24  C   UNL     1      28.476  44.484  54.245  1.00  0.00     0.042 A 
HETATM   25  C   UNL     1      29.090  42.954  52.492  1.00  0.00     0.014 A 
HETATM   26  C   UNL     1      29.612  44.154  54.994  1.00  0.00     0.030 A 
HETATM   27  N   UNL     1      27.468  45.372  54.526  1.00  0.00    -0.365 N 
HETATM   28  C   UNL     1      30.489  43.207  54.460  1.00  0.00     0.002 A 
HETATM   29  C   UNL     1      30.233  42.614  53.226  1.00  0.00     0.001 A 
HETATM   30  H   UNL     1      27.416  45.934  55.364  1.00  0.00     0.165 HD
HETATM   31  C   UNL     1      26.552  45.384  53.511  1.00  0.00     0.097 A 
ENDBRANCH  21  22
BRANCH  21  32
HETATM   32  C   UNL     1      25.909  45.538  50.646  1.00  0.00    -0.048 A 
HETATM   33  C   UNL     1      26.940  46.296  50.066  1.00  0.00     0.011 A 
HETATM   34  C   UNL     1      26.693  47.573  49.556  1.00  0.00     0.037 A 
HETATM   35  C   UNL     1      25.414  48.126  49.611  1.00  0.00     0.068 A 
HETATM   36  C   UNL     1      24.381  47.384  50.180  1.00  0.00     0.037 A 
HETATM   37  C   UNL     1      24.626  46.104  50.696  1.00  0.00     0.011 A 
BRANCH  35  38
HETATM   38  O   UNL     1      25.312  49.385  49.088  1.00  0.00    -0.356 OA
HETATM   39  C   UNL     1      24.132  49.681  48.352  1.00  0.00     0.210 C 
ENDBRANCH  35  38
ENDBRANCH  21  32
ENDBRANCH   1  21
TORSDOF 7
ENDMDL
MODEL 8
REMARK VINA RESULT:      -9.0      2.585      5.068
REMARK  7 active torsions:
REMARK  status: ('A' for Active; 'I' for Inactive)
REMARK    1  A    between atoms: N_7  and  C_8 
REMARK    2  A    between atoms: C_8  and  C_9 
REMARK       I    between atoms: C_9  and  N_10 
REMARK    3  A    between atoms: N_10  and  C_11 
REMARK    4  A    between atoms: C_11  and  C_12 
REMARK    5  A    between atoms: C_12  and  C_13 
REMARK    6  A    between atoms: C_12  and  C_23 
REMARK    7  A    between atoms: C_26  and  O_27 
ROOT
HETATM    1  C   UNL     1      24.133  45.002  50.325  1.00  0.00     0.136 C 
ENDROOT
BRANCH   1   2
HETATM    2  N   UNL     1      22.902  45.187  49.563  1.00  0.00    -0.359 N 
HETATM    3  C   UNL     1      22.878  44.667  48.275  1.00  0.00     0.236 C 
HETATM    4  O   UNL     1      23.902  44.289  47.707  1.00  0.00    -0.272 OA
HETATM    5  H   UNL     1      22.020  45.207  50.074  1.00  0.00     0.162 HD
BRANCH   3   6
HETATM    6  C   UNL     1      21.505  44.365  47.692  1.00  0.00     0.239 C 
BRANCH   6   7
HETATM    7  N   UNL     1      20.591  45.480  47.649  1.00  0.00    -0.259 N 
HETATM    8  C   UNL     1      20.859  46.654  47.014  1.00  0.00     0.326 C 
HETATM    9  N   UNL     1      19.716  47.422  47.017  1.00  0.00    -0.324 N 
HETATM   10  O   UNL     1      21.899  46.996  46.483  1.00  0.00    -0.247 OA
HETATM   11  C   UNL     1      18.559  46.668  47.454  1.00  0.00     0.119 C 
HETATM   12  H   UNL     1      19.692  48.277  46.476  1.00  0.00     0.165 HD
HETATM   13  C   UNL     1      17.675  47.426  48.461  1.00  0.00     0.019 C 
HETATM   14  C   UNL     1      19.283  45.434  48.039  1.00  0.00     0.257 C 
HETATM   15  C   UNL     1      17.746  46.179  46.237  1.00  0.00     0.041 C 
HETATM   16  C   UNL     1      18.462  48.006  49.640  1.00  0.00     0.013 C 
HETATM   17  C   UNL     1      16.884  48.550  47.764  1.00  0.00     0.007 C 
HETATM   18  C   UNL     1      16.081  48.038  46.571  1.00  0.00     0.001 C 
HETATM   19  C   UNL     1      16.963  47.305  45.569  1.00  0.00     0.003 C 
HETATM   20  O   UNL     1      18.763  44.515  48.658  1.00  0.00    -0.270 OA
ENDBRANCH   6   7
ENDBRANCH   3   6
ENDBRANCH   1   2
BRANCH   1  21
HETATM   21  C   UNL     1      24.635  46.210  51.144  1.00  0.00     0.071 C 
BRANCH  21  22
HETATM   22  C   UNL     1      25.238  47.275  50.243  1.00  0.00    -0.020 A 
HETATM   23  C   UNL     1      24.534  48.301  49.522  1.00  0.00    -0.001 A 
HETATM   24  C   UNL     1      25.480  49.048  48.816  1.00  0.00     0.042 A 
HETATM   25  C   UNL     1      23.177  48.670  49.404  1.00  0.00     0.014 A 
HETATM   26  C   UNL     1      25.142  50.138  48.005  1.00  0.00     0.030 A 
HETATM   27  N   UNL     1      26.711  48.505  49.087  1.00  0.00    -0.365 N 
HETATM   28  C   UNL     1      23.791  50.482  47.910  1.00  0.00     0.002 A 
HETATM   29  C   UNL     1      22.821  49.760  48.600  1.00  0.00     0.001 A 
HETATM   30  H   UNL     1      27.584  48.847  48.710  1.00  0.00     0.165 HD
HETATM   31  C   UNL     1      26.581  47.444  49.939  1.00  0.00     0.097 A 
ENDBRANCH  21  22
BRANCH  21  32
HETATM   32  C   UNL     1      25.721  45.942  52.180  1.00  0.00    -0.048 A 
HETATM   33  C   UNL     1      26.493  44.772  52.072  1.00  0.00     0.011 A 
HETATM   34  C   UNL     1      27.469  44.466  53.024  1.00  0.00     0.037 A 
HETATM   35  C   UNL     1      27.700  45.316  54.105  1.00  0.00     0.068 A 
HETATM   36  C   UNL     1      26.944  46.481  54.223  1.00  0.00     0.037 A 
HETATM   37  C   UNL     1      25.962  46.790  53.272  1.00  0.00     0.011 A 
BRANCH  35  38
HETATM   38  O   UNL     1      28.673  44.893  54.967  1.00  0.00    -0.356 OA
HETATM   39  C   UNL     1      29.199  45.860  55.866  1.00  0.00     0.210 C 
ENDBRANCH  35  38
ENDBRANCH  21  32
ENDBRANCH   1  21
TORSDOF 7
ENDMDL
MODEL 9
REMARK VINA RESULT:      -8.9      2.429      3.342
REMARK  7 active torsions:
REMARK  status: ('A' for Active; 'I' for Inactive)
REMARK    1  A    between atoms: N_7  and  C_8 
REMARK    2  A    between atoms: C_8  and  C_9 
REMARK       I    between atoms: C_9  and  N_10 
REMARK    3  A    between atoms: N_10  and  C_11 
REMARK    4  A    between atoms: C_11  and  C_12 
REMARK    5  A    between atoms: C_12  and  C_13 
REMARK    6  A    between atoms: C_12  and  C_23 
REMARK    7  A    between atoms: C_26  and  O_27 
ROOT
HETATM    1  C   UNL     1      24.541  43.205  50.845  1.00  0.00     0.136 C 
ENDROOT
BRANCH   1   2
HETATM    2  N   UNL     1      23.631  43.771  49.852  1.00  0.00    -0.359 N 
HETATM    3  C   UNL     1      23.656  43.204  48.585  1.00  0.00     0.236 C 
HETATM    4  O   UNL     1      24.554  42.439  48.232  1.00  0.00    -0.272 OA
HETATM    5  H   UNL     1      22.741  44.146  50.177  1.00  0.00     0.162 HD
BRANCH   3   6
HETATM    6  C   UNL     1      22.404  43.381  47.738  1.00  0.00     0.239 C 
BRANCH   6   7
HETATM    7  N   UNL     1      21.750  44.661  47.860  1.00  0.00    -0.259 N 
HETATM    8  C   UNL     1      21.039  45.046  48.955  1.00  0.00     0.326 C 
HETATM    9  N   UNL     1      20.706  46.374  48.814  1.00  0.00    -0.324 N 
HETATM   10  O   UNL     1      20.757  44.380  49.935  1.00  0.00    -0.247 OA
HETATM   11  C   UNL     1      21.405  46.992  47.706  1.00  0.00     0.119 C 
HETATM   12  H   UNL     1      20.285  46.865  49.593  1.00  0.00     0.165 HD
HETATM   13  C   UNL     1      20.502  47.872  46.823  1.00  0.00     0.019 C 
HETATM   14  C   UNL     1      21.931  45.715  47.011  1.00  0.00     0.257 C 
HETATM   15  C   UNL     1      22.637  47.769  48.215  1.00  0.00     0.041 C 
HETATM   16  C   UNL     1      19.221  47.164  46.371  1.00  0.00     0.013 C 
HETATM   17  C   UNL     1      20.140  49.187  47.542  1.00  0.00     0.007 C 
HETATM   18  C   UNL     1      21.376  49.940  48.026  1.00  0.00     0.001 C 
HETATM   19  C   UNL     1      22.257  49.071  48.914  1.00  0.00     0.003 C 
HETATM   20  O   UNL     1      22.507  45.662  45.932  1.00  0.00    -0.270 OA
ENDBRANCH   6   7
ENDBRANCH   3   6
ENDBRANCH   1   2
BRANCH   1  21
HETATM   21  C   UNL     1      25.945  43.840  50.946  1.00  0.00     0.071 C 
BRANCH  21  22
HETATM   22  C   UNL     1      26.446  43.845  52.381  1.00  0.00    -0.020 A 
HETATM   23  C   UNL     1      27.781  43.561  52.834  1.00  0.00    -0.001 A 
HETATM   24  C   UNL     1      27.788  43.671  54.226  1.00  0.00     0.042 A 
HETATM   25  C   UNL     1      28.991  43.224  52.190  1.00  0.00     0.014 A 
HETATM   26  C   UNL     1      28.935  43.463  55.003  1.00  0.00     0.030 A 
HETATM   27  N   UNL     1      26.515  44.004  54.614  1.00  0.00    -0.365 N 
HETATM   28  C   UNL     1      30.118  43.134  54.338  1.00  0.00     0.002 A 
HETATM   29  C   UNL     1      30.148  43.016  52.951  1.00  0.00     0.001 A 
HETATM   30  H   UNL     1      26.227  44.150  55.572  1.00  0.00     0.165 HD
HETATM   31  C   UNL     1      25.701  44.111  53.521  1.00  0.00     0.097 A 
ENDBRANCH  21  22
BRANCH  21  32
HETATM   32  C   UNL     1      26.082  45.292  50.500  1.00  0.00    -0.048 A 
HETATM   33  C   UNL     1      27.187  45.663  49.715  1.00  0.00     0.011 A 
HETATM   34  C   UNL     1      27.375  46.990  49.322  1.00  0.00     0.037 A 
HETATM   35  C   UNL     1      26.467  47.979  49.699  1.00  0.00     0.068 A 
HETATM   36  C   UNL     1      25.364  47.624  50.474  1.00  0.00     0.037 A 
HETATM   37  C   UNL     1      25.175  46.295  50.873  1.00  0.00     0.011 A 
BRANCH  35  38
HETATM   38  O   UNL     1      26.774  49.236  49.257  1.00  0.00    -0.356 OA
HETATM   39  C   UNL     1      25.943  49.780  48.241  1.00  0.00     0.210 C 
ENDBRANCH  35  38
ENDBRANCH  21  32
ENDBRANCH   1  21
TORSDOF 7
ENDMDL
MODEL 10
REMARK VINA RESULT:      -8.9      1.970      2.649
REMARK  7 active torsions:
REMARK  status: ('A' for Active; 'I' for Inactive)
REMARK    1  A    between atoms: N_7  and  C_8 
REMARK    2  A    between atoms: C_8  and  C_9 
REMARK       I    between atoms: C_9  and  N_10 
REMARK    3  A    between atoms: N_10  and  C_11 
REMARK    4  A    between atoms: C_11  and  C_12 
REMARK    5  A    between atoms: C_12  and  C_13 
REMARK    6  A    between atoms: C_12  and  C_23 
REMARK    7  A    between atoms: C_26  and  O_27 
ROOT
HETATM    1  C   UNL     1      24.380  43.334  49.376  1.00  0.00     0.136 C 
ENDROOT
BRANCH   1   2
HETATM    2  N   UNL     1      24.115  44.235  48.257  1.00  0.00    -0.359 N 
HETATM    3  C   UNL     1      22.783  44.496  47.965  1.00  0.00     0.236 C 
HETATM    4  O   UNL     1      21.868  43.828  48.448  1.00  0.00    -0.272 OA
HETATM    5  H   UNL     1      24.787  44.979  48.070  1.00  0.00     0.162 HD
BRANCH   3   6
HETATM    6  C   UNL     1      22.494  45.787  47.215  1.00  0.00     0.239 C 
BRANCH   6   7
HETATM    7  N   UNL     1      21.937  46.855  48.009  1.00  0.00    -0.259 N 
HETATM    8  C   UNL     1      22.576  47.420  49.070  1.00  0.00     0.326 C 
HETATM    9  N   UNL     1      21.850  48.515  49.483  1.00  0.00    -0.324 N 
HETATM   10  O   UNL     1      23.629  47.080  49.576  1.00  0.00    -0.247 OA
HETATM   11  C   UNL     1      20.808  48.861  48.538  1.00  0.00     0.119 C 
HETATM   12  H   UNL     1      22.242  49.135  50.182  1.00  0.00     0.165 HD
HETATM   13  C   UNL     1      19.454  49.169  49.202  1.00  0.00     0.019 C 
HETATM   14  C   UNL     1      20.823  47.574  47.682  1.00  0.00     0.257 C 
HETATM   15  C   UNL     1      21.272  50.015  47.626  1.00  0.00     0.041 C 
HETATM   16  C   UNL     1      19.001  48.087  50.186  1.00  0.00     0.013 C 
HETATM   17  C   UNL     1      19.488  50.535  49.915  1.00  0.00     0.007 C 
HETATM   18  C   UNL     1      19.941  51.661  48.989  1.00  0.00     0.001 C 
HETATM   19  C   UNL     1      21.289  51.358  48.349  1.00  0.00     0.003 C 
HETATM   20  O   UNL     1      20.035  47.288  46.790  1.00  0.00    -0.270 OA
ENDBRANCH   6   7
ENDBRANCH   3   6
ENDBRANCH   1   2
BRANCH   1  21
HETATM   21  C   UNL     1      25.861  43.045  49.702  1.00  0.00     0.071 C 
BRANCH  21  22
HETATM   22  C   UNL     1      26.151  41.553  49.673  1.00  0.00    -0.020 A 
HETATM   23  C   UNL     1      26.839  40.824  48.641  1.00  0.00    -0.001 A 
HETATM   24  C   UNL     1      26.869  39.480  49.021  1.00  0.00     0.042 A 
HETATM   25  C   UNL     1      27.446  41.180  47.418  1.00  0.00     0.014 A 
HETATM   26  C   UNL     1      27.471  38.481  48.247  1.00  0.00     0.030 A 
HETATM   27  N   UNL     1      26.226  39.385  50.230  1.00  0.00    -0.365 N 
HETATM   28  C   UNL     1      28.066  38.863  47.042  1.00  0.00     0.002 A 
HETATM   29  C   UNL     1      28.055  40.193  46.632  1.00  0.00     0.001 A 
HETATM   30  H   UNL     1      26.098  38.525  50.745  1.00  0.00     0.165 HD
HETATM   31  C   UNL     1      25.791  40.617  50.631  1.00  0.00     0.097 A 
ENDBRANCH  21  22
BRANCH  21  32
HETATM   32  C   UNL     1      26.371  43.495  51.067  1.00  0.00    -0.048 A 
HETATM   33  C   UNL     1      25.452  43.986  52.010  1.00  0.00     0.011 A 
HETATM   34  C   UNL     1      25.881  44.449  53.256  1.00  0.00     0.037 A 
HETATM   35  C   UNL     1      27.234  44.436  53.593  1.00  0.00     0.068 A 
HETATM   36  C   UNL     1      28.156  43.948  52.668  1.00  0.00     0.037 A 
HETATM   37  C   UNL     1      27.730  43.486  51.416  1.00  0.00     0.011 A 
BRANCH  35  38
HETATM   38  O   UNL     1      27.519  44.927  54.837  1.00  0.00    -0.356 OA
HETATM   39  C   UNL     1      28.090  46.226  54.899  1.00  0.00     0.210 C 
ENDBRANCH  35  38
ENDBRANCH  21  32
ENDBRANCH   1  21
TORSDOF 7
ENDMDL
