MODEL 1
REMARK VINA RESULT:      -8.6      0.000      0.000
REMARK  6 active torsions:
REMARK  status: ('A' for Active; 'I' for Inactive)
REMARK    1  A    between atoms: N_2  and  C_4 
REMARK    2  A    between atoms: C_4  and  C_5 
REMARK    3  A    between atoms: C_5  and  N_6 
REMARK    4  A    between atoms: C_5  and  C_21 
REMARK       I    between atoms: N_6  and  C_7 
REMARK       I    between atoms: C_7  and  N_8 
REMARK    5  A    between atoms: N_8  and  C_9 
REMARK    6  A    between atoms: C_12  and  C_13 
ROOT
HETATM    1  N   UNL     1      27.025  43.647  53.175  1.00  0.00    -0.333 N 
HETATM    2  C   UNL     1      25.958  43.951  53.970  1.00  0.00     0.322 C 
HETATM    3  N   UNL     1      25.035  44.820  53.486  1.00  0.00    -0.287 N 
HETATM    4  O   UNL     1      25.818  43.442  55.079  1.00  0.00    -0.247 OA
HETATM    5  H   UNL     1      27.216  44.356  52.470  1.00  0.00     0.165 HD
HETATM    6  H   UNL     1      24.291  45.089  54.116  1.00  0.00     0.172 HD
ENDROOT
BRANCH   1   7
HETATM    7  C   UNL     1      28.155  42.895  53.703  1.00  0.00     0.145 C 
BRANCH   7   8
HETATM    8  C   UNL     1      28.985  42.150  52.606  1.00  0.00     0.263 C 
BRANCH   8   9
HETATM    9  N   UNL     1      28.264  40.946  51.983  1.00  0.00    -0.076 N 
HETATM   10  C   UNL     1      29.154  39.752  51.784  1.00  0.00     0.269 C 
HETATM   11  H   UNL     1      27.520  40.668  52.639  1.00  0.00     0.279 HD
HETATM   12  C   UNL     1      27.581  41.333  50.702  1.00  0.00     0.269 C 
ENDBRANCH   8   9
ENDBRANCH   7   8
BRANCH   7  13
HETATM   13  C   UNL     1      29.069  43.745  54.577  1.00  0.00    -0.034 A 
HETATM   14  C   UNL     1      30.241  43.240  55.164  1.00  0.00     0.009 A 
HETATM   15  C   UNL     1      31.029  44.042  55.991  1.00  0.00     0.001 A 
HETATM   16  C   UNL     1      30.656  45.358  56.249  1.00  0.00     0.000 A 
HETATM   17  C   UNL     1      29.498  45.877  55.676  1.00  0.00     0.001 A 
HETATM   18  C   UNL     1      28.711  45.078  54.845  1.00  0.00     0.009 A 
ENDBRANCH   7  13
ENDBRANCH   1   7
BRANCH   3  19
HETATM   19  C   UNL     1      25.005  45.335  52.223  1.00  0.00     0.175 A 
HETATM   20  S   UNL     1      24.311  44.323  51.045  1.00  0.00    -0.061 SA
HETATM   21  C   UNL     1      24.617  45.531  49.862  1.00  0.00     0.086 A 
HETATM   22  C   UNL     1      25.244  46.616  50.449  1.00  0.00     0.078 A 
HETATM   23  N   UNL     1      25.457  46.497  51.819  1.00  0.00    -0.223 NA
BRANCH  22  24
HETATM   24  C   UNL     1      25.701  47.789  49.724  1.00  0.00     0.011 A 
HETATM   25  C   UNL     1      27.065  48.042  49.614  1.00  0.00     0.130 A 
HETATM   26  N   UNL     1      27.606  49.105  48.973  1.00  0.00    -0.272 NA
HETATM   27  C   UNL     1      26.735  49.963  48.397  1.00  0.00     0.116 A 
HETATM   28  C   UNL     1      25.359  49.804  48.444  1.00  0.00     0.020 A 
HETATM   29  C   UNL     1      24.835  48.701  49.120  1.00  0.00     0.017 A 
ENDBRANCH  22  24
ENDBRANCH   3  19
TORSDOF 6
ENDMDL
MODEL 2
REMARK VINA RESULT:      -8.5      2.729      6.531
REMARK  6 active torsions:
REMARK  status: ('A' for Active; 'I' for Inactive)
REMARK    1  A    between atoms: N_2  and  C_4 
REMARK    2  A    between atoms: C_4  and  C_5 
REMARK    3  A    between atoms: C_5  and  N_6 
REMARK    4  A    between atoms: C_5  and  C_21 
REMARK       I    between atoms: N_6  and  C_7 
REMARK       I    between atoms: C_7  and  N_8 
REMARK    5  A    between atoms: N_8  and  C_9 
REMARK    6  A    between atoms: C_12  and  C_13 
ROOT
HETATM    1  N   UNL     1      26.376  44.106  52.125  1.00  0.00    -0.333 N 
HETATM    2  C   UNL     1      25.219  44.584  52.667  1.00  0.00     0.322 C 
HETATM    3  N   UNL     1      25.308  45.321  53.804  1.00  0.00    -0.287 N 
HETATM    4  O   UNL     1      24.129  44.379  52.138  1.00  0.00    -0.247 OA
HETATM    5  H   UNL     1      27.136  44.034  52.799  1.00  0.00     0.165 HD
HETATM    6  H   UNL     1      24.437  45.604  54.230  1.00  0.00     0.172 HD
ENDROOT
BRANCH   1   7
HETATM    7  C   UNL     1      26.343  43.140  51.036  1.00  0.00     0.145 C 
BRANCH   7   8
HETATM    8  C   UNL     1      26.598  43.769  49.627  1.00  0.00     0.263 C 
BRANCH   8   9
HETATM    9  N   UNL     1      25.328  43.957  48.784  1.00  0.00    -0.076 N 
HETATM   10  C   UNL     1      24.636  45.268  49.029  1.00  0.00     0.269 C 
HETATM   11  H   UNL     1      25.617  43.943  47.796  1.00  0.00     0.279 HD
HETATM   12  C   UNL     1      24.385  42.803  48.971  1.00  0.00     0.269 C 
ENDBRANCH   8   9
ENDBRANCH   7   8
BRANCH   7  13
HETATM   13  C   UNL     1      27.279  41.960  51.269  1.00  0.00    -0.034 A 
HETATM   14  C   UNL     1      28.015  41.799  52.454  1.00  0.00     0.009 A 
HETATM   15  C   UNL     1      28.893  40.725  52.611  1.00  0.00     0.001 A 
HETATM   16  C   UNL     1      29.054  39.799  51.584  1.00  0.00     0.000 A 
HETATM   17  C   UNL     1      28.333  39.942  50.401  1.00  0.00     0.001 A 
HETATM   18  C   UNL     1      27.451  41.012  50.245  1.00  0.00     0.009 A 
ENDBRANCH   7  13
ENDBRANCH   1   7
BRANCH   3  19
HETATM   19  C   UNL     1      26.464  45.735  54.400  1.00  0.00     0.175 A 
HETATM   20  S   UNL     1      26.846  47.376  54.172  1.00  0.00    -0.061 SA
HETATM   21  C   UNL     1      28.271  47.148  55.106  1.00  0.00     0.086 A 
HETATM   22  C   UNL     1      28.361  45.828  55.511  1.00  0.00     0.078 A 
HETATM   23  N   UNL     1      27.305  45.019  55.105  1.00  0.00    -0.223 NA
BRANCH  22  24
HETATM   24  C   UNL     1      29.473  45.277  56.265  1.00  0.00     0.011 A 
HETATM   25  C   UNL     1      30.253  44.269  55.704  1.00  0.00     0.130 A 
HETATM   26  N   UNL     1      31.305  43.674  56.314  1.00  0.00    -0.272 NA
HETATM   27  C   UNL     1      31.607  44.118  57.554  1.00  0.00     0.116 A 
HETATM   28  C   UNL     1      30.899  45.118  58.204  1.00  0.00     0.020 A 
HETATM   29  C   UNL     1      29.815  45.703  57.549  1.00  0.00     0.017 A 
ENDBRANCH  22  24
ENDBRANCH   3  19
TORSDOF 6
ENDMDL
MODEL 3
REMARK VINA RESULT:      -8.1      4.108      6.359
REMARK  6 active torsions:
REMARK  status: ('A' for Active; 'I' for Inactive)
REMARK    1  A    between atoms: N_2  and  C_4 
REMARK    2  A    between atoms: C_4  and  C_5 
REMARK    3  A    between atoms: C_5  and  N_6 
REMARK    4  A    between atoms: C_5  and  C_21 
REMARK       I    between atoms: N_6  and  C_7 
REMARK       I    between atoms: C_7  and  N_8 
REMARK    5  A    between atoms: N_8  and  C_9 
REMARK    6  A    between atoms: C_12  and  C_13 
ROOT
HETATM    1  N   UNL     1      25.157  47.459  50.867  1.00  0.00    -0.333 N 
HETATM    2  C   UNL     1      25.735  48.136  49.833  1.00  0.00     0.322 C 
HETATM    3  N   UNL     1      24.919  48.660  48.884  1.00  0.00    -0.287 N 
HETATM    4  O   UNL     1      26.952  48.289  49.767  1.00  0.00    -0.247 OA
HETATM    5  H   UNL     1      24.228  47.104  50.647  1.00  0.00     0.165 HD
HETATM    6  H   UNL     1      25.368  49.093  48.089  1.00  0.00     0.172 HD
ENDROOT
BRANCH   1   7
HETATM    7  C   UNL     1      25.970  46.694  51.802  1.00  0.00     0.145 C 
BRANCH   7   8
HETATM    8  C   UNL     1      25.632  46.970  53.304  1.00  0.00     0.263 C 
BRANCH   8   9
HETATM    9  N   UNL     1      26.851  47.332  54.165  1.00  0.00    -0.076 N 
HETATM   10  C   UNL     1      27.604  46.135  54.674  1.00  0.00     0.269 C 
HETATM   11  H   UNL     1      27.496  47.866  53.565  1.00  0.00     0.279 HD
HETATM   12  C   UNL     1      26.460  48.246  55.292  1.00  0.00     0.269 C 
ENDBRANCH   8   9
ENDBRANCH   7   8
BRANCH   7  13
HETATM   13  C   UNL     1      25.941  45.197  51.517  1.00  0.00    -0.034 A 
HETATM   14  C   UNL     1      27.108  44.436  51.339  1.00  0.00     0.009 A 
HETATM   15  C   UNL     1      27.035  43.075  51.038  1.00  0.00     0.001 A 
HETATM   16  C   UNL     1      25.796  42.454  50.904  1.00  0.00     0.000 A 
HETATM   17  C   UNL     1      24.628  43.192  51.076  1.00  0.00     0.001 A 
HETATM   18  C   UNL     1      24.698  44.552  51.382  1.00  0.00     0.009 A 
ENDBRANCH   7  13
ENDBRANCH   1   7
BRANCH   3  19
HETATM   19  C   UNL     1      23.555  48.680  48.923  1.00  0.00     0.175 A 
HETATM   20  S   UNL     1      22.800  47.190  48.605  1.00  0.00    -0.061 SA
HETATM   21  C   UNL     1      21.272  47.948  48.807  1.00  0.00     0.086 A 
HETATM   22  C   UNL     1      21.447  49.292  49.087  1.00  0.00     0.078 A 
HETATM   23  N   UNL     1      22.774  49.705  49.161  1.00  0.00    -0.223 NA
BRANCH  22  24
HETATM   24  C   UNL     1      20.362  50.242  49.253  1.00  0.00     0.011 A 
HETATM   25  C   UNL     1      19.331  49.962  50.147  1.00  0.00     0.130 A 
HETATM   26  N   UNL     1      18.266  50.765  50.377  1.00  0.00    -0.272 NA
HETATM   27  C   UNL     1      18.230  51.924  49.684  1.00  0.00     0.116 A 
HETATM   28  C   UNL     1      19.204  52.303  48.773  1.00  0.00     0.020 A 
HETATM   29  C   UNL     1      20.284  51.447  48.553  1.00  0.00     0.017 A 
ENDBRANCH  22  24
ENDBRANCH   3  19
TORSDOF 6
ENDMDL
MODEL 4
REMARK VINA RESULT:      -8.1      2.675      6.363
REMARK  6 active torsions:
REMARK  status: ('A' for Active; 'I' for Inactive)
REMARK    1  A    between atoms: N_2  and  C_4 
REMARK    2  A    between atoms: C_4  and  C_5 
REMARK    3  A    between atoms: C_5  and  N_6 
REMARK    4  A    between atoms: C_5  and  C_21 
REMARK       I    between atoms: N_6  and  C_7 
REMARK       I    between atoms: C_7  and  N_8 
REMARK    5  A    between atoms: N_8  and  C_9 
REMARK    6  A    between atoms: C_12  and  C_13 
ROOT
HETATM    1  N   UNL     1      26.942  44.072  52.789  1.00  0.00    -0.333 N 
HETATM    2  C   UNL     1      25.609  43.785  52.745  1.00  0.00     0.322 C 
HETATM    3  N   UNL     1      25.172  42.958  51.761  1.00  0.00    -0.287 N 
HETATM    4  O   UNL     1      24.827  44.238  53.577  1.00  0.00    -0.247 OA
HETATM    5  H   UNL     1      27.412  43.942  51.895  1.00  0.00     0.165 HD
HETATM    6  H   UNL     1      24.172  42.816  51.700  1.00  0.00     0.172 HD
ENDROOT
BRANCH   1   7
HETATM    7  C   UNL     1      27.451  45.109  53.677  1.00  0.00     0.145 C 
BRANCH   7   8
HETATM    8  C   UNL     1      26.376  45.678  54.661  1.00  0.00     0.263 C 
BRANCH   8   9
HETATM    9  N   UNL     1      25.868  47.080  54.292  1.00  0.00    -0.076 N 
HETATM   10  C   UNL     1      26.076  47.431  52.846  1.00  0.00     0.269 C 
HETATM   11  H   UNL     1      24.854  47.088  54.467  1.00  0.00     0.279 HD
HETATM   12  C   UNL     1      26.466  48.122  55.194  1.00  0.00     0.269 C 
ENDBRANCH   8   9
ENDBRANCH   7   8
BRANCH   7  13
HETATM   13  C   UNL     1      28.693  44.669  54.443  1.00  0.00    -0.034 A 
HETATM   14  C   UNL     1      29.360  43.462  54.176  1.00  0.00     0.009 A 
HETATM   15  C   UNL     1      30.470  43.077  54.929  1.00  0.00     0.001 A 
HETATM   16  C   UNL     1      30.929  43.888  55.963  1.00  0.00     0.000 A 
HETATM   17  C   UNL     1      30.280  45.088  56.243  1.00  0.00     0.001 A 
HETATM   18  C   UNL     1      29.173  45.478  55.488  1.00  0.00     0.009 A 
ENDBRANCH   7  13
ENDBRANCH   1   7
BRANCH   3  19
HETATM   19  C   UNL     1      25.958  42.284  50.874  1.00  0.00     0.175 A 
HETATM   20  S   UNL     1      25.765  42.739  49.246  1.00  0.00    -0.061 SA
HETATM   21  C   UNL     1      26.947  41.572  48.805  1.00  0.00     0.086 A 
HETATM   22  C   UNL     1      27.393  40.906  49.933  1.00  0.00     0.078 A 
HETATM   23  N   UNL     1      26.820  41.331  51.128  1.00  0.00    -0.223 NA
BRANCH  22  24
HETATM   24  C   UNL     1      28.348  39.812  49.914  1.00  0.00     0.011 A 
HETATM   25  C   UNL     1      28.682  39.210  48.704  1.00  0.00     0.130 A 
HETATM   26  N   UNL     1      29.550  38.180  48.565  1.00  0.00    -0.272 NA
HETATM   27  C   UNL     1      30.129  37.729  49.699  1.00  0.00     0.116 A 
HETATM   28  C   UNL     1      29.870  38.257  50.955  1.00  0.00     0.020 A 
HETATM   29  C   UNL     1      28.964  39.313  51.062  1.00  0.00     0.017 A 
ENDBRANCH  22  24
ENDBRANCH   3  19
TORSDOF 6
ENDMDL
MODEL 5
REMARK VINA RESULT:      -8.1      2.232      7.150
REMARK  6 active torsions:
REMARK  status: ('A' for Active; 'I' for Inactive)
REMARK    1  A    between atoms: N_2  and  C_4 
REMARK    2  A    between atoms: C_4  and  C_5 
REMARK    3  A    between atoms: C_5  and  N_6 
REMARK    4  A    between atoms: C_5  and  C_21 
REMARK       I    between atoms: N_6  and  C_7 
REMARK       I    between atoms: C_7  and  N_8 
REMARK    5  A    between atoms: N_8  and  C_9 
REMARK    6  A    between atoms: C_12  and  C_13 
ROOT
HETATM    1  N   UNL     1      25.654  45.567  50.744  1.00  0.00    -0.333 N 
HETATM    2  C   UNL     1      25.536  44.871  49.577  1.00  0.00     0.322 C 
HETATM    3  N   UNL     1      26.330  43.784  49.404  1.00  0.00    -0.287 N 
HETATM    4  O   UNL     1      24.723  45.197  48.714  1.00  0.00    -0.247 OA
HETATM    5  H   UNL     1      26.552  45.433  51.204  1.00  0.00     0.165 HD
HETATM    6  H   UNL     1      26.281  43.326  48.504  1.00  0.00     0.172 HD
ENDROOT
BRANCH   1   7
HETATM    7  C   UNL     1      24.993  46.854  50.912  1.00  0.00     0.145 C 
BRANCH   7   8
HETATM    8  C   UNL     1      24.963  47.360  52.392  1.00  0.00     0.263 C 
BRANCH   8   9
HETATM    9  N   UNL     1      25.914  46.604  53.332  1.00  0.00    -0.076 N 
HETATM   10  C   UNL     1      25.275  45.426  54.011  1.00  0.00     0.269 C 
HETATM   11  H   UNL     1      26.685  46.243  52.753  1.00  0.00     0.279 HD
HETATM   12  C   UNL     1      26.532  47.538  54.334  1.00  0.00     0.269 C 
ENDBRANCH   8   9
ENDBRANCH   7   8
BRANCH   7  13
HETATM   13  C   UNL     1      25.560  47.930  49.994  1.00  0.00    -0.034 A 
HETATM   14  C   UNL     1      24.750  48.732  49.173  1.00  0.00     0.009 A 
HETATM   15  C   UNL     1      25.315  49.678  48.316  1.00  0.00     0.001 A 
HETATM   16  C   UNL     1      26.697  49.834  48.261  1.00  0.00     0.000 A 
HETATM   17  C   UNL     1      27.517  49.048  49.066  1.00  0.00     0.001 A 
HETATM   18  C   UNL     1      26.954  48.105  49.928  1.00  0.00     0.009 A 
ENDBRANCH   7  13
ENDBRANCH   1   7
BRANCH   3  19
HETATM   19  C   UNL     1      27.161  43.243  50.341  1.00  0.00     0.175 A 
HETATM   20  S   UNL     1      27.479  41.583  50.153  1.00  0.00    -0.061 SA
HETATM   21  C   UNL     1      28.473  41.640  51.554  1.00  0.00     0.086 A 
HETATM   22  C   UNL     1      28.477  42.921  52.075  1.00  0.00     0.078 A 
HETATM   23  N   UNL     1      27.721  43.846  51.361  1.00  0.00    -0.223 NA
BRANCH  22  24
HETATM   24  C   UNL     1      29.166  43.307  53.295  1.00  0.00     0.011 A 
HETATM   25  C   UNL     1      28.690  44.379  54.045  1.00  0.00     0.130 A 
HETATM   26  N   UNL     1      29.254  44.834  55.189  1.00  0.00    -0.272 NA
HETATM   27  C   UNL     1      30.351  44.173  55.619  1.00  0.00     0.116 A 
HETATM   28  C   UNL     1      30.906  43.092  54.951  1.00  0.00     0.020 A 
HETATM   29  C   UNL     1      30.304  42.655  53.770  1.00  0.00     0.017 A 
ENDBRANCH  22  24
ENDBRANCH   3  19
TORSDOF 6
ENDMDL
MODEL 6
REMARK VINA RESULT:      -8.0      3.398      6.530
REMARK  6 active torsions:
REMARK  status: ('A' for Active; 'I' for Inactive)
REMARK    1  A    between atoms: N_2  and  C_4 
REMARK    2  A    between atoms: C_4  and  C_5 
REMARK    3  A    between atoms: C_5  and  N_6 
REMARK    4  A    between atoms: C_5  and  C_21 
REMARK       I    between atoms: N_6  and  C_7 
REMARK       I    between atoms: C_7  and  N_8 
REMARK    5  A    between atoms: N_8  and  C_9 
REMARK    6  A    between atoms: C_12  and  C_13 
ROOT
HETATM    1  N   UNL     1      26.721  41.690  49.792  1.00  0.00    -0.333 N 
HETATM    2  C   UNL     1      25.380  41.756  50.036  1.00  0.00     0.322 C 
HETATM    3  N   UNL     1      24.960  42.538  51.062  1.00  0.00    -0.287 N 
HETATM    4  O   UNL     1      24.571  41.147  49.340  1.00  0.00    -0.247 OA
HETATM    5  H   UNL     1      27.290  41.931  50.602  1.00  0.00     0.165 HD
HETATM    6  H   UNL     1      23.972  42.516  51.274  1.00  0.00     0.172 HD
ENDROOT
BRANCH   1   7
HETATM    7  C   UNL     1      27.260  40.716  48.853  1.00  0.00     0.145 C 
BRANCH   7   8
HETATM    8  C   UNL     1      27.843  41.354  47.548  1.00  0.00     0.263 C 
BRANCH   8   9
HETATM    9  N   UNL     1      27.006  41.083  46.290  1.00  0.00    -0.076 N 
HETATM   10  C   UNL     1      26.043  39.939  46.444  1.00  0.00     0.269 C 
HETATM   11  H   UNL     1      26.448  41.930  46.111  1.00  0.00     0.279 HD
HETATM   12  C   UNL     1      27.889  40.891  45.089  1.00  0.00     0.269 C 
ENDBRANCH   8   9
ENDBRANCH   7   8
BRANCH   7  13
HETATM   13  C   UNL     1      28.282  39.786  49.493  1.00  0.00    -0.034 A 
HETATM   14  C   UNL     1      28.975  38.804  48.766  1.00  0.00     0.009 A 
HETATM   15  C   UNL     1      29.873  37.945  49.400  1.00  0.00     0.001 A 
HETATM   16  C   UNL     1      30.091  38.049  50.771  1.00  0.00     0.000 A 
HETATM   17  C   UNL     1      29.413  39.016  51.510  1.00  0.00     0.001 A 
HETATM   18  C   UNL     1      28.518  39.880  50.877  1.00  0.00     0.009 A 
ENDBRANCH   7  13
ENDBRANCH   1   7
BRANCH   3  19
HETATM   19  C   UNL     1      25.745  43.368  51.809  1.00  0.00     0.175 A 
HETATM   20  S   UNL     1      25.359  45.021  51.697  1.00  0.00    -0.061 SA
HETATM   21  C   UNL     1      26.644  45.369  52.784  1.00  0.00     0.086 A 
HETATM   22  C   UNL     1      27.287  44.197  53.141  1.00  0.00     0.078 A 
HETATM   23  N   UNL     1      26.754  43.042  52.579  1.00  0.00    -0.223 NA
BRANCH  22  24
HETATM   24  C   UNL     1      28.458  44.135  53.999  1.00  0.00     0.011 A 
HETATM   25  C   UNL     1      28.684  45.143  54.932  1.00  0.00     0.130 A 
HETATM   26  N   UNL     1      29.743  45.195  55.774  1.00  0.00    -0.272 NA
HETATM   27  C   UNL     1      30.625  44.175  55.690  1.00  0.00     0.116 A 
HETATM   28  C   UNL     1      30.494  43.120  54.800  1.00  0.00     0.020 A 
HETATM   29  C   UNL     1      29.396  43.102  53.940  1.00  0.00     0.017 A 
ENDBRANCH  22  24
ENDBRANCH   3  19
TORSDOF 6
ENDMDL
MODEL 7
REMARK VINA RESULT:      -7.9      4.627      7.191
REMARK  6 active torsions:
REMARK  status: ('A' for Active; 'I' for Inactive)
REMARK    1  A    between atoms: N_2  and  C_4 
REMARK    2  A    between atoms: C_4  and  C_5 
REMARK    3  A    between atoms: C_5  and  N_6 
REMARK    4  A    between atoms: C_5  and  C_21 
REMARK       I    between atoms: N_6  and  C_7 
REMARK       I    between atoms: C_7  and  N_8 
REMARK    5  A    between atoms: N_8  and  C_9 
REMARK    6  A    between atoms: C_12  and  C_13 
ROOT
HETATM    1  N   UNL     1      23.225  46.618  49.261  1.00  0.00    -0.333 N 
HETATM    2  C   UNL     1      22.486  45.472  49.221  1.00  0.00     0.322 C 
HETATM    3  N   UNL     1      21.192  45.565  48.823  1.00  0.00    -0.287 N 
HETATM    4  O   UNL     1      22.975  44.383  49.512  1.00  0.00    -0.247 OA
HETATM    5  H   UNL     1      22.657  47.459  49.343  1.00  0.00     0.165 HD
HETATM    6  H   UNL     1      20.641  44.718  48.870  1.00  0.00     0.172 HD
ENDROOT
BRANCH   1   7
HETATM    7  C   UNL     1      24.546  46.630  49.874  1.00  0.00     0.145 C 
BRANCH   7   8
HETATM    8  C   UNL     1      25.324  45.282  49.723  1.00  0.00     0.263 C 
BRANCH   8   9
HETATM    9  N   UNL     1      25.651  44.593  51.057  1.00  0.00    -0.076 N 
HETATM   10  C   UNL     1      25.048  45.281  52.250  1.00  0.00     0.269 C 
HETATM   11  H   UNL     1      25.249  43.646  51.013  1.00  0.00     0.279 HD
HETATM   12  C   UNL     1      27.134  44.422  51.222  1.00  0.00     0.269 C 
ENDBRANCH   8   9
ENDBRANCH   7   8
BRANCH   7  13
HETATM   13  C   UNL     1      25.404  47.796  49.397  1.00  0.00    -0.034 A 
HETATM   14  C   UNL     1      26.795  47.840  49.584  1.00  0.00     0.009 A 
HETATM   15  C   UNL     1      27.538  48.945  49.167  1.00  0.00     0.001 A 
HETATM   16  C   UNL     1      26.903  50.026  48.562  1.00  0.00     0.000 A 
HETATM   17  C   UNL     1      25.524  50.001  48.368  1.00  0.00     0.001 A 
HETATM   18  C   UNL     1      24.780  48.895  48.780  1.00  0.00     0.009 A 
ENDBRANCH   7  13
ENDBRANCH   1   7
BRANCH   3  19
HETATM   19  C   UNL     1      20.582  46.686  48.341  1.00  0.00     0.175 A 
HETATM   20  S   UNL     1      20.304  46.693  46.663  1.00  0.00    -0.061 SA
HETATM   21  C   UNL     1      19.599  48.253  46.810  1.00  0.00     0.086 A 
HETATM   22  C   UNL     1      19.642  48.665  48.130  1.00  0.00     0.078 A 
HETATM   23  N   UNL     1      20.205  47.747  49.012  1.00  0.00    -0.223 NA
BRANCH  22  24
HETATM   24  C   UNL     1      19.187  49.962  48.599  1.00  0.00     0.011 A 
HETATM   25  C   UNL     1      18.291  50.036  49.661  1.00  0.00     0.130 A 
HETATM   26  N   UNL     1      17.791  51.185  50.175  1.00  0.00    -0.272 NA
HETATM   27  C   UNL     1      18.220  52.332  49.603  1.00  0.00     0.116 A 
HETATM   28  C   UNL     1      19.112  52.372  48.542  1.00  0.00     0.020 A 
HETATM   29  C   UNL     1      19.600  51.169  48.032  1.00  0.00     0.017 A 
ENDBRANCH  22  24
ENDBRANCH   3  19
TORSDOF 6
ENDMDL
MODEL 8
REMARK VINA RESULT:      -7.9      4.299      8.773
REMARK  6 active torsions:
REMARK  status: ('A' for Active; 'I' for Inactive)
REMARK    1  A    between atoms: N_2  and  C_4 
REMARK    2  A    between atoms: C_4  and  C_5 
REMARK    3  A    between atoms: C_5  and  N_6 
REMARK    4  A    between atoms: C_5  and  C_21 
REMARK       I    between atoms: N_6  and  C_7 
REMARK       I    between atoms: C_7  and  N_8 
REMARK    5  A    between atoms: N_8  and  C_9 
REMARK    6  A    between atoms: C_12  and  C_13 
ROOT
HETATM    1  N   UNL     1      22.892  48.559  48.156  1.00  0.00    -0.333 N 
HETATM    2  C   UNL     1      23.581  49.686  47.816  1.00  0.00     0.322 C 
HETATM    3  N   UNL     1      24.796  49.883  48.389  1.00  0.00    -0.287 N 
HETATM    4  O   UNL     1      23.134  50.491  47.003  1.00  0.00    -0.247 OA
HETATM    5  H   UNL     1      23.175  48.169  49.053  1.00  0.00     0.165 HD
HETATM    6  H   UNL     1      25.258  50.758  48.182  1.00  0.00     0.172 HD
ENDROOT
BRANCH   1   7
HETATM    7  C   UNL     1      21.504  48.385  47.750  1.00  0.00     0.145 C 
BRANCH   7   8
HETATM    8  C   UNL     1      21.183  46.959  47.194  1.00  0.00     0.263 C 
BRANCH   8   9
HETATM    9  N   UNL     1      22.305  45.934  47.413  1.00  0.00    -0.076 N 
HETATM   10  C   UNL     1      22.504  45.004  46.249  1.00  0.00     0.269 C 
HETATM   11  H   UNL     1      23.179  46.464  47.534  1.00  0.00     0.279 HD
HETATM   12  C   UNL     1      22.089  45.167  48.688  1.00  0.00     0.269 C 
ENDBRANCH   8   9
ENDBRANCH   7   8
BRANCH   7  13
HETATM   13  C   UNL     1      20.519  48.760  48.851  1.00  0.00    -0.034 A 
HETATM   14  C   UNL     1      19.554  47.866  49.342  1.00  0.00     0.009 A 
HETATM   15  C   UNL     1      18.644  48.264  50.323  1.00  0.00     0.001 A 
HETATM   16  C   UNL     1      18.680  49.562  50.824  1.00  0.00     0.000 A 
HETATM   17  C   UNL     1      19.629  50.463  50.349  1.00  0.00     0.001 A 
HETATM   18  C   UNL     1      20.543  50.066  49.373  1.00  0.00     0.009 A 
ENDBRANCH   7  13
ENDBRANCH   1   7
BRANCH   3  19
HETATM   19  C   UNL     1      25.456  48.997  49.189  1.00  0.00     0.175 A 
HETATM   20  S   UNL     1      27.117  48.828  48.864  1.00  0.00    -0.061 SA
HETATM   21  C   UNL     1      27.223  47.672  50.131  1.00  0.00     0.086 A 
HETATM   22  C   UNL     1      25.976  47.485  50.701  1.00  0.00     0.078 A 
HETATM   23  N   UNL     1      24.960  48.264  50.155  1.00  0.00    -0.223 NA
BRANCH  22  24
HETATM   24  C   UNL     1      25.694  46.531  51.759  1.00  0.00     0.011 A 
HETATM   25  C   UNL     1      24.927  45.403  51.483  1.00  0.00     0.130 A 
HETATM   26  N   UNL     1      24.592  44.453  52.388  1.00  0.00    -0.272 NA
HETATM   27  C   UNL     1      25.061  44.631  53.643  1.00  0.00     0.116 A 
HETATM   28  C   UNL     1      25.836  45.716  54.025  1.00  0.00     0.020 A 
HETATM   29  C   UNL     1      26.154  46.681  53.068  1.00  0.00     0.017 A 
ENDBRANCH  22  24
ENDBRANCH   3  19
TORSDOF 6
ENDMDL
MODEL 9
REMARK VINA RESULT:      -7.7      4.310      8.814
REMARK  6 active torsions:
REMARK  status: ('A' for Active; 'I' for Inactive)
REMARK    1  A    between atoms: N_2  and  C_4 
REMARK    2  A    between atoms: C_4  and  C_5 
REMARK    3  A    between atoms: C_5  and  N_6 
REMARK    4  A    between atoms: C_5  and  C_21 
REMARK       I    between atoms: N_6  and  C_7 
REMARK       I    between atoms: C_7  and  N_8 
REMARK    5  A    between atoms: N_8  and  C_9 
REMARK    6  A    between atoms: C_12  and  C_13 
ROOT
HETATM    1  N   UNL     1      21.584  46.141  48.792  1.00  0.00    -0.333 N 
HETATM    2  C   UNL     1      21.305  44.857  48.424  1.00  0.00     0.322 C 
HETATM    3  N   UNL     1      22.231  43.904  48.697  1.00  0.00    -0.287 N 
HETATM    4  O   UNL     1      20.242  44.562  47.882  1.00  0.00    -0.247 OA
HETATM    5  H   UNL     1      22.581  46.321  48.899  1.00  0.00     0.165 HD
HETATM    6  H   UNL     1      22.038  42.973  48.351  1.00  0.00     0.172 HD
ENDROOT
BRANCH   1   7
HETATM    7  C   UNL     1      20.742  47.243  48.347  1.00  0.00     0.145 C 
BRANCH   7   8
HETATM    8  C   UNL     1      19.379  47.342  49.109  1.00  0.00     0.263 C 
BRANCH   8   9
HETATM    9  N   UNL     1      18.169  46.864  48.293  1.00  0.00    -0.076 N 
HETATM   10  C   UNL     1      18.218  47.277  46.849  1.00  0.00     0.269 C 
HETATM   11  H   UNL     1      18.175  45.835  48.318  1.00  0.00     0.279 HD
HETATM   12  C   UNL     1      16.882  47.299  48.937  1.00  0.00     0.269 C 
ENDBRANCH   8   9
ENDBRANCH   7   8
BRANCH   7  13
HETATM   13  C   UNL     1      21.465  48.583  48.375  1.00  0.00    -0.034 A 
HETATM   14  C   UNL     1      20.785  49.812  48.414  1.00  0.00     0.009 A 
HETATM   15  C   UNL     1      21.486  51.018  48.397  1.00  0.00     0.001 A 
HETATM   16  C   UNL     1      22.877  51.018  48.335  1.00  0.00     0.000 A 
HETATM   17  C   UNL     1      23.569  49.810  48.295  1.00  0.00     0.001 A 
HETATM   18  C   UNL     1      22.870  48.602  48.317  1.00  0.00     0.009 A 
ENDBRANCH   7  13
ENDBRANCH   1   7
BRANCH   3  19
HETATM   19  C   UNL     1      23.376  44.083  49.417  1.00  0.00     0.175 A 
HETATM   20  S   UNL     1      24.720  43.198  48.869  1.00  0.00    -0.061 SA
HETATM   21  C   UNL     1      25.654  43.873  50.144  1.00  0.00     0.086 A 
HETATM   22  C   UNL     1      24.865  44.714  50.909  1.00  0.00     0.078 A 
HETATM   23  N   UNL     1      23.549  44.837  50.475  1.00  0.00    -0.223 NA
BRANCH  22  24
HETATM   24  C   UNL     1      25.321  45.402  52.104  1.00  0.00     0.011 A 
HETATM   25  C   UNL     1      25.353  46.793  52.129  1.00  0.00     0.130 A 
HETATM   26  N   UNL     1      25.767  47.540  53.180  1.00  0.00    -0.272 NA
HETATM   27  C   UNL     1      26.163  46.859  54.278  1.00  0.00     0.116 A 
HETATM   28  C   UNL     1      26.168  45.475  54.362  1.00  0.00     0.020 A 
HETATM   29  C   UNL     1      25.743  44.736  53.256  1.00  0.00     0.017 A 
ENDBRANCH  22  24
ENDBRANCH   3  19
TORSDOF 6
ENDMDL
MODEL 10
REMARK VINA RESULT:      -7.7      2.691      3.614
REMARK  6 active torsions:
REMARK  status: ('A' for Active; 'I' for Inactive)
REMARK    1  A    between atoms: N_2  and  C_4 
REMARK    2  A    between atoms: C_4  and  C_5 
REMARK    3  A    between atoms: C_5  and  N_6 
REMARK    4  A    between atoms: C_5  and  C_21 
REMARK       I    between atoms: N_6  and  C_7 
REMARK       I    between atoms: C_7  and  N_8 
REMARK    5  A    between atoms: N_8  and  C_9 
REMARK    6  A    between atoms: C_12  and  C_13 
ROOT
HETATM    1  N   UNL     1      25.939  43.402  50.963  1.00  0.00    -0.333 N 
HETATM    2  C   UNL     1      25.418  42.197  50.591  1.00  0.00     0.322 C 
HETATM    3  N   UNL     1      24.378  42.199  49.719  1.00  0.00    -0.287 N 
HETATM    4  O   UNL     1      25.884  41.140  51.009  1.00  0.00    -0.247 OA
HETATM    5  H   UNL     1      25.287  44.175  50.847  1.00  0.00     0.165 HD
HETATM    6  H   UNL     1      23.958  41.303  49.513  1.00  0.00     0.172 HD
ENDROOT
BRANCH   1   7
HETATM    7  C   UNL     1      26.908  43.490  52.047  1.00  0.00     0.145 C 
BRANCH   7   8
HETATM    8  C   UNL     1      28.387  43.261  51.591  1.00  0.00     0.263 C 
BRANCH   8   9
HETATM    9  N   UNL     1      29.134  42.190  52.399  1.00  0.00    -0.076 N 
HETATM   10  C   UNL     1      28.243  41.403  53.319  1.00  0.00     0.269 C 
HETATM   11  H   UNL     1      29.536  41.527  51.722  1.00  0.00     0.279 HD
HETATM   12  C   UNL     1      30.290  42.792  53.147  1.00  0.00     0.269 C 
ENDBRANCH   8   9
ENDBRANCH   7   8
BRANCH   7  13
HETATM   13  C   UNL     1      26.789  44.788  52.837  1.00  0.00    -0.034 A 
HETATM   14  C   UNL     1      27.439  44.990  54.066  1.00  0.00     0.009 A 
HETATM   15  C   UNL     1      27.270  46.179  54.776  1.00  0.00     0.001 A 
HETATM   16  C   UNL     1      26.446  47.182  54.274  1.00  0.00     0.000 A 
HETATM   17  C   UNL     1      25.793  47.000  53.058  1.00  0.00     0.001 A 
HETATM   18  C   UNL     1      25.964  45.814  52.343  1.00  0.00     0.009 A 
ENDBRANCH   7  13
ENDBRANCH   1   7
BRANCH   3  19
HETATM   19  C   UNL     1      23.871  43.293  49.080  1.00  0.00     0.175 A 
HETATM   20  S   UNL     1      23.426  43.039  47.458  1.00  0.00    -0.061 SA
HETATM   21  C   UNL     1      22.947  44.687  47.358  1.00  0.00     0.086 A 
HETATM   22  C   UNL     1      23.178  45.317  48.567  1.00  0.00     0.078 A 
HETATM   23  N   UNL     1      23.705  44.500  49.562  1.00  0.00    -0.223 NA
BRANCH  22  24
HETATM   24  C   UNL     1      22.945  46.730  48.812  1.00  0.00     0.011 A 
HETATM   25  C   UNL     1      23.900  47.478  49.495  1.00  0.00     0.130 A 
HETATM   26  N   UNL     1      23.788  48.795  49.789  1.00  0.00    -0.272 NA
HETATM   27  C   UNL     1      22.660  49.407  49.367  1.00  0.00     0.116 A 
HETATM   28  C   UNL     1      21.647  48.759  48.676  1.00  0.00     0.020 A 
HETATM   29  C   UNL     1      21.792  47.399  48.398  1.00  0.00     0.017 A 
ENDBRANCH  22  24
ENDBRANCH   3  19
TORSDOF 6
ENDMDL
