MODEL 1
REMARK VINA RESULT:     -10.5      0.000      0.000
REMARK  4 active torsions:
REMARK  status: ('A' for Active; 'I' for Inactive)
REMARK    1  A    between atoms: C_2  and  C_3 
REMARK    2  A    between atoms: C_2  and  C_19 
REMARK       I    between atoms: C_3  and  N_4 
REMARK    3  A    between atoms: N_4  and  C_5 
REMARK    4  A    between atoms: C_12  and  C_13 
REMARK       I    between atoms: C_13  and  N_14 
ROOT
HETATM    1  C   UNL     1      27.211  43.732  51.658  1.00  0.00     0.230 C 
HETATM    2  N   UNL     1      26.703  42.451  51.785  1.00  0.00    -0.327 N 
HETATM    3  O   UNL     1      27.706  44.206  50.637  1.00  0.00    -0.272 OA
HETATM    4  H   UNL     1      26.172  42.244  52.618  1.00  0.00     0.169 HD
ENDROOT
BRANCH   2   5
HETATM    5  C   UNL     1      26.815  41.403  50.846  1.00  0.00     0.035 A 
HETATM    6  C   UNL     1      27.828  40.436  50.894  1.00  0.00     0.046 A 
HETATM    7  C   UNL     1      27.831  39.384  49.952  1.00  0.00     0.030 A 
HETATM    8  C   UNL     1      26.844  39.356  48.975  1.00  0.00     0.063 A 
HETATM    9  C   UNL     1      28.620  38.219  49.714  1.00  0.00     0.156 A 
HETATM   10  N   UNL     1      27.119  38.255  48.214  1.00  0.00    -0.277 N 
HETATM   11  C   UNL     1      25.826  40.308  48.893  1.00  0.00     0.034 A 
HETATM   12  H   UNL     1      26.611  37.929  47.400  1.00  0.00     0.189 HD
HETATM   13  N   UNL     1      28.174  37.538  48.633  1.00  0.00    -0.168 NA
HETATM   14  C   UNL     1      25.821  41.320  49.862  1.00  0.00     0.032 A 
BRANCH   9  15
HETATM   15  C   UNL     1      29.763  37.733  50.501  1.00  0.00     0.270 C 
HETATM   16  N   UNL     1      29.424  36.852  51.491  1.00  0.00    -0.365 N 
HETATM   17  H   UNL     1      28.445  36.628  51.626  1.00  0.00     0.159 HD
HETATM   18  H   UNL     1      30.137  36.502  52.111  1.00  0.00     0.159 HD
HETATM   19  O   UNL     1      30.927  38.077  50.331  1.00  0.00    -0.266 OA
ENDBRANCH   9  15
ENDBRANCH   2   5
BRANCH   1  20
HETATM   20  C   UNL     1      27.135  44.580  52.939  1.00  0.00     0.107 C 
HETATM   21  C   UNL     1      25.736  44.528  53.561  1.00  0.00     0.025 C 
BRANCH  20  22
HETATM   22  C   UNL     1      28.303  44.271  53.868  1.00  0.00    -0.044 A 
HETATM   23  C   UNL     1      28.459  45.059  55.027  1.00  0.00     0.020 A 
HETATM   24  C   UNL     1      29.506  44.842  55.937  1.00  0.00    -0.025 A 
HETATM   25  C   UNL     1      30.425  43.800  55.694  1.00  0.00    -0.026 A 
HETATM   26  C   UNL     1      29.656  45.640  57.082  1.00  0.00     0.012 A 
HETATM   27  C   UNL     1      30.268  43.008  54.546  1.00  0.00     0.013 A 
HETATM   28  C   UNL     1      31.469  43.580  56.608  1.00  0.00     0.012 A 
HETATM   29  C   UNL     1      29.222  43.239  53.645  1.00  0.00     0.009 A 
HETATM   30  C   UNL     1      31.605  44.381  57.744  1.00  0.00     0.001 A 
HETATM   31  C   UNL     1      30.699  45.411  57.980  1.00  0.00     0.001 A 
ENDBRANCH  20  22
ENDBRANCH   1  20
TORSDOF 4
ENDMDL
MODEL 2
REMARK VINA RESULT:     -10.5      4.923      7.681
REMARK  4 active torsions:
REMARK  status: ('A' for Active; 'I' for Inactive)
REMARK    1  A    between atoms: C_2  and  C_3 
REMARK    2  A    between atoms: C_2  and  C_19 
REMARK       I    between atoms: C_3  and  N_4 
REMARK    3  A    between atoms: N_4  and  C_5 
REMARK    4  A    between atoms: C_12  and  C_13 
REMARK       I    between atoms: C_13  and  N_14 
ROOT
HETATM    1  C   UNL     1      26.709  44.903  50.796  1.00  0.00     0.230 C 
HETATM    2  N   UNL     1      25.859  45.973  51.014  1.00  0.00    -0.327 N 
HETATM    3  O   UNL     1      27.539  44.825  49.892  1.00  0.00    -0.272 OA
HETATM    4  H   UNL     1      25.349  45.987  51.886  1.00  0.00     0.169 HD
ENDROOT
BRANCH   2   5
HETATM    5  C   UNL     1      25.654  47.077  50.160  1.00  0.00     0.035 A 
HETATM    6  C   UNL     1      24.394  47.442  49.666  1.00  0.00     0.046 A 
HETATM    7  C   UNL     1      24.269  48.597  48.865  1.00  0.00     0.030 A 
HETATM    8  C   UNL     1      25.410  49.327  48.557  1.00  0.00     0.063 A 
HETATM    9  C   UNL     1      23.197  49.309  48.248  1.00  0.00     0.156 A 
HETATM   10  N   UNL     1      24.980  50.355  47.766  1.00  0.00    -0.277 N 
HETATM   11  C   UNL     1      26.681  48.986  49.023  1.00  0.00     0.034 A 
HETATM   12  H   UNL     1      25.545  51.082  47.344  1.00  0.00     0.189 HD
HETATM   13  N   UNL     1      23.653  50.386  47.566  1.00  0.00    -0.168 NA
HETATM   14  C   UNL     1      26.775  47.858  49.848  1.00  0.00     0.032 A 
BRANCH   9  15
HETATM   15  C   UNL     1      21.761  49.002  48.314  1.00  0.00     0.270 C 
HETATM   16  N   UNL     1      21.204  49.200  49.547  1.00  0.00    -0.365 N 
HETATM   17  H   UNL     1      21.803  49.504  50.306  1.00  0.00     0.159 HD
HETATM   18  H   UNL     1      20.234  48.972  49.698  1.00  0.00     0.159 HD
HETATM   19  O   UNL     1      21.091  48.585  47.376  1.00  0.00    -0.266 OA
ENDBRANCH   9  15
ENDBRANCH   2   5
BRANCH   1  20
HETATM   20  C   UNL     1      26.545  43.741  51.789  1.00  0.00     0.107 C 
HETATM   21  C   UNL     1      26.162  42.443  51.071  1.00  0.00     0.025 C 
BRANCH  20  22
HETATM   22  C   UNL     1      27.732  43.665  52.741  1.00  0.00    -0.044 A 
HETATM   23  C   UNL     1      27.804  44.601  53.792  1.00  0.00     0.020 A 
HETATM   24  C   UNL     1      28.862  44.602  54.716  1.00  0.00    -0.025 A 
HETATM   25  C   UNL     1      29.879  43.633  54.598  1.00  0.00    -0.026 A 
HETATM   26  C   UNL     1      28.927  45.547  55.752  1.00  0.00     0.012 A 
HETATM   27  C   UNL     1      29.807  42.694  53.558  1.00  0.00     0.013 A 
HETATM   28  C   UNL     1      30.935  43.631  55.524  1.00  0.00     0.012 A 
HETATM   29  C   UNL     1      28.748  42.707  52.642  1.00  0.00     0.009 A 
HETATM   30  C   UNL     1      30.986  44.576  56.552  1.00  0.00     0.001 A 
HETATM   31  C   UNL     1      29.982  45.534  56.665  1.00  0.00     0.001 A 
ENDBRANCH  20  22
ENDBRANCH   1  20
TORSDOF 4
ENDMDL
MODEL 3
REMARK VINA RESULT:     -10.1      4.862      7.739
REMARK  4 active torsions:
REMARK  status: ('A' for Active; 'I' for Inactive)
REMARK    1  A    between atoms: C_2  and  C_3 
REMARK    2  A    between atoms: C_2  and  C_19 
REMARK       I    between atoms: C_3  and  N_4 
REMARK    3  A    between atoms: N_4  and  C_5 
REMARK    4  A    between atoms: C_12  and  C_13 
REMARK       I    between atoms: C_13  and  N_14 
ROOT
HETATM    1  C   UNL     1      26.164  45.538  51.971  1.00  0.00     0.230 C 
HETATM    2  N   UNL     1      26.376  45.869  50.643  1.00  0.00    -0.327 N 
HETATM    3  O   UNL     1      25.395  46.116  52.736  1.00  0.00    -0.272 OA
HETATM    4  H   UNL     1      26.900  45.214  50.081  1.00  0.00     0.169 HD
ENDROOT
BRANCH   2   5
HETATM    5  C   UNL     1      25.901  47.017  49.974  1.00  0.00     0.035 A 
HETATM    6  C   UNL     1      24.540  47.268  49.756  1.00  0.00     0.046 A 
HETATM    7  C   UNL     1      24.146  48.472  49.132  1.00  0.00     0.030 A 
HETATM    8  C   UNL     1      25.126  49.365  48.718  1.00  0.00     0.063 A 
HETATM    9  C   UNL     1      22.909  49.102  48.801  1.00  0.00     0.156 A 
HETATM   10  N   UNL     1      24.450  50.403  48.142  1.00  0.00    -0.277 N 
HETATM   11  C   UNL     1      26.491  49.141  48.911  1.00  0.00     0.034 A 
HETATM   12  H   UNL     1      24.847  51.233  47.716  1.00  0.00     0.189 HD
HETATM   13  N   UNL     1      23.113  50.288  48.182  1.00  0.00    -0.168 NA
HETATM   14  C   UNL     1      26.855  47.958  49.567  1.00  0.00     0.032 A 
BRANCH   9  15
HETATM   15  C   UNL     1      21.550  48.613  49.080  1.00  0.00     0.270 C 
HETATM   16  N   UNL     1      20.800  49.460  49.850  1.00  0.00    -0.365 N 
HETATM   17  H   UNL     1      21.226  50.315  50.185  1.00  0.00     0.159 HD
HETATM   18  H   UNL     1      19.872  49.186  50.130  1.00  0.00     0.159 HD
HETATM   19  O   UNL     1      21.099  47.541  48.693  1.00  0.00    -0.266 OA
ENDBRANCH   9  15
ENDBRANCH   2   5
BRANCH   1  20
HETATM   20  C   UNL     1      27.000  44.349  52.475  1.00  0.00     0.107 C 
HETATM   21  C   UNL     1      27.772  43.685  51.331  1.00  0.00     0.025 C 
BRANCH  20  22
HETATM   22  C   UNL     1      27.810  44.736  53.707  1.00  0.00    -0.044 A 
HETATM   23  C   UNL     1      28.842  43.871  54.123  1.00  0.00     0.020 A 
HETATM   24  C   UNL     1      29.639  44.151  55.246  1.00  0.00    -0.025 A 
HETATM   25  C   UNL     1      29.409  45.336  55.974  1.00  0.00    -0.026 A 
HETATM   26  C   UNL     1      30.657  43.275  55.656  1.00  0.00     0.012 A 
HETATM   27  C   UNL     1      28.387  46.204  55.558  1.00  0.00     0.013 A 
HETATM   28  C   UNL     1      30.208  45.618  57.094  1.00  0.00     0.012 A 
HETATM   29  C   UNL     1      27.599  45.910  54.439  1.00  0.00     0.009 A 
HETATM   30  C   UNL     1      31.219  44.739  57.490  1.00  0.00     0.001 A 
HETATM   31  C   UNL     1      31.442  43.568  56.771  1.00  0.00     0.001 A 
ENDBRANCH  20  22
ENDBRANCH   1  20
TORSDOF 4
ENDMDL
MODEL 4
REMARK VINA RESULT:      -9.8      4.103      6.670
REMARK  4 active torsions:
REMARK  status: ('A' for Active; 'I' for Inactive)
REMARK    1  A    between atoms: C_2  and  C_3 
REMARK    2  A    between atoms: C_2  and  C_19 
REMARK       I    between atoms: C_3  and  N_4 
REMARK    3  A    between atoms: N_4  and  C_5 
REMARK    4  A    between atoms: C_12  and  C_13 
REMARK       I    between atoms: C_13  and  N_14 
ROOT
HETATM    1  C   UNL     1      26.617  43.544  50.800  1.00  0.00     0.230 C 
HETATM    2  N   UNL     1      25.240  43.675  50.856  1.00  0.00    -0.327 N 
HETATM    3  O   UNL     1      27.351  44.073  49.967  1.00  0.00    -0.272 OA
HETATM    4  H   UNL     1      24.776  43.332  51.685  1.00  0.00     0.169 HD
ENDROOT
BRANCH   2   5
HETATM    5  C   UNL     1      24.410  44.277  49.886  1.00  0.00     0.035 A 
HETATM    6  C   UNL     1      24.035  45.627  49.929  1.00  0.00     0.046 A 
HETATM    7  C   UNL     1      23.252  46.165  48.885  1.00  0.00     0.030 A 
HETATM    8  C   UNL     1      22.843  45.329  47.854  1.00  0.00     0.063 A 
HETATM    9  C   UNL     1      22.737  47.452  48.544  1.00  0.00     0.156 A 
HETATM   10  N   UNL     1      22.097  46.117  47.023  1.00  0.00    -0.277 N 
HETATM   11  C   UNL     1      23.190  43.979  47.785  1.00  0.00     0.034 A 
HETATM   12  H   UNL     1      21.627  45.837  46.170  1.00  0.00     0.189 HD
HETATM   13  N   UNL     1      22.019  47.404  47.398  1.00  0.00    -0.168 NA
HETATM   14  C   UNL     1      24.000  43.476  48.812  1.00  0.00     0.032 A 
BRANCH   9  15
HETATM   15  C   UNL     1      22.933  48.717  49.267  1.00  0.00     0.270 C 
HETATM   16  N   UNL     1      21.771  49.315  49.671  1.00  0.00    -0.365 N 
HETATM   17  H   UNL     1      20.891  48.876  49.427  1.00  0.00     0.159 HD
HETATM   18  H   UNL     1      21.806  50.209  50.133  1.00  0.00     0.159 HD
HETATM   19  O   UNL     1      24.022  49.233  49.491  1.00  0.00    -0.266 OA
ENDBRANCH   9  15
ENDBRANCH   2   5
BRANCH   1  20
HETATM   20  C   UNL     1      27.218  42.638  51.888  1.00  0.00     0.107 C 
HETATM   21  C   UNL     1      28.127  41.565  51.280  1.00  0.00     0.025 C 
BRANCH  20  22
HETATM   22  C   UNL     1      27.810  43.466  53.022  1.00  0.00    -0.044 A 
HETATM   23  C   UNL     1      28.927  42.951  53.710  1.00  0.00     0.020 A 
HETATM   24  C   UNL     1      29.535  43.648  54.766  1.00  0.00    -0.025 A 
HETATM   25  C   UNL     1      29.023  44.906  55.146  1.00  0.00    -0.026 A 
HETATM   26  C   UNL     1      30.641  43.118  55.451  1.00  0.00     0.012 A 
HETATM   27  C   UNL     1      27.917  45.427  54.457  1.00  0.00     0.013 A 
HETATM   28  C   UNL     1      29.635  45.606  56.199  1.00  0.00     0.012 A 
HETATM   29  C   UNL     1      27.318  44.718  53.409  1.00  0.00     0.009 A 
HETATM   30  C   UNL     1      30.736  45.068  56.870  1.00  0.00     0.001 A 
HETATM   31  C   UNL     1      31.238  43.824  56.496  1.00  0.00     0.001 A 
ENDBRANCH  20  22
ENDBRANCH   1  20
TORSDOF 4
ENDMDL
MODEL 5
REMARK VINA RESULT:      -9.6      4.385      6.942
REMARK  4 active torsions:
REMARK  status: ('A' for Active; 'I' for Inactive)
REMARK    1  A    between atoms: C_2  and  C_3 
REMARK    2  A    between atoms: C_2  and  C_19 
REMARK       I    between atoms: C_3  and  N_4 
REMARK    3  A    between atoms: N_4  and  C_5 
REMARK    4  A    between atoms: C_12  and  C_13 
REMARK       I    between atoms: C_13  and  N_14 
ROOT
HETATM    1  C   UNL     1      26.955  44.592  51.117  1.00  0.00     0.230 C 
HETATM    2  N   UNL     1      25.782  45.282  51.370  1.00  0.00    -0.327 N 
HETATM    3  O   UNL     1      27.702  44.782  50.159  1.00  0.00    -0.272 OA
HETATM    4  H   UNL     1      25.353  45.150  52.274  1.00  0.00     0.169 HD
ENDROOT
BRANCH   2   5
HETATM    5  C   UNL     1      25.134  46.190  50.505  1.00  0.00     0.035 A 
HETATM    6  C   UNL     1      23.934  45.896  49.844  1.00  0.00     0.046 A 
HETATM    7  C   UNL     1      23.320  46.884  49.044  1.00  0.00     0.030 A 
HETATM    8  C   UNL     1      23.945  48.117  48.905  1.00  0.00     0.063 A 
HETATM    9  C   UNL     1      22.113  46.993  48.290  1.00  0.00     0.156 A 
HETATM   10  N   UNL     1      23.138  48.839  48.071  1.00  0.00    -0.277 N 
HETATM   11  C   UNL     1      25.145  48.440  49.540  1.00  0.00     0.034 A 
HETATM   12  H   UNL     1      23.288  49.784  47.738  1.00  0.00     0.189 HD
HETATM   13  N   UNL     1      22.020  48.202  47.688  1.00  0.00    -0.168 NA
HETATM   14  C   UNL     1      25.715  47.456  50.360  1.00  0.00     0.032 A 
BRANCH   9  15
HETATM   15  C   UNL     1      21.047  45.990  48.152  1.00  0.00     0.270 C 
HETATM   16  N   UNL     1      20.269  45.846  49.268  1.00  0.00    -0.365 N 
HETATM   17  H   UNL     1      20.491  46.398  50.088  1.00  0.00     0.159 HD
HETATM   18  H   UNL     1      19.542  45.149  49.281  1.00  0.00     0.159 HD
HETATM   19  O   UNL     1      20.853  45.308  47.152  1.00  0.00    -0.266 OA
ENDBRANCH   9  15
ENDBRANCH   2   5
BRANCH   1  20
HETATM   20  C   UNL     1      27.290  43.500  52.148  1.00  0.00     0.107 C 
HETATM   21  C   UNL     1      28.010  42.317  51.493  1.00  0.00     0.025 C 
BRANCH  20  22
HETATM   22  C   UNL     1      27.954  44.100  53.382  1.00  0.00    -0.044 A 
HETATM   23  C   UNL     1      29.053  43.421  53.944  1.00  0.00     0.020 A 
HETATM   24  C   UNL     1      29.723  43.904  55.079  1.00  0.00    -0.025 A 
HETATM   25  C   UNL     1      29.294  45.109  55.671  1.00  0.00    -0.026 A 
HETATM   26  C   UNL     1      30.811  43.210  55.636  1.00  0.00     0.012 A 
HETATM   27  C   UNL     1      28.206  45.794  55.109  1.00  0.00     0.013 A 
HETATM   28  C   UNL     1      29.969  45.594  56.804  1.00  0.00     0.012 A 
HETATM   29  C   UNL     1      27.544  45.298  53.980  1.00  0.00     0.009 A 
HETATM   30  C   UNL     1      31.050  44.896  57.345  1.00  0.00     0.001 A 
HETATM   31  C   UNL     1      31.470  43.704  56.762  1.00  0.00     0.001 A 
ENDBRANCH  20  22
ENDBRANCH   1  20
TORSDOF 4
ENDMDL
MODEL 6
REMARK VINA RESULT:      -9.5      2.880      4.227
REMARK  4 active torsions:
REMARK  status: ('A' for Active; 'I' for Inactive)
REMARK    1  A    between atoms: C_2  and  C_3 
REMARK    2  A    between atoms: C_2  and  C_19 
REMARK       I    between atoms: C_3  and  N_4 
REMARK    3  A    between atoms: N_4  and  C_5 
REMARK    4  A    between atoms: C_12  and  C_13 
REMARK       I    between atoms: C_13  and  N_14 
ROOT
HETATM    1  C   UNL     1      26.154  44.316  52.727  1.00  0.00     0.230 C 
HETATM    2  N   UNL     1      26.716  43.753  51.594  1.00  0.00    -0.327 N 
HETATM    3  O   UNL     1      25.095  43.967  53.247  1.00  0.00    -0.272 OA
HETATM    4  H   UNL     1      27.666  44.013  51.371  1.00  0.00     0.169 HD
ENDROOT
BRANCH   2   5
HETATM    5  C   UNL     1      26.111  42.816  50.730  1.00  0.00     0.035 A 
HETATM    6  C   UNL     1      25.082  43.147  49.838  1.00  0.00     0.046 A 
HETATM    7  C   UNL     1      24.575  42.162  48.964  1.00  0.00     0.030 A 
HETATM    8  C   UNL     1      25.089  40.873  49.035  1.00  0.00     0.063 A 
HETATM    9  C   UNL     1      23.613  42.118  47.910  1.00  0.00     0.156 A 
HETATM   10  N   UNL     1      24.398  40.156  48.100  1.00  0.00    -0.277 N 
HETATM   11  C   UNL     1      26.106  40.506  49.917  1.00  0.00     0.034 A 
HETATM   12  H   UNL     1      24.500  39.171  47.882  1.00  0.00     0.189 HD
HETATM   13  N   UNL     1      23.508  40.872  47.394  1.00  0.00    -0.168 NA
HETATM   14  C   UNL     1      26.621  41.511  50.748  1.00  0.00     0.032 A 
BRANCH   9  15
HETATM   15  C   UNL     1      22.817  43.233  47.376  1.00  0.00     0.270 C 
HETATM   16  N   UNL     1      23.452  43.956  46.404  1.00  0.00    -0.365 N 
HETATM   17  H   UNL     1      24.399  43.701  46.152  1.00  0.00     0.159 HD
HETATM   18  H   UNL     1      23.000  44.767  46.012  1.00  0.00     0.159 HD
HETATM   19  O   UNL     1      21.690  43.533  47.755  1.00  0.00    -0.266 OA
ENDBRANCH   9  15
ENDBRANCH   2   5
BRANCH   1  20
HETATM   20  C   UNL     1      26.960  45.477  53.332  1.00  0.00     0.107 C 
HETATM   21  C   UNL     1      26.042  46.501  54.008  1.00  0.00     0.025 C 
BRANCH  20  22
HETATM   22  C   UNL     1      28.126  44.957  54.164  1.00  0.00    -0.044 A 
HETATM   23  C   UNL     1      28.405  45.593  55.390  1.00  0.00     0.020 A 
HETATM   24  C   UNL     1      29.459  45.178  56.220  1.00  0.00    -0.025 A 
HETATM   25  C   UNL     1      30.258  44.086  55.823  1.00  0.00    -0.026 A 
HETATM   26  C   UNL     1      29.733  45.828  57.435  1.00  0.00     0.012 A 
HETATM   27  C   UNL     1      29.979  43.445  54.607  1.00  0.00     0.013 A 
HETATM   28  C   UNL     1      31.310  43.668  56.655  1.00  0.00     0.012 A 
HETATM   29  C   UNL     1      28.927  43.872  53.788  1.00  0.00     0.009 A 
HETATM   30  C   UNL     1      31.570  44.322  57.861  1.00  0.00     0.001 A 
HETATM   31  C   UNL     1      30.782  45.402  58.250  1.00  0.00     0.001 A 
ENDBRANCH  20  22
ENDBRANCH   1  20
TORSDOF 4
ENDMDL
MODEL 7
REMARK VINA RESULT:      -9.1      2.215      3.123
REMARK  4 active torsions:
REMARK  status: ('A' for Active; 'I' for Inactive)
REMARK    1  A    between atoms: C_2  and  C_3 
REMARK    2  A    between atoms: C_2  and  C_19 
REMARK       I    between atoms: C_3  and  N_4 
REMARK    3  A    between atoms: N_4  and  C_5 
REMARK    4  A    between atoms: C_12  and  C_13 
REMARK       I    between atoms: C_13  and  N_14 
ROOT
HETATM    1  C   UNL     1      27.614  41.937  51.206  1.00  0.00     0.230 C 
HETATM    2  N   UNL     1      28.513  41.519  50.240  1.00  0.00    -0.327 N 
HETATM    3  O   UNL     1      26.735  41.240  51.712  1.00  0.00    -0.272 OA
HETATM    4  H   UNL     1      29.289  42.132  50.035  1.00  0.00     0.169 HD
ENDROOT
BRANCH   2   5
HETATM    5  C   UNL     1      28.484  40.299  49.532  1.00  0.00     0.035 A 
HETATM    6  C   UNL     1      28.181  40.212  48.166  1.00  0.00     0.046 A 
HETATM    7  C   UNL     1      28.234  38.958  47.520  1.00  0.00     0.030 A 
HETATM    8  C   UNL     1      28.554  37.831  48.268  1.00  0.00     0.063 A 
HETATM    9  C   UNL     1      28.063  38.480  46.187  1.00  0.00     0.156 A 
HETATM   10  N   UNL     1      28.505  36.787  47.388  1.00  0.00    -0.277 N 
HETATM   11  C   UNL     1      28.851  37.881  49.631  1.00  0.00     0.034 A 
HETATM   12  H   UNL     1      28.672  35.808  47.588  1.00  0.00     0.189 HD
HETATM   13  N   UNL     1      28.224  37.138  46.123  1.00  0.00    -0.168 NA
HETATM   14  C   UNL     1      28.830  39.142  50.242  1.00  0.00     0.032 A 
BRANCH   9  15
HETATM   15  C   UNL     1      27.776  39.270  44.980  1.00  0.00     0.270 C 
HETATM   16  N   UNL     1      26.452  39.569  44.811  1.00  0.00    -0.365 N 
HETATM   17  H   UNL     1      25.785  39.213  45.486  1.00  0.00     0.159 HD
HETATM   18  H   UNL     1      26.156  40.068  43.988  1.00  0.00     0.159 HD
HETATM   19  O   UNL     1      28.616  39.632  44.165  1.00  0.00    -0.266 OA
ENDBRANCH   9  15
ENDBRANCH   2   5
BRANCH   1  20
HETATM   20  C   UNL     1      27.767  43.407  51.630  1.00  0.00     0.107 C 
HETATM   21  C   UNL     1      26.410  44.114  51.693  1.00  0.00     0.025 C 
BRANCH  20  22
HETATM   22  C   UNL     1      28.654  43.530  52.863  1.00  0.00    -0.044 A 
HETATM   23  C   UNL     1      28.334  44.515  53.819  1.00  0.00     0.020 A 
HETATM   24  C   UNL     1      29.097  44.695  54.984  1.00  0.00    -0.025 A 
HETATM   25  C   UNL     1      30.210  43.861  55.214  1.00  0.00    -0.026 A 
HETATM   26  C   UNL     1      28.773  45.688  55.923  1.00  0.00     0.012 A 
HETATM   27  C   UNL     1      30.527  42.873  54.269  1.00  0.00     0.013 A 
HETATM   28  C   UNL     1      30.970  44.039  56.382  1.00  0.00     0.012 A 
HETATM   29  C   UNL     1      29.760  42.708  53.110  1.00  0.00     0.009 A 
HETATM   30  C   UNL     1      30.635  45.029  57.308  1.00  0.00     0.001 A 
HETATM   31  C   UNL     1      29.538  45.854  57.078  1.00  0.00     0.001 A 
ENDBRANCH  20  22
ENDBRANCH   1  20
TORSDOF 4
ENDMDL
MODEL 8
REMARK VINA RESULT:      -8.7      3.287      4.836
REMARK  4 active torsions:
REMARK  status: ('A' for Active; 'I' for Inactive)
REMARK    1  A    between atoms: C_2  and  C_3 
REMARK    2  A    between atoms: C_2  and  C_19 
REMARK       I    between atoms: C_3  and  N_4 
REMARK    3  A    between atoms: N_4  and  C_5 
REMARK    4  A    between atoms: C_12  and  C_13 
REMARK       I    between atoms: C_13  and  N_14 
ROOT
HETATM    1  C   UNL     1      26.883  42.293  51.253  1.00  0.00     0.230 C 
HETATM    2  N   UNL     1      25.508  42.354  51.406  1.00  0.00    -0.327 N 
HETATM    3  O   UNL     1      27.507  42.663  50.261  1.00  0.00    -0.272 OA
HETATM    4  H   UNL     1      25.137  42.180  52.329  1.00  0.00     0.169 HD
ENDROOT
BRANCH   2   5
HETATM    5  C   UNL     1      24.562  42.675  50.410  1.00  0.00     0.035 A 
HETATM    6  C   UNL     1      24.153  41.770  49.421  1.00  0.00     0.046 A 
HETATM    7  C   UNL     1      23.156  42.152  48.498  1.00  0.00     0.030 A 
HETATM    8  C   UNL     1      22.628  43.434  48.573  1.00  0.00     0.063 A 
HETATM    9  C   UNL     1      22.452  41.525  47.426  1.00  0.00     0.156 A 
HETATM   10  N   UNL     1      21.719  43.512  47.556  1.00  0.00    -0.277 N 
HETATM   11  C   UNL     1      23.018  44.364  49.539  1.00  0.00     0.034 A 
HETATM   12  H   UNL     1      21.148  44.311  47.302  1.00  0.00     0.189 HD
HETATM   13  N   UNL     1      21.575  42.379  46.849  1.00  0.00    -0.168 NA
HETATM   14  C   UNL     1      23.982  43.949  50.468  1.00  0.00     0.032 A 
BRANCH   9  15
HETATM   15  C   UNL     1      22.578  40.135  46.961  1.00  0.00     0.270 C 
HETATM   16  N   UNL     1      21.383  39.490  46.802  1.00  0.00    -0.365 N 
HETATM   17  H   UNL     1      20.530  39.984  47.035  1.00  0.00     0.159 HD
HETATM   18  H   UNL     1      21.374  38.519  46.531  1.00  0.00     0.159 HD
HETATM   19  O   UNL     1      23.641  39.565  46.743  1.00  0.00    -0.266 OA
ENDBRANCH   9  15
ENDBRANCH   2   5
BRANCH   1  20
HETATM   20  C   UNL     1      27.634  41.690  52.452  1.00  0.00     0.107 C 
HETATM   21  C   UNL     1      28.678  40.665  51.998  1.00  0.00     0.025 C 
BRANCH  20  22
HETATM   22  C   UNL     1      28.121  42.782  53.396  1.00  0.00    -0.044 A 
HETATM   23  C   UNL     1      29.230  42.504  54.221  1.00  0.00     0.020 A 
HETATM   24  C   UNL     1      29.744  43.453  55.119  1.00  0.00    -0.025 A 
HETATM   25  C   UNL     1      29.144  44.727  55.193  1.00  0.00    -0.026 A 
HETATM   26  C   UNL     1      30.843  43.160  55.942  1.00  0.00     0.012 A 
HETATM   27  C   UNL     1      28.045  45.010  54.368  1.00  0.00     0.013 A 
HETATM   28  C   UNL     1      29.662  45.678  56.088  1.00  0.00     0.012 A 
HETATM   29  C   UNL     1      27.540  44.053  53.481  1.00  0.00     0.009 A 
HETATM   30  C   UNL     1      30.757  45.373  56.900  1.00  0.00     0.001 A 
HETATM   31  C   UNL     1      31.346  44.113  56.827  1.00  0.00     0.001 A 
ENDBRANCH  20  22
ENDBRANCH   1  20
TORSDOF 4
ENDMDL
MODEL 9
REMARK VINA RESULT:      -8.6      9.536     13.010
REMARK  4 active torsions:
REMARK  status: ('A' for Active; 'I' for Inactive)
REMARK    1  A    between atoms: C_2  and  C_3 
REMARK    2  A    between atoms: C_2  and  C_19 
REMARK       I    between atoms: C_3  and  N_4 
REMARK    3  A    between atoms: N_4  and  C_5 
REMARK    4  A    between atoms: C_12  and  C_13 
REMARK       I    between atoms: C_13  and  N_14 
ROOT
HETATM    1  C   UNL     1      20.380  48.211  49.013  1.00  0.00     0.230 C 
HETATM    2  N   UNL     1      21.245  49.180  49.493  1.00  0.00    -0.327 N 
HETATM    3  O   UNL     1      20.706  47.235  48.339  1.00  0.00    -0.272 OA
HETATM    4  H   UNL     1      20.878  49.830  50.173  1.00  0.00     0.169 HD
ENDROOT
BRANCH   2   5
HETATM    5  C   UNL     1      22.607  49.334  49.160  1.00  0.00     0.035 A 
HETATM    6  C   UNL     1      23.613  48.480  49.631  1.00  0.00     0.046 A 
HETATM    7  C   UNL     1      24.944  48.668  49.200  1.00  0.00     0.030 A 
HETATM    8  C   UNL     1      25.228  49.724  48.343  1.00  0.00     0.063 A 
HETATM    9  C   UNL     1      26.191  48.002  49.393  1.00  0.00     0.156 A 
HETATM   10  N   UNL     1      26.576  49.661  48.126  1.00  0.00    -0.277 N 
HETATM   11  C   UNL     1      24.253  50.599  47.863  1.00  0.00     0.034 A 
HETATM   12  H   UNL     1      27.136  50.285  47.557  1.00  0.00     0.189 HD
HETATM   13  N   UNL     1      27.190  48.631  48.731  1.00  0.00    -0.168 NA
HETATM   14  C   UNL     1      22.933  50.369  48.274  1.00  0.00     0.032 A 
BRANCH   9  15
HETATM   15  C   UNL     1      26.444  46.777  50.166  1.00  0.00     0.270 C 
HETATM   16  N   UNL     1      26.185  46.898  51.503  1.00  0.00    -0.365 N 
HETATM   17  H   UNL     1      25.879  47.796  51.858  1.00  0.00     0.159 HD
HETATM   18  H   UNL     1      26.374  46.123  52.119  1.00  0.00     0.159 HD
HETATM   19  O   UNL     1      26.867  45.727  49.695  1.00  0.00    -0.266 OA
ENDBRANCH   9  15
ENDBRANCH   2   5
BRANCH   1  20
HETATM   20  C   UNL     1      18.902  48.436  49.372  1.00  0.00     0.107 C 
HETATM   21  C   UNL     1      18.716  48.613  50.882  1.00  0.00     0.025 C 
BRANCH  20  22
HETATM   22  C   UNL     1      18.281  49.506  48.482  1.00  0.00    -0.044 A 
HETATM   23  C   UNL     1      18.628  49.519  47.116  1.00  0.00     0.020 A 
HETATM   24  C   UNL     1      18.101  50.468  46.225  1.00  0.00    -0.025 A 
HETATM   25  C   UNL     1      17.190  51.431  46.704  1.00  0.00    -0.026 A 
HETATM   26  C   UNL     1      18.464  50.477  44.868  1.00  0.00     0.012 A 
HETATM   27  C   UNL     1      16.835  51.416  48.062  1.00  0.00     0.013 A 
HETATM   28  C   UNL     1      16.660  52.377  45.811  1.00  0.00     0.012 A 
HETATM   29  C   UNL     1      17.372  50.466  48.939  1.00  0.00     0.009 A 
HETATM   30  C   UNL     1      17.028  52.373  44.464  1.00  0.00     0.001 A 
HETATM   31  C   UNL     1      17.930  51.423  43.993  1.00  0.00     0.001 A 
ENDBRANCH  20  22
ENDBRANCH   1  20
TORSDOF 4
ENDMDL
MODEL 10
REMARK VINA RESULT:      -8.5      1.870      3.078
REMARK  4 active torsions:
REMARK  status: ('A' for Active; 'I' for Inactive)
REMARK    1  A    between atoms: C_2  and  C_3 
REMARK    2  A    between atoms: C_2  and  C_19 
REMARK       I    between atoms: C_3  and  N_4 
REMARK    3  A    between atoms: N_4  and  C_5 
REMARK    4  A    between atoms: C_12  and  C_13 
REMARK       I    between atoms: C_13  and  N_14 
ROOT
HETATM    1  C   UNL     1      25.566  43.520  50.175  1.00  0.00     0.230 C 
HETATM    2  N   UNL     1      26.453  43.093  49.201  1.00  0.00    -0.327 N 
HETATM    3  O   UNL     1      24.921  42.787  50.922  1.00  0.00    -0.272 OA
HETATM    4  H   UNL     1      27.044  43.793  48.776  1.00  0.00     0.169 HD
ENDROOT
BRANCH   2   5
HETATM    5  C   UNL     1      26.649  41.767  48.762  1.00  0.00     0.035 A 
HETATM    6  C   UNL     1      27.665  40.937  49.258  1.00  0.00     0.046 A 
HETATM    7  C   UNL     1      27.753  39.602  48.809  1.00  0.00     0.030 A 
HETATM    8  C   UNL     1      26.847  39.153  47.857  1.00  0.00     0.063 A 
HETATM    9  C   UNL     1      28.570  38.469  49.105  1.00  0.00     0.156 A 
HETATM   10  N   UNL     1      27.192  37.854  47.613  1.00  0.00    -0.277 N 
HETATM   11  C   UNL     1      25.829  39.954  47.336  1.00  0.00     0.034 A 
HETATM   12  H   UNL     1      26.754  37.214  46.960  1.00  0.00     0.189 HD
HETATM   13  N   UNL     1      28.218  37.401  48.352  1.00  0.00    -0.168 NA
HETATM   14  C   UNL     1      25.738  41.264  47.825  1.00  0.00     0.032 A 
BRANCH   9  15
HETATM   15  C   UNL     1      29.651  38.378  50.097  1.00  0.00     0.270 C 
HETATM   16  N   UNL     1      29.360  38.969  51.296  1.00  0.00    -0.365 N 
HETATM   17  H   UNL     1      28.467  39.435  51.402  1.00  0.00     0.159 HD
HETATM   18  H   UNL     1      30.059  38.995  52.020  1.00  0.00     0.159 HD
HETATM   19  O   UNL     1      30.738  37.847  49.900  1.00  0.00    -0.266 OA
ENDBRANCH   9  15
ENDBRANCH   2   5
BRANCH   1  20
HETATM   20  C   UNL     1      25.407  45.046  50.272  1.00  0.00     0.107 C 
HETATM   21  C   UNL     1      23.993  45.486  49.882  1.00  0.00     0.025 C 
BRANCH  20  22
HETATM   22  C   UNL     1      25.938  45.567  51.602  1.00  0.00    -0.044 A 
HETATM   23  C   UNL     1      26.950  44.830  52.250  1.00  0.00     0.020 A 
HETATM   24  C   UNL     1      27.496  45.238  53.477  1.00  0.00    -0.025 A 
HETATM   25  C   UNL     1      27.029  46.425  54.078  1.00  0.00    -0.026 A 
HETATM   26  C   UNL     1      28.497  44.489  54.117  1.00  0.00     0.012 A 
HETATM   27  C   UNL     1      26.027  47.166  53.433  1.00  0.00     0.013 A 
HETATM   28  C   UNL     1      27.579  46.835  55.304  1.00  0.00     0.012 A 
HETATM   29  C   UNL     1      25.489  46.745  52.211  1.00  0.00     0.009 A 
HETATM   30  C   UNL     1      28.575  46.081  55.928  1.00  0.00     0.001 A 
HETATM   31  C   UNL     1      29.033  44.908  55.335  1.00  0.00     0.001 A 
ENDBRANCH  20  22
ENDBRANCH   1  20
TORSDOF 4
ENDMDL
