MODEL 1
REMARK VINA RESULT:     -10.9      0.000      0.000
REMARK  9 active torsions:
REMARK  status: ('A' for Active; 'I' for Inactive)
REMARK    1  A    between atoms: C_7  and  C_8 
REMARK    2  A    between atoms: C_9  and  O_10 
REMARK    3  A    between atoms: C_13  and  N_14 
REMARK    4  A    between atoms: N_14  and  C_15 
REMARK    5  A    between atoms: C_15  and  N_16 
REMARK       I    between atoms: N_16  and  C_17 
REMARK    6  A    between atoms: C_17  and  C_18 
REMARK    7  A    between atoms: C_21  and  O_22 
REMARK    8  A    between atoms: O_22  and  C_23 
REMARK    9  A    between atoms: C_23  and  C_24 
ROOT
HETATM    1  C   UNL     1      25.980  45.179  52.303  1.00  0.00     0.052 A 
HETATM    2  C   UNL     1      25.513  43.970  51.769  1.00  0.00     0.080 A 
HETATM    3  C   UNL     1      24.583  43.958  50.732  1.00  0.00     0.040 A 
HETATM    4  C   UNL     1      24.080  45.161  50.230  1.00  0.00     0.032 A 
HETATM    5  C   UNL     1      24.529  46.381  50.740  1.00  0.00     0.035 A 
HETATM    6  C   UNL     1      25.476  46.380  51.773  1.00  0.00     0.048 A 
ENDROOT
BRANCH   5   7
HETATM    7  N   UNL     1      23.916  47.564  50.266  1.00  0.00    -0.337 N 
HETATM    8  H   UNL     1      23.066  47.845  50.744  1.00  0.00     0.168 HD
BRANCH   7   9
HETATM    9  C   UNL     1      24.298  48.347  49.205  1.00  0.00     0.157 C 
HETATM   10  S   UNL     1      25.777  49.112  49.021  1.00  0.00    -0.047 SA
BRANCH   9  11
HETATM   11  N   UNL     1      23.377  48.502  48.191  1.00  0.00    -0.201 NA
HETATM   12  C   UNL     1      22.820  49.727  47.901  1.00  0.00     0.237 C 
HETATM   13  O   UNL     1      23.273  50.465  47.036  1.00  0.00    -0.274 OA
HETATM   14  H   UNL     1      23.809  48.110  47.361  1.00  0.00     0.139 HD
BRANCH  12  15
HETATM   15  C   UNL     1      21.565  50.078  48.607  1.00  0.00     0.026 A 
HETATM   16  C   UNL     1      21.094  51.393  48.544  1.00  0.00     0.019 A 
HETATM   17  C   UNL     1      19.855  51.723  49.103  1.00  0.00     0.038 A 
HETATM   18  C   UNL     1      19.069  50.733  49.696  1.00  0.00     0.068 A 
HETATM   19  C   UNL     1      19.557  49.426  49.781  1.00  0.00     0.038 A 
HETATM   20  C   UNL     1      20.803  49.092  49.242  1.00  0.00     0.019 A 
BRANCH  18  21
HETATM   21  O   UNL     1      17.816  50.913  50.217  1.00  0.00    -0.351 OA
BRANCH  21  22
HETATM   22  C   UNL     1      17.159  52.144  49.902  1.00  0.00     0.179 C 
BRANCH  22  23
HETATM   23  C   UNL     1      15.728  51.844  49.431  1.00  0.00     0.002 C 
HETATM   24  C   UNL     1      14.807  53.023  49.742  1.00  0.00     0.011 C 
HETATM   25  C   UNL     1      15.692  51.527  47.934  1.00  0.00     0.011 C 
ENDBRANCH  22  23
ENDBRANCH  21  22
ENDBRANCH  18  21
ENDBRANCH  12  15
ENDBRANCH   9  11
ENDBRANCH   7   9
ENDBRANCH   5   7
BRANCH   1  26
HETATM   26  C   UNL     1      26.916  45.191  53.423  1.00  0.00     0.183 A 
HETATM   27  O   UNL     1      27.967  44.314  53.371  1.00  0.00    -0.288 OA
HETATM   28  C   UNL     1      28.682  44.583  54.503  1.00  0.00     0.112 A 
HETATM   29  C   UNL     1      28.030  45.603  55.177  1.00  0.00     0.094 A 
HETATM   30  C   UNL     1      29.864  43.970  54.919  1.00  0.00    -0.025 A 
HETATM   31  C   UNL     1      28.592  46.105  56.358  1.00  0.00     0.041 A 
HETATM   32  N   UNL     1      26.884  45.956  54.503  1.00  0.00    -0.221 NA
HETATM   33  C   UNL     1      29.800  45.550  56.816  1.00  0.00    -0.059 A 
HETATM   34  C   UNL     1      30.471  46.105  58.041  1.00  0.00     0.048 C 
HETATM   35  C   UNL     1      30.414  44.504  56.101  1.00  0.00     0.016 A 
HETATM   36  C   UNL     1      30.541  42.862  54.180  1.00  0.00     0.051 C 
ENDBRANCH   1  26
BRANCH   2  37
HETATM   37  O   UNL     1      25.917  42.745  52.234  1.00  0.00    -0.360 OA
HETATM   38  H   UNL     1      25.376  42.052  51.798  1.00  0.00     0.217 HD
ENDBRANCH   2  37
TORSDOF 9
ENDMDL
MODEL 2
REMARK VINA RESULT:     -10.5      1.062      1.677
REMARK  9 active torsions:
REMARK  status: ('A' for Active; 'I' for Inactive)
REMARK    1  A    between atoms: C_7  and  C_8 
REMARK    2  A    between atoms: C_9  and  O_10 
REMARK    3  A    between atoms: C_13  and  N_14 
REMARK    4  A    between atoms: N_14  and  C_15 
REMARK    5  A    between atoms: C_15  and  N_16 
REMARK       I    between atoms: N_16  and  C_17 
REMARK    6  A    between atoms: C_17  and  C_18 
REMARK    7  A    between atoms: C_21  and  O_22 
REMARK    8  A    between atoms: O_22  and  C_23 
REMARK    9  A    between atoms: C_23  and  C_24 
ROOT
HETATM    1  C   UNL     1      25.913  44.141  51.536  1.00  0.00     0.052 A 
HETATM    2  C   UNL     1      25.387  42.935  51.052  1.00  0.00     0.080 A 
HETATM    3  C   UNL     1      24.301  42.926  50.180  1.00  0.00     0.040 A 
HETATM    4  C   UNL     1      23.700  44.129  49.798  1.00  0.00     0.032 A 
HETATM    5  C   UNL     1      24.204  45.347  50.262  1.00  0.00     0.035 A 
HETATM    6  C   UNL     1      25.306  45.343  51.127  1.00  0.00     0.048 A 
ENDROOT
BRANCH   5   7
HETATM    7  N   UNL     1      23.500  46.526  49.925  1.00  0.00    -0.337 N 
HETATM    8  H   UNL     1      22.539  46.576  50.247  1.00  0.00     0.168 HD
BRANCH   7   9
HETATM    9  C   UNL     1      23.939  47.587  49.171  1.00  0.00     0.157 C 
HETATM   10  S   UNL     1      25.387  48.407  49.364  1.00  0.00    -0.047 SA
BRANCH   9  11
HETATM   11  N   UNL     1      23.110  48.000  48.150  1.00  0.00    -0.201 NA
HETATM   12  C   UNL     1      22.753  49.322  47.999  1.00  0.00     0.237 C 
HETATM   13  O   UNL     1      23.357  50.083  47.255  1.00  0.00    -0.274 OA
HETATM   14  H   UNL     1      23.529  47.652  47.294  1.00  0.00     0.139 HD
BRANCH  12  15
HETATM   15  C   UNL     1      21.523  49.768  48.695  1.00  0.00     0.026 A 
HETATM   16  C   UNL     1      21.219  51.133  48.730  1.00  0.00     0.019 A 
HETATM   17  C   UNL     1      20.008  51.568  49.277  1.00  0.00     0.038 A 
HETATM   18  C   UNL     1      19.083  50.640  49.760  1.00  0.00     0.068 A 
HETATM   19  C   UNL     1      19.404  49.280  49.748  1.00  0.00     0.038 A 
HETATM   20  C   UNL     1      20.621  48.838  49.220  1.00  0.00     0.019 A 
BRANCH  18  21
HETATM   21  O   UNL     1      17.842  50.932  50.256  1.00  0.00    -0.351 OA
BRANCH  21  22
HETATM   22  C   UNL     1      17.240  52.149  49.807  1.00  0.00     0.179 C 
BRANCH  22  23
HETATM   23  C   UNL     1      15.783  51.870  49.402  1.00  0.00     0.002 C 
HETATM   24  C   UNL     1      14.892  53.055  49.769  1.00  0.00     0.011 C 
HETATM   25  C   UNL     1      15.672  51.569  47.905  1.00  0.00     0.011 C 
ENDBRANCH  22  23
ENDBRANCH  21  22
ENDBRANCH  18  21
ENDBRANCH  12  15
ENDBRANCH   9  11
ENDBRANCH   7   9
ENDBRANCH   5   7
BRANCH   1  26
HETATM   26  C   UNL     1      27.018  44.149  52.489  1.00  0.00     0.183 A 
HETATM   27  O   UNL     1      27.083  45.199  53.365  1.00  0.00    -0.288 OA
HETATM   28  C   UNL     1      28.165  44.914  54.148  1.00  0.00     0.112 A 
HETATM   29  C   UNL     1      28.695  43.713  53.707  1.00  0.00     0.094 A 
HETATM   30  C   UNL     1      28.657  45.669  55.212  1.00  0.00    -0.025 A 
HETATM   31  C   UNL     1      29.794  43.167  54.381  1.00  0.00     0.041 A 
HETATM   32  N   UNL     1      27.982  43.252  52.624  1.00  0.00    -0.221 NA
HETATM   33  C   UNL     1      30.321  43.864  55.484  1.00  0.00    -0.059 A 
HETATM   34  C   UNL     1      31.457  43.281  56.276  1.00  0.00     0.048 C 
HETATM   35  C   UNL     1      29.753  45.090  55.881  1.00  0.00     0.016 A 
HETATM   36  C   UNL     1      28.075  46.969  55.660  1.00  0.00     0.051 C 
ENDBRANCH   1  26
BRANCH   2  37
HETATM   37  O   UNL     1      25.885  41.709  51.412  1.00  0.00    -0.360 OA
HETATM   38  H   UNL     1      25.910  41.137  50.615  1.00  0.00     0.217 HD
ENDBRANCH   2  37
TORSDOF 9
ENDMDL
MODEL 3
REMARK VINA RESULT:     -10.4      2.265     11.480
REMARK  9 active torsions:
REMARK  status: ('A' for Active; 'I' for Inactive)
REMARK    1  A    between atoms: C_7  and  C_8 
REMARK    2  A    between atoms: C_9  and  O_10 
REMARK    3  A    between atoms: C_13  and  N_14 
REMARK    4  A    between atoms: N_14  and  C_15 
REMARK    5  A    between atoms: C_15  and  N_16 
REMARK       I    between atoms: N_16  and  C_17 
REMARK    6  A    between atoms: C_17  and  C_18 
REMARK    7  A    between atoms: C_21  and  O_22 
REMARK    8  A    between atoms: O_22  and  C_23 
REMARK    9  A    between atoms: C_23  and  C_24 
ROOT
HETATM    1  C   UNL     1      24.596  48.907  48.933  1.00  0.00     0.052 A 
HETATM    2  C   UNL     1      25.769  49.474  48.415  1.00  0.00     0.080 A 
HETATM    3  C   UNL     1      27.018  48.936  48.717  1.00  0.00     0.040 A 
HETATM    4  C   UNL     1      27.117  47.834  49.571  1.00  0.00     0.032 A 
HETATM    5  C   UNL     1      25.966  47.247  50.100  1.00  0.00     0.035 A 
HETATM    6  C   UNL     1      24.715  47.788  49.777  1.00  0.00     0.048 A 
ENDROOT
BRANCH   5   7
HETATM    7  N   UNL     1      26.127  46.199  51.036  1.00  0.00    -0.337 N 
HETATM    8  H   UNL     1      26.423  46.476  51.966  1.00  0.00     0.168 HD
BRANCH   7   9
HETATM    9  C   UNL     1      25.986  44.849  50.826  1.00  0.00     0.157 C 
HETATM   10  S   UNL     1      24.542  44.003  50.757  1.00  0.00    -0.047 SA
BRANCH   9  11
HETATM   11  N   UNL     1      27.148  44.131  50.641  1.00  0.00    -0.201 NA
HETATM   12  C   UNL     1      27.469  43.056  51.440  1.00  0.00     0.237 C 
HETATM   13  O   UNL     1      27.201  41.903  51.128  1.00  0.00    -0.274 OA
HETATM   14  H   UNL     1      27.149  43.852  49.665  1.00  0.00     0.139 HD
BRANCH  12  15
HETATM   15  C   UNL     1      28.265  43.340  52.657  1.00  0.00     0.026 A 
HETATM   16  C   UNL     1      29.457  42.640  52.868  1.00  0.00     0.019 A 
HETATM   17  C   UNL     1      30.284  42.970  53.947  1.00  0.00     0.038 A 
HETATM   18  C   UNL     1      29.939  44.022  54.797  1.00  0.00     0.068 A 
HETATM   19  C   UNL     1      28.733  44.700  54.599  1.00  0.00     0.038 A 
HETATM   20  C   UNL     1      27.891  44.363  53.534  1.00  0.00     0.019 A 
BRANCH  18  21
HETATM   21  O   UNL     1      30.691  44.485  55.843  1.00  0.00    -0.351 OA
BRANCH  21  22
HETATM   22  C   UNL     1      30.536  45.865  56.185  1.00  0.00     0.179 C 
BRANCH  22  23
HETATM   23  C   UNL     1      30.326  45.986  57.703  1.00  0.00     0.002 C 
HETATM   24  C   UNL     1      28.835  46.039  58.030  1.00  0.00     0.011 C 
HETATM   25  C   UNL     1      30.989  44.825  58.448  1.00  0.00     0.011 C 
ENDBRANCH  22  23
ENDBRANCH  21  22
ENDBRANCH  18  21
ENDBRANCH  12  15
ENDBRANCH   9  11
ENDBRANCH   7   9
ENDBRANCH   5   7
BRANCH   1  26
HETATM   26  C   UNL     1      23.291  49.501  48.658  1.00  0.00     0.183 A 
HETATM   27  O   UNL     1      22.374  48.722  48.006  1.00  0.00    -0.288 OA
HETATM   28  C   UNL     1      21.259  49.508  47.934  1.00  0.00     0.112 A 
HETATM   29  C   UNL     1      21.560  50.715  48.543  1.00  0.00     0.094 A 
HETATM   30  C   UNL     1      20.027  49.175  47.372  1.00  0.00    -0.025 A 
HETATM   31  C   UNL     1      20.561  51.691  48.649  1.00  0.00     0.041 A 
HETATM   32  N   UNL     1      22.869  50.717  48.966  1.00  0.00    -0.221 NA
HETATM   33  C   UNL     1      19.286  51.406  48.128  1.00  0.00    -0.059 A 
HETATM   34  C   UNL     1      18.167  52.398  48.280  1.00  0.00     0.048 C 
HETATM   35  C   UNL     1      19.037  50.168  47.504  1.00  0.00     0.016 A 
HETATM   36  C   UNL     1      19.732  47.870  46.708  1.00  0.00     0.051 C 
ENDBRANCH   1  26
BRANCH   2  37
HETATM   37  O   UNL     1      25.766  50.583  47.608  1.00  0.00    -0.360 OA
HETATM   38  H   UNL     1      25.889  51.377  48.170  1.00  0.00     0.217 HD
ENDBRANCH   2  37
TORSDOF 9
ENDMDL
MODEL 4
REMARK VINA RESULT:     -10.3      2.380     11.326
REMARK  9 active torsions:
REMARK  status: ('A' for Active; 'I' for Inactive)
REMARK    1  A    between atoms: C_7  and  C_8 
REMARK    2  A    between atoms: C_9  and  O_10 
REMARK    3  A    between atoms: C_13  and  N_14 
REMARK    4  A    between atoms: N_14  and  C_15 
REMARK    5  A    between atoms: C_15  and  N_16 
REMARK       I    between atoms: N_16  and  C_17 
REMARK    6  A    between atoms: C_17  and  C_18 
REMARK    7  A    between atoms: C_21  and  O_22 
REMARK    8  A    between atoms: O_22  and  C_23 
REMARK    9  A    between atoms: C_23  and  C_24 
ROOT
HETATM    1  C   UNL     1      23.722  48.884  48.754  1.00  0.00     0.052 A 
HETATM    2  C   UNL     1      24.388  49.917  48.080  1.00  0.00     0.080 A 
HETATM    3  C   UNL     1      25.779  49.989  48.077  1.00  0.00     0.040 A 
HETATM    4  C   UNL     1      26.530  49.040  48.776  1.00  0.00     0.032 A 
HETATM    5  C   UNL     1      25.894  47.997  49.454  1.00  0.00     0.035 A 
HETATM    6  C   UNL     1      24.495  47.928  49.437  1.00  0.00     0.048 A 
ENDROOT
BRANCH   5   7
HETATM    7  N   UNL     1      26.694  47.123  50.226  1.00  0.00    -0.337 N 
HETATM    8  H   UNL     1      27.642  47.435  50.408  1.00  0.00     0.168 HD
BRANCH   7   9
HETATM    9  C   UNL     1      26.364  45.881  50.711  1.00  0.00     0.157 C 
HETATM   10  S   UNL     1      26.887  44.410  50.104  1.00  0.00    -0.047 SA
BRANCH   9  11
HETATM   11  N   UNL     1      25.534  45.852  51.811  1.00  0.00    -0.201 NA
HETATM   12  C   UNL     1      25.643  46.779  52.823  1.00  0.00     0.237 C 
HETATM   13  O   UNL     1      24.961  47.796  52.858  1.00  0.00    -0.274 OA
HETATM   14  H   UNL     1      24.587  45.846  51.444  1.00  0.00     0.139 HD
BRANCH  12  15
HETATM   15  C   UNL     1      26.548  46.441  53.947  1.00  0.00     0.026 A 
HETATM   16  C   UNL     1      26.886  45.102  54.168  1.00  0.00     0.019 A 
HETATM   17  C   UNL     1      27.828  44.768  55.147  1.00  0.00     0.038 A 
HETATM   18  C   UNL     1      28.458  45.772  55.884  1.00  0.00     0.068 A 
HETATM   19  C   UNL     1      28.095  47.107  55.679  1.00  0.00     0.038 A 
HETATM   20  C   UNL     1      27.141  47.447  54.716  1.00  0.00     0.019 A 
BRANCH  18  21
HETATM   21  O   UNL     1      29.438  45.582  56.820  1.00  0.00    -0.351 OA
BRANCH  21  22
HETATM   22  C   UNL     1      30.722  45.181  56.333  1.00  0.00     0.179 C 
BRANCH  22  23
HETATM   23  C   UNL     1      30.825  43.649  56.390  1.00  0.00     0.002 C 
HETATM   24  C   UNL     1      30.870  43.066  54.978  1.00  0.00     0.011 C 
HETATM   25  C   UNL     1      32.057  43.205  57.183  1.00  0.00     0.011 C 
ENDBRANCH  22  23
ENDBRANCH  21  22
ENDBRANCH  18  21
ENDBRANCH  12  15
ENDBRANCH   9  11
ENDBRANCH   7   9
ENDBRANCH   5   7
BRANCH   1  26
HETATM   26  C   UNL     1      22.264  48.837  48.800  1.00  0.00     0.183 A 
HETATM   27  O   UNL     1      21.599  50.034  48.829  1.00  0.00    -0.288 OA
HETATM   28  C   UNL     1      20.280  49.684  48.818  1.00  0.00     0.112 A 
HETATM   29  C   UNL     1      20.215  48.301  48.784  1.00  0.00     0.094 A 
HETATM   30  C   UNL     1      19.180  50.541  48.824  1.00  0.00    -0.025 A 
HETATM   31  C   UNL     1      18.961  47.680  48.716  1.00  0.00     0.041 A 
HETATM   32  N   UNL     1      21.483  47.768  48.813  1.00  0.00    -0.221 NA
HETATM   33  C   UNL     1      17.811  48.490  48.688  1.00  0.00    -0.059 A 
HETATM   34  C   UNL     1      16.450  47.867  48.549  1.00  0.00     0.048 C 
HETATM   35  C   UNL     1      17.932  49.891  48.742  1.00  0.00     0.016 A 
HETATM   36  C   UNL     1      19.276  52.031  48.876  1.00  0.00     0.051 C 
ENDBRANCH   1  26
BRANCH   2  37
HETATM   37  O   UNL     1      23.728  50.915  47.410  1.00  0.00    -0.360 OA
HETATM   38  H   UNL     1      22.778  50.678  47.357  1.00  0.00     0.217 HD
ENDBRANCH   2  37
TORSDOF 9
ENDMDL
MODEL 5
REMARK VINA RESULT:     -10.3      3.075     11.228
REMARK  9 active torsions:
REMARK  status: ('A' for Active; 'I' for Inactive)
REMARK    1  A    between atoms: C_7  and  C_8 
REMARK    2  A    between atoms: C_9  and  O_10 
REMARK    3  A    between atoms: C_13  and  N_14 
REMARK    4  A    between atoms: N_14  and  C_15 
REMARK    5  A    between atoms: C_15  and  N_16 
REMARK       I    between atoms: N_16  and  C_17 
REMARK    6  A    between atoms: C_17  and  C_18 
REMARK    7  A    between atoms: C_21  and  O_22 
REMARK    8  A    between atoms: O_22  and  C_23 
REMARK    9  A    between atoms: C_23  and  C_24 
ROOT
HETATM    1  C   UNL     1      25.086  46.416  50.200  1.00  0.00     0.052 A 
HETATM    2  C   UNL     1      25.599  46.531  51.499  1.00  0.00     0.080 A 
HETATM    3  C   UNL     1      26.499  45.593  51.999  1.00  0.00     0.040 A 
HETATM    4  C   UNL     1      26.880  44.501  51.214  1.00  0.00     0.032 A 
HETATM    5  C   UNL     1      26.387  44.361  49.914  1.00  0.00     0.035 A 
HETATM    6  C   UNL     1      25.494  45.320  49.419  1.00  0.00     0.048 A 
ENDROOT
BRANCH   5   7
HETATM    7  N   UNL     1      26.725  43.188  49.200  1.00  0.00    -0.337 N 
HETATM    8  H   UNL     1      26.778  43.283  48.192  1.00  0.00     0.168 HD
BRANCH   7   9
HETATM    9  C   UNL     1      26.934  41.926  49.699  1.00  0.00     0.157 C 
HETATM   10  S   UNL     1      25.783  40.719  49.855  1.00  0.00    -0.047 SA
BRANCH   9  11
HETATM   11  N   UNL     1      28.221  41.627  50.093  1.00  0.00    -0.201 NA
HETATM   12  C   UNL     1      28.480  40.973  51.278  1.00  0.00     0.237 C 
HETATM   13  O   UNL     1      28.624  39.759  51.339  1.00  0.00    -0.274 OA
HETATM   14  H   UNL     1      28.638  41.121  49.318  1.00  0.00     0.139 HD
BRANCH  12  15
HETATM   15  C   UNL     1      28.694  41.819  52.476  1.00  0.00     0.026 A 
HETATM   16  C   UNL     1      29.927  42.458  52.645  1.00  0.00     0.019 A 
HETATM   17  C   UNL     1      30.115  43.352  53.704  1.00  0.00     0.038 A 
HETATM   18  C   UNL     1      29.063  43.633  54.578  1.00  0.00     0.068 A 
HETATM   19  C   UNL     1      27.842  42.969  54.422  1.00  0.00     0.038 A 
HETATM   20  C   UNL     1      27.653  42.060  53.377  1.00  0.00     0.019 A 
BRANCH  18  21
HETATM   21  O   UNL     1      29.098  44.532  55.608  1.00  0.00    -0.351 OA
BRANCH  21  22
HETATM   22  C   UNL     1      30.392  44.959  56.046  1.00  0.00     0.179 C 
BRANCH  22  23
HETATM   23  C   UNL     1      30.769  44.191  57.322  1.00  0.00     0.002 C 
HETATM   24  C   UNL     1      31.964  43.276  57.059  1.00  0.00     0.011 C 
HETATM   25  C   UNL     1      31.084  45.151  58.473  1.00  0.00     0.011 C 
ENDBRANCH  22  23
ENDBRANCH  21  22
ENDBRANCH  18  21
ENDBRANCH  12  15
ENDBRANCH   9  11
ENDBRANCH   7   9
ENDBRANCH   5   7
BRANCH   1  26
HETATM   26  C   UNL     1      24.104  47.370  49.694  1.00  0.00     0.183 A 
HETATM   27  O   UNL     1      23.152  46.894  48.835  1.00  0.00    -0.288 OA
HETATM   28  C   UNL     1      22.362  47.977  48.576  1.00  0.00     0.112 A 
HETATM   29  C   UNL     1      22.876  49.048  49.289  1.00  0.00     0.094 A 
HETATM   30  C   UNL     1      21.232  48.022  47.761  1.00  0.00    -0.025 A 
HETATM   31  C   UNL     1      22.214  50.281  49.236  1.00  0.00     0.041 A 
HETATM   32  N   UNL     1      24.009  48.662  49.968  1.00  0.00    -0.221 NA
HETATM   33  C   UNL     1      21.049  50.385  48.455  1.00  0.00    -0.059 A 
HETATM   34  C   UNL     1      20.270  51.670  48.424  1.00  0.00     0.048 C 
HETATM   35  C   UNL     1      20.577  49.269  47.737  1.00  0.00     0.016 A 
HETATM   36  C   UNL     1      20.705  46.856  46.990  1.00  0.00     0.051 C 
ENDBRANCH   1  26
BRANCH   2  37
HETATM   37  O   UNL     1      25.243  47.544  52.353  1.00  0.00    -0.360 OA
HETATM   38  H   UNL     1      24.264  47.580  52.401  1.00  0.00     0.217 HD
ENDBRANCH   2  37
TORSDOF 9
ENDMDL
MODEL 6
REMARK VINA RESULT:     -10.2      2.466      3.706
REMARK  9 active torsions:
REMARK  status: ('A' for Active; 'I' for Inactive)
REMARK    1  A    between atoms: C_7  and  C_8 
REMARK    2  A    between atoms: C_9  and  O_10 
REMARK    3  A    between atoms: C_13  and  N_14 
REMARK    4  A    between atoms: N_14  and  C_15 
REMARK    5  A    between atoms: C_15  and  N_16 
REMARK       I    between atoms: N_16  and  C_17 
REMARK    6  A    between atoms: C_17  and  C_18 
REMARK    7  A    between atoms: C_21  and  O_22 
REMARK    8  A    between atoms: O_22  and  C_23 
REMARK    9  A    between atoms: C_23  and  C_24 
ROOT
HETATM    1  C   UNL     1      27.335  42.900  51.522  1.00  0.00     0.052 A 
HETATM    2  C   UNL     1      27.019  41.567  51.225  1.00  0.00     0.080 A 
HETATM    3  C   UNL     1      26.142  41.254  50.190  1.00  0.00     0.040 A 
HETATM    4  C   UNL     1      25.538  42.275  49.450  1.00  0.00     0.032 A 
HETATM    5  C   UNL     1      25.836  43.612  49.722  1.00  0.00     0.035 A 
HETATM    6  C   UNL     1      26.732  43.914  50.756  1.00  0.00     0.048 A 
ENDROOT
BRANCH   5   7
HETATM    7  N   UNL     1      25.124  44.607  49.012  1.00  0.00    -0.337 N 
HETATM    8  H   UNL     1      25.324  44.671  48.019  1.00  0.00     0.168 HD
BRANCH   7   9
HETATM    9  C   UNL     1      24.239  45.531  49.510  1.00  0.00     0.157 C 
HETATM   10  S   UNL     1      24.558  47.150  49.803  1.00  0.00    -0.047 SA
BRANCH   9  11
HETATM   11  N   UNL     1      22.965  45.079  49.780  1.00  0.00    -0.201 NA
HETATM   12  C   UNL     1      22.089  44.746  48.771  1.00  0.00     0.237 C 
HETATM   13  O   UNL     1      21.960  43.598  48.366  1.00  0.00    -0.274 OA
HETATM   14  H   UNL     1      23.077  44.296  50.416  1.00  0.00     0.139 HD
BRANCH  12  15
HETATM   15  C   UNL     1      21.209  45.826  48.263  1.00  0.00     0.026 A 
HETATM   16  C   UNL     1      19.938  45.987  48.824  1.00  0.00     0.019 A 
HETATM   17  C   UNL     1      19.135  47.068  48.445  1.00  0.00     0.038 A 
HETATM   18  C   UNL     1      19.613  48.009  47.531  1.00  0.00     0.068 A 
HETATM   19  C   UNL     1      20.873  47.828  46.953  1.00  0.00     0.038 A 
HETATM   20  C   UNL     1      21.674  46.739  47.312  1.00  0.00     0.019 A 
BRANCH  18  21
HETATM   21  O   UNL     1      18.956  49.140  47.131  1.00  0.00    -0.351 OA
BRANCH  21  22
HETATM   22  C   UNL     1      19.728  50.342  47.062  1.00  0.00     0.179 C 
BRANCH  22  23
HETATM   23  C   UNL     1      19.720  51.024  48.440  1.00  0.00     0.002 C 
HETATM   24  C   UNL     1      21.137  51.095  49.006  1.00  0.00     0.011 C 
HETATM   25  C   UNL     1      19.112  52.426  48.361  1.00  0.00     0.011 C 
ENDBRANCH  22  23
ENDBRANCH  21  22
ENDBRANCH  18  21
ENDBRANCH  12  15
ENDBRANCH   9  11
ENDBRANCH   7   9
ENDBRANCH   5   7
BRANCH   1  26
HETATM   26  C   UNL     1      28.215  43.231  52.639  1.00  0.00     0.183 A 
HETATM   27  O   UNL     1      27.946  44.382  53.328  1.00  0.00    -0.288 OA
HETATM   28  C   UNL     1      28.881  44.402  54.323  1.00  0.00     0.112 A 
HETATM   29  C   UNL     1      29.663  43.266  54.185  1.00  0.00     0.094 A 
HETATM   30  C   UNL     1      29.033  45.367  55.319  1.00  0.00    -0.025 A 
HETATM   31  C   UNL     1      30.675  43.019  55.120  1.00  0.00     0.041 A 
HETATM   32  N   UNL     1      29.256  42.546  53.085  1.00  0.00    -0.221 NA
HETATM   33  C   UNL     1      30.861  43.939  56.168  1.00  0.00    -0.059 A 
HETATM   34  C   UNL     1      31.891  43.677  57.231  1.00  0.00     0.048 C 
HETATM   35  C   UNL     1      30.049  45.086  56.254  1.00  0.00     0.016 A 
HETATM   36  C   UNL     1      28.186  46.591  55.439  1.00  0.00     0.051 C 
ENDBRANCH   1  26
BRANCH   2  37
HETATM   37  O   UNL     1      27.528  40.507  51.929  1.00  0.00    -0.360 OA
HETATM   38  H   UNL     1      28.499  40.478  51.791  1.00  0.00     0.217 HD
ENDBRANCH   2  37
TORSDOF 9
ENDMDL
MODEL 7
REMARK VINA RESULT:     -10.0      2.332     11.216
REMARK  9 active torsions:
REMARK  status: ('A' for Active; 'I' for Inactive)
REMARK    1  A    between atoms: C_7  and  C_8 
REMARK    2  A    between atoms: C_9  and  O_10 
REMARK    3  A    between atoms: C_13  and  N_14 
REMARK    4  A    between atoms: N_14  and  C_15 
REMARK    5  A    between atoms: C_15  and  N_16 
REMARK       I    between atoms: N_16  and  C_17 
REMARK    6  A    between atoms: C_17  and  C_18 
REMARK    7  A    between atoms: C_21  and  O_22 
REMARK    8  A    between atoms: O_22  and  C_23 
REMARK    9  A    between atoms: C_23  and  C_24 
ROOT
HETATM    1  C   UNL     1      24.415  47.977  49.524  1.00  0.00     0.052 A 
HETATM    2  C   UNL     1      25.623  48.620  49.220  1.00  0.00     0.080 A 
HETATM    3  C   UNL     1      26.840  47.954  49.350  1.00  0.00     0.040 A 
HETATM    4  C   UNL     1      26.871  46.638  49.818  1.00  0.00     0.032 A 
HETATM    5  C   UNL     1      25.683  45.971  50.126  1.00  0.00     0.035 A 
HETATM    6  C   UNL     1      24.465  46.646  49.977  1.00  0.00     0.048 A 
ENDROOT
BRANCH   5   7
HETATM    7  N   UNL     1      25.776  44.677  50.689  1.00  0.00    -0.337 N 
HETATM    8  H   UNL     1      26.715  44.320  50.827  1.00  0.00     0.168 HD
BRANCH   7   9
HETATM    9  C   UNL     1      24.752  43.823  51.019  1.00  0.00     0.157 C 
HETATM   10  S   UNL     1      23.471  43.385  50.032  1.00  0.00    -0.047 SA
BRANCH   9  11
HETATM   11  N   UNL     1      24.798  43.266  52.279  1.00  0.00    -0.201 NA
HETATM   12  C   UNL     1      25.191  43.997  53.378  1.00  0.00     0.237 C 
HETATM   13  O   UNL     1      24.389  44.560  54.112  1.00  0.00    -0.274 OA
HETATM   14  H   UNL     1      23.879  42.864  52.438  1.00  0.00     0.139 HD
BRANCH  12  15
HETATM   15  C   UNL     1      26.635  43.981  53.712  1.00  0.00     0.026 A 
HETATM   16  C   UNL     1      27.292  45.194  53.940  1.00  0.00     0.019 A 
HETATM   17  C   UNL     1      28.624  45.201  54.370  1.00  0.00     0.038 A 
HETATM   18  C   UNL     1      29.290  43.997  54.603  1.00  0.00     0.068 A 
HETATM   19  C   UNL     1      28.637  42.788  54.346  1.00  0.00     0.038 A 
HETATM   20  C   UNL     1      27.313  42.773  53.898  1.00  0.00     0.019 A 
BRANCH  18  21
HETATM   21  O   UNL     1      30.564  43.869  55.085  1.00  0.00    -0.351 OA
BRANCH  21  22
HETATM   22  C   UNL     1      31.004  44.864  56.013  1.00  0.00     0.179 C 
BRANCH  22  23
HETATM   23  C   UNL     1      31.648  44.172  57.225  1.00  0.00     0.002 C 
HETATM   24  C   UNL     1      31.190  44.836  58.523  1.00  0.00     0.011 C 
HETATM   25  C   UNL     1      31.315  42.678  57.251  1.00  0.00     0.011 C 
ENDBRANCH  22  23
ENDBRANCH  21  22
ENDBRANCH  18  21
ENDBRANCH  12  15
ENDBRANCH   9  11
ENDBRANCH   7   9
ENDBRANCH   5   7
BRANCH   1  26
HETATM   26  C   UNL     1      23.144  48.690  49.436  1.00  0.00     0.183 A 
HETATM   27  O   UNL     1      22.032  47.953  49.133  1.00  0.00    -0.288 OA
HETATM   28  C   UNL     1      21.011  48.858  49.169  1.00  0.00     0.112 A 
HETATM   29  C   UNL     1      21.556  50.090  49.491  1.00  0.00     0.094 A 
HETATM   30  C   UNL     1      19.657  48.612  48.944  1.00  0.00    -0.025 A 
HETATM   31  C   UNL     1      20.705  51.192  49.642  1.00  0.00     0.041 A 
HETATM   32  N   UNL     1      22.921  49.982  49.620  1.00  0.00    -0.221 NA
HETATM   33  C   UNL     1      19.323  51.005  49.457  1.00  0.00    -0.059 A 
HETATM   34  C   UNL     1      18.368  52.144  49.676  1.00  0.00     0.048 C 
HETATM   35  C   UNL     1      18.822  49.734  49.116  1.00  0.00     0.016 A 
HETATM   36  C   UNL     1      19.094  47.275  48.584  1.00  0.00     0.051 C 
ENDBRANCH   1  26
BRANCH   2  37
HETATM   37  O   UNL     1      25.688  49.924  48.801  1.00  0.00    -0.360 OA
HETATM   38  H   UNL     1      25.273  49.986  47.914  1.00  0.00     0.217 HD
ENDBRANCH   2  37
TORSDOF 9
ENDMDL
MODEL 8
REMARK VINA RESULT:      -9.8      1.949      2.939
REMARK  9 active torsions:
REMARK  status: ('A' for Active; 'I' for Inactive)
REMARK    1  A    between atoms: C_7  and  C_8 
REMARK    2  A    between atoms: C_9  and  O_10 
REMARK    3  A    between atoms: C_13  and  N_14 
REMARK    4  A    between atoms: N_14  and  C_15 
REMARK    5  A    between atoms: C_15  and  N_16 
REMARK       I    between atoms: N_16  and  C_17 
REMARK    6  A    between atoms: C_17  and  C_18 
REMARK    7  A    between atoms: C_21  and  O_22 
REMARK    8  A    between atoms: O_22  and  C_23 
REMARK    9  A    between atoms: C_23  and  C_24 
ROOT
HETATM    1  C   UNL     1      25.120  45.711  50.582  1.00  0.00     0.052 A 
HETATM    2  C   UNL     1      24.512  44.735  49.779  1.00  0.00     0.080 A 
HETATM    3  C   UNL     1      23.486  45.070  48.898  1.00  0.00     0.040 A 
HETATM    4  C   UNL     1      23.029  46.388  48.826  1.00  0.00     0.032 A 
HETATM    5  C   UNL     1      23.617  47.383  49.611  1.00  0.00     0.035 A 
HETATM    6  C   UNL     1      24.657  47.036  50.482  1.00  0.00     0.048 A 
ENDROOT
BRANCH   5   7
HETATM    7  N   UNL     1      23.051  48.678  49.573  1.00  0.00    -0.337 N 
HETATM    8  H   UNL     1      22.104  48.759  49.928  1.00  0.00     0.168 HD
BRANCH   7   9
HETATM    9  C   UNL     1      23.604  49.828  49.064  1.00  0.00     0.157 C 
HETATM   10  S   UNL     1      24.928  49.920  48.042  1.00  0.00    -0.047 SA
BRANCH   9  11
HETATM   11  N   UNL     1      22.998  51.013  49.422  1.00  0.00    -0.201 NA
HETATM   12  C   UNL     1      21.924  51.043  50.284  1.00  0.00     0.237 C 
HETATM   13  O   UNL     1      22.053  51.230  51.487  1.00  0.00    -0.274 OA
HETATM   14  H   UNL     1      23.741  51.611  49.770  1.00  0.00     0.139 HD
BRANCH  12  15
HETATM   15  C   UNL     1      20.575  50.954  49.676  1.00  0.00     0.026 A 
HETATM   16  C   UNL     1      19.586  50.207  50.325  1.00  0.00     0.019 A 
HETATM   17  C   UNL     1      18.276  50.203  49.835  1.00  0.00     0.038 A 
HETATM   18  C   UNL     1      17.943  50.970  48.717  1.00  0.00     0.068 A 
HETATM   19  C   UNL     1      18.942  51.691  48.056  1.00  0.00     0.038 A 
HETATM   20  C   UNL     1      20.258  51.686  48.528  1.00  0.00     0.019 A 
BRANCH  18  21
HETATM   21  O   UNL     1      16.691  51.101  48.181  1.00  0.00    -0.351 OA
BRANCH  21  22
HETATM   22  C   UNL     1      16.390  50.290  47.043  1.00  0.00     0.179 C 
BRANCH  22  23
HETATM   23  C   UNL     1      15.370  49.214  47.447  1.00  0.00     0.002 C 
HETATM   24  C   UNL     1      14.446  48.890  46.274  1.00  0.00     0.011 C 
HETATM   25  C   UNL     1      16.070  47.943  47.935  1.00  0.00     0.011 C 
ENDBRANCH  22  23
ENDBRANCH  21  22
ENDBRANCH  18  21
ENDBRANCH  12  15
ENDBRANCH   9  11
ENDBRANCH   7   9
ENDBRANCH   5   7
BRANCH   1  26
HETATM   26  C   UNL     1      26.159  45.351  51.541  1.00  0.00     0.183 A 
HETATM   27  O   UNL     1      26.293  46.147  52.647  1.00  0.00    -0.288 OA
HETATM   28  C   UNL     1      27.285  45.550  53.370  1.00  0.00     0.112 A 
HETATM   29  C   UNL     1      27.698  44.430  52.667  1.00  0.00     0.094 A 
HETATM   30  C   UNL     1      27.797  45.962  54.600  1.00  0.00    -0.025 A 
HETATM   31  C   UNL     1      28.684  43.604  53.222  1.00  0.00     0.041 A 
HETATM   32  N   UNL     1      27.003  44.333  51.484  1.00  0.00    -0.221 NA
HETATM   33  C   UNL     1      29.221  43.947  54.476  1.00  0.00    -0.059 A 
HETATM   34  C   UNL     1      30.232  43.053  55.137  1.00  0.00     0.048 C 
HETATM   35  C   UNL     1      28.777  45.106  55.141  1.00  0.00     0.016 A 
HETATM   36  C   UNL     1      27.344  47.182  55.332  1.00  0.00     0.051 C 
ENDBRANCH   1  26
BRANCH   2  37
HETATM   37  O   UNL     1      24.867  43.411  49.821  1.00  0.00    -0.360 OA
HETATM   38  H   UNL     1      25.826  43.340  49.627  1.00  0.00     0.217 HD
ENDBRANCH   2  37
TORSDOF 9
ENDMDL
MODEL 9
REMARK VINA RESULT:      -9.5      2.920      3.913
REMARK  9 active torsions:
REMARK  status: ('A' for Active; 'I' for Inactive)
REMARK    1  A    between atoms: C_7  and  C_8 
REMARK    2  A    between atoms: C_9  and  O_10 
REMARK    3  A    between atoms: C_13  and  N_14 
REMARK    4  A    between atoms: N_14  and  C_15 
REMARK    5  A    between atoms: C_15  and  N_16 
REMARK       I    between atoms: N_16  and  C_17 
REMARK    6  A    between atoms: C_17  and  C_18 
REMARK    7  A    between atoms: C_21  and  O_22 
REMARK    8  A    between atoms: O_22  and  C_23 
REMARK    9  A    between atoms: C_23  and  C_24 
ROOT
HETATM    1  C   UNL     1      25.845  45.363  51.370  1.00  0.00     0.052 A 
HETATM    2  C   UNL     1      25.358  46.676  51.435  1.00  0.00     0.080 A 
HETATM    3  C   UNL     1      24.448  47.149  50.492  1.00  0.00     0.040 A 
HETATM    4  C   UNL     1      24.030  46.323  49.446  1.00  0.00     0.032 A 
HETATM    5  C   UNL     1      24.496  45.008  49.357  1.00  0.00     0.035 A 
HETATM    6  C   UNL     1      25.399  44.540  50.319  1.00  0.00     0.048 A 
ENDROOT
BRANCH   5   7
HETATM    7  N   UNL     1      24.120  44.247  48.226  1.00  0.00    -0.337 N 
HETATM    8  H   UNL     1      24.327  44.663  47.324  1.00  0.00     0.168 HD
BRANCH   7   9
HETATM    9  C   UNL     1      23.460  43.043  48.199  1.00  0.00     0.157 C 
HETATM   10  S   UNL     1      24.146  41.533  48.436  1.00  0.00    -0.047 SA
BRANCH   9  11
HETATM   11  N   UNL     1      22.102  43.092  47.968  1.00  0.00    -0.201 NA
HETATM   12  C   UNL     1      21.557  43.948  47.038  1.00  0.00     0.237 C 
HETATM   13  O   UNL     1      21.317  43.602  45.888  1.00  0.00    -0.274 OA
HETATM   14  H   UNL     1      21.820  42.137  47.770  1.00  0.00     0.139 HD
BRANCH  12  15
HETATM   15  C   UNL     1      21.159  45.293  47.517  1.00  0.00     0.026 A 
HETATM   16  C   UNL     1      21.647  46.423  46.852  1.00  0.00     0.019 A 
HETATM   17  C   UNL     1      21.195  47.697  47.211  1.00  0.00     0.038 A 
HETATM   18  C   UNL     1      20.231  47.844  48.210  1.00  0.00     0.068 A 
HETATM   19  C   UNL     1      19.769  46.713  48.890  1.00  0.00     0.038 A 
HETATM   20  C   UNL     1      20.229  45.438  48.551  1.00  0.00     0.019 A 
BRANCH  18  21
HETATM   21  O   UNL     1      19.663  49.023  48.606  1.00  0.00    -0.351 OA
BRANCH  21  22
HETATM   22  C   UNL     1      20.085  49.550  49.867  1.00  0.00     0.179 C 
BRANCH  22  23
HETATM   23  C   UNL     1      20.200  51.079  49.760  1.00  0.00     0.002 C 
HETATM   24  C   UNL     1      20.850  51.473  48.435  1.00  0.00     0.011 C 
HETATM   25  C   UNL     1      18.829  51.748  49.895  1.00  0.00     0.011 C 
ENDBRANCH  22  23
ENDBRANCH  21  22
ENDBRANCH  18  21
ENDBRANCH  12  15
ENDBRANCH   9  11
ENDBRANCH   7   9
ENDBRANCH   5   7
BRANCH   1  26
HETATM   26  C   UNL     1      26.837  44.883  52.327  1.00  0.00     0.183 A 
HETATM   27  O   UNL     1      27.363  43.638  52.112  1.00  0.00    -0.288 OA
HETATM   28  C   UNL     1      28.277  43.484  53.115  1.00  0.00     0.112 A 
HETATM   29  C   UNL     1      28.256  44.638  53.880  1.00  0.00     0.094 A 
HETATM   30  C   UNL     1      29.105  42.384  53.340  1.00  0.00    -0.025 A 
HETATM   31  C   UNL     1      29.146  44.758  54.954  1.00  0.00     0.041 A 
HETATM   32  N   UNL     1      27.307  45.508  53.394  1.00  0.00    -0.221 NA
HETATM   33  C   UNL     1      30.030  43.696  55.217  1.00  0.00    -0.059 A 
HETATM   34  C   UNL     1      31.046  43.811  56.318  1.00  0.00     0.048 C 
HETATM   35  C   UNL     1      29.999  42.537  54.418  1.00  0.00     0.016 A 
HETATM   36  C   UNL     1      29.099  41.144  52.508  1.00  0.00     0.051 C 
ENDBRANCH   1  26
BRANCH   2  37
HETATM   37  O   UNL     1      25.751  47.568  52.399  1.00  0.00    -0.360 OA
HETATM   38  H   UNL     1      25.135  48.331  52.386  1.00  0.00     0.217 HD
ENDBRANCH   2  37
TORSDOF 9
ENDMDL
MODEL 10
REMARK VINA RESULT:      -9.4      2.778      4.645
REMARK  9 active torsions:
REMARK  status: ('A' for Active; 'I' for Inactive)
REMARK    1  A    between atoms: C_7  and  C_8 
REMARK    2  A    between atoms: C_9  and  O_10 
REMARK    3  A    between atoms: C_13  and  N_14 
REMARK    4  A    between atoms: N_14  and  C_15 
REMARK    5  A    between atoms: C_15  and  N_16 
REMARK       I    between atoms: N_16  and  C_17 
REMARK    6  A    between atoms: C_17  and  C_18 
REMARK    7  A    between atoms: C_21  and  O_22 
REMARK    8  A    between atoms: O_22  and  C_23 
REMARK    9  A    between atoms: C_23  and  C_24 
ROOT
HETATM    1  C   UNL     1      25.214  48.300  49.606  1.00  0.00     0.052 A 
HETATM    2  C   UNL     1      26.061  49.048  48.778  1.00  0.00     0.080 A 
HETATM    3  C   UNL     1      25.545  49.981  47.881  1.00  0.00     0.040 A 
HETATM    4  C   UNL     1      24.163  50.159  47.775  1.00  0.00     0.032 A 
HETATM    5  C   UNL     1      23.293  49.429  48.590  1.00  0.00     0.035 A 
HETATM    6  C   UNL     1      23.826  48.506  49.498  1.00  0.00     0.048 A 
ENDROOT
BRANCH   5   7
HETATM    7  N   UNL     1      21.903  49.576  48.374  1.00  0.00    -0.337 N 
HETATM    8  H   UNL     1      21.636  50.167  47.594  1.00  0.00     0.168 HD
BRANCH   7   9
HETATM    9  C   UNL     1      20.873  49.061  49.122  1.00  0.00     0.157 C 
HETATM   10  S   UNL     1      20.220  47.525  48.984  1.00  0.00    -0.047 SA
BRANCH   9  11
HETATM   11  N   UNL     1      20.341  49.889  50.088  1.00  0.00    -0.201 NA
HETATM   12  C   UNL     1      19.040  49.756  50.517  1.00  0.00     0.237 C 
HETATM   13  O   UNL     1      18.739  49.102  51.507  1.00  0.00    -0.274 OA
HETATM   14  H   UNL     1      20.976  49.837  50.878  1.00  0.00     0.139 HD
BRANCH  12  15
HETATM   15  C   UNL     1      18.011  50.539  49.791  1.00  0.00     0.026 A 
HETATM   16  C   UNL     1      17.980  51.928  49.948  1.00  0.00     0.019 A 
HETATM   17  C   UNL     1      17.096  52.701  49.187  1.00  0.00     0.038 A 
HETATM   18  C   UNL     1      16.266  52.091  48.245  1.00  0.00     0.068 A 
HETATM   19  C   UNL     1      16.281  50.699  48.113  1.00  0.00     0.038 A 
HETATM   20  C   UNL     1      17.148  49.918  48.883  1.00  0.00     0.019 A 
BRANCH  18  21
HETATM   21  O   UNL     1      15.409  52.737  47.397  1.00  0.00    -0.351 OA
BRANCH  21  22
HETATM   22  C   UNL     1      15.063  52.054  46.188  1.00  0.00     0.179 C 
BRANCH  22  23
HETATM   23  C   UNL     1      15.351  52.973  44.991  1.00  0.00     0.002 C 
HETATM   24  C   UNL     1      14.725  54.349  45.213  1.00  0.00     0.011 C 
HETATM   25  C   UNL     1      16.857  53.112  44.749  1.00  0.00     0.011 C 
ENDBRANCH  22  23
ENDBRANCH  21  22
ENDBRANCH  18  21
ENDBRANCH  12  15
ENDBRANCH   9  11
ENDBRANCH   7   9
ENDBRANCH   5   7
BRANCH   1  26
HETATM   26  C   UNL     1      25.751  47.287  50.509  1.00  0.00     0.183 A 
HETATM   27  O   UNL     1      25.840  47.614  51.836  1.00  0.00    -0.288 OA
HETATM   28  C   UNL     1      26.319  46.482  52.428  1.00  0.00     0.112 A 
HETATM   29  C   UNL     1      26.496  45.533  51.434  1.00  0.00     0.094 A 
HETATM   30  C   UNL     1      26.577  46.284  53.784  1.00  0.00    -0.025 A 
HETATM   31  C   UNL     1      26.936  44.252  51.788  1.00  0.00     0.041 A 
HETATM   32  N   UNL     1      26.169  46.068  50.209  1.00  0.00    -0.221 NA
HETATM   33  C   UNL     1      27.187  43.977  53.144  1.00  0.00    -0.059 A 
HETATM   34  C   UNL     1      27.596  42.597  53.574  1.00  0.00     0.048 C 
HETATM   35  C   UNL     1      27.006  44.983  54.113  1.00  0.00     0.016 A 
HETATM   36  C   UNL     1      26.392  47.328  54.836  1.00  0.00     0.051 C 
ENDBRANCH   1  26
BRANCH   2  37
HETATM   37  O   UNL     1      27.425  48.903  48.782  1.00  0.00    -0.360 OA
HETATM   38  H   UNL     1      27.822  49.711  49.172  1.00  0.00     0.217 HD
ENDBRANCH   2  37
TORSDOF 9
ENDMDL
