MODEL 1
REMARK VINA RESULT:     -10.9      0.000      0.000
REMARK  9 active torsions:
REMARK  status: ('A' for Active; 'I' for Inactive)
REMARK    1  A    between atoms: O_2  and  C_3 
REMARK    2  A    between atoms: C_6  and  C_7 
REMARK    3  A    between atoms: C_8  and  C_9 
REMARK    4  A    between atoms: C_9  and  O_10 
REMARK    5  A    between atoms: O_10  and  C_11 
REMARK    6  A    between atoms: C_14  and  C_15 
REMARK    7  A    between atoms: C_17  and  O_18 
REMARK    8  A    between atoms: N_26  and  C_28 
REMARK    9  A    between atoms: C_28  and  C_29 
ROOT
HETATM    1  C   UNL     1      24.055  45.270  49.835  1.00  0.00     0.243 C 
HETATM    2  N   UNL     1      25.188  44.739  49.048  1.00  0.00    -0.235 NA
HETATM    3  C   UNL     1      26.082  44.108  49.712  1.00  0.00     0.173 C 
HETATM    4  C   UNL     1      26.103  43.946  51.145  1.00  0.00     0.057 A 
HETATM    5  C   UNL     1      25.169  44.654  51.860  1.00  0.00     0.087 A 
HETATM    6  S   UNL     1      25.306  44.447  53.535  1.00  0.00    -0.074 SA
HETATM    7  C   UNL     1      26.633  43.403  53.339  1.00  0.00     0.018 A 
HETATM    8  C   UNL     1      26.961  43.190  52.009  1.00  0.00    -0.024 A 
HETATM    9  C   UNL     1      28.115  42.313  51.620  1.00  0.00     0.068 C 
HETATM   10  C   UNL     1      28.661  41.502  52.817  1.00  0.00     0.240 C 
HETATM   11  N   UNL     1      28.729  42.327  54.098  1.00  0.00    -0.063 N 
HETATM   12  H   UNL     1      29.037  41.706  54.854  1.00  0.00     0.280 HD
HETATM   13  C   UNL     1      27.337  42.799  54.500  1.00  0.00     0.282 C 
HETATM   14  N   UNL     1      24.269  45.449  51.262  1.00  0.00    -0.357 N 
HETATM   15  H   UNL     1      23.494  45.856  51.777  1.00  0.00     0.162 HD
ENDROOT
BRANCH   1  16
HETATM   16  C   UNL     1      23.553  46.602  49.297  1.00  0.00    -0.014 A 
HETATM   17  C   UNL     1      22.361  46.646  48.550  1.00  0.00     0.014 A 
HETATM   18  C   UNL     1      21.801  47.866  48.162  1.00  0.00     0.038 A 
HETATM   19  C   UNL     1      22.439  49.052  48.509  1.00  0.00     0.079 A 
HETATM   20  C   UNL     1      23.634  49.031  49.230  1.00  0.00     0.038 A 
HETATM   21  C   UNL     1      24.185  47.810  49.626  1.00  0.00     0.014 A 
BRANCH  19  22
HETATM   22  O   UNL     1      21.893  50.338  48.290  1.00  0.00    -0.276 OA
BRANCH  22  23
HETATM   23  C   UNL     1      21.064  51.010  49.178  1.00  0.00     0.288 C 
HETATM   24  O   UNL     1      21.220  51.147  50.381  1.00  0.00    -0.260 OA
BRANCH  23  25
HETATM   25  C   UNL     1      19.949  51.658  48.449  1.00  0.00     0.083 C 
HETATM   26  C   UNL     1      18.701  51.167  48.393  1.00  0.00     0.017 C 
BRANCH  26  27
HETATM   27  C   UNL     1      17.642  51.771  47.583  1.00  0.00    -0.036 A 
HETATM   28  C   UNL     1      17.808  51.975  46.207  1.00  0.00     0.014 A 
HETATM   29  C   UNL     1      16.756  52.469  45.426  1.00  0.00     0.037 A 
HETATM   30  C   UNL     1      15.525  52.758  46.013  1.00  0.00     0.068 A 
HETATM   31  C   UNL     1      15.363  52.571  47.387  1.00  0.00     0.037 A 
HETATM   32  C   UNL     1      16.409  52.071  48.169  1.00  0.00     0.014 A 
BRANCH  30  33
HETATM   33  O   UNL     1      14.415  53.224  45.363  1.00  0.00    -0.356 OA
HETATM   34  C   UNL     1      13.666  54.237  46.025  1.00  0.00     0.210 C 
ENDBRANCH  30  33
ENDBRANCH  26  27
ENDBRANCH  23  25
ENDBRANCH  22  23
ENDBRANCH  19  22
ENDBRANCH   1  16
BRANCH   3  35
HETATM   35  O   UNL     1      27.108  43.560  49.037  1.00  0.00    -0.344 OA
HETATM   36  H   UNL     1      27.295  44.158  48.291  1.00  0.00     0.219 HD
ENDBRANCH   3  35
BRANCH  11  37
HETATM   37  C   UNL     1      29.760  43.432  54.027  1.00  0.00     0.273 C 
BRANCH  37  38
HETATM   38  C   UNL     1      30.176  43.966  55.371  1.00  0.00    -0.033 A 
HETATM   39  C   UNL     1      29.698  45.199  55.839  1.00  0.00     0.009 A 
HETATM   40  C   UNL     1      30.119  45.693  57.075  1.00  0.00     0.001 A 
HETATM   41  C   UNL     1      31.014  44.962  57.854  1.00  0.00     0.000 A 
HETATM   42  C   UNL     1      31.489  43.734  57.403  1.00  0.00     0.001 A 
HETATM   43  C   UNL     1      31.073  43.236  56.168  1.00  0.00     0.009 A 
ENDBRANCH  37  38
ENDBRANCH  11  37
TORSDOF 9
ENDMDL
MODEL 2
REMARK VINA RESULT:     -10.6      3.304      4.489
REMARK  9 active torsions:
REMARK  status: ('A' for Active; 'I' for Inactive)
REMARK    1  A    between atoms: O_2  and  C_3 
REMARK    2  A    between atoms: C_6  and  C_7 
REMARK    3  A    between atoms: C_8  and  C_9 
REMARK    4  A    between atoms: C_9  and  O_10 
REMARK    5  A    between atoms: O_10  and  C_11 
REMARK    6  A    between atoms: C_14  and  C_15 
REMARK    7  A    between atoms: C_17  and  O_18 
REMARK    8  A    between atoms: N_26  and  C_28 
REMARK    9  A    between atoms: C_28  and  C_29 
ROOT
HETATM    1  C   UNL     1      22.688  48.145  48.538  1.00  0.00     0.243 C 
HETATM    2  N   UNL     1      23.941  48.741  49.046  1.00  0.00    -0.235 NA
HETATM    3  C   UNL     1      24.783  47.921  49.555  1.00  0.00     0.173 C 
HETATM    4  C   UNL     1      24.571  46.506  49.733  1.00  0.00     0.057 A 
HETATM    5  C   UNL     1      23.309  46.033  49.471  1.00  0.00     0.087 A 
HETATM    6  S   UNL     1      23.140  44.373  49.762  1.00  0.00    -0.074 SA
HETATM    7  C   UNL     1      24.762  44.252  50.254  1.00  0.00     0.018 A 
HETATM    8  C   UNL     1      25.442  45.458  50.178  1.00  0.00    -0.024 A 
HETATM    9  C   UNL     1      26.882  45.570  50.586  1.00  0.00     0.068 C 
HETATM   10  C   UNL     1      27.536  44.187  50.803  1.00  0.00     0.240 C 
HETATM   11  N   UNL     1      26.614  43.212  51.527  1.00  0.00    -0.063 N 
HETATM   12  H   UNL     1      27.092  42.306  51.575  1.00  0.00     0.280 HD
HETATM   13  C   UNL     1      25.353  42.965  50.707  1.00  0.00     0.282 C 
HETATM   14  N   UNL     1      22.320  46.838  49.058  1.00  0.00    -0.357 N 
HETATM   15  H   UNL     1      21.433  46.466  48.730  1.00  0.00     0.162 HD
ENDROOT
BRANCH   1  16
HETATM   16  C   UNL     1      21.489  49.056  48.753  1.00  0.00    -0.014 A 
HETATM   17  C   UNL     1      20.272  48.511  49.207  1.00  0.00     0.014 A 
HETATM   18  C   UNL     1      19.197  49.336  49.547  1.00  0.00     0.038 A 
HETATM   19  C   UNL     1      19.328  50.715  49.423  1.00  0.00     0.079 A 
HETATM   20  C   UNL     1      20.517  51.276  48.954  1.00  0.00     0.038 A 
HETATM   21  C   UNL     1      21.594  50.450  48.626  1.00  0.00     0.014 A 
BRANCH  19  22
HETATM   22  O   UNL     1      18.359  51.645  49.867  1.00  0.00    -0.276 OA
BRANCH  22  23
HETATM   23  C   UNL     1      17.288  52.098  49.110  1.00  0.00     0.288 C 
HETATM   24  O   UNL     1      17.038  51.834  47.944  1.00  0.00    -0.260 OA
BRANCH  23  25
HETATM   25  C   UNL     1      16.378  52.914  49.946  1.00  0.00     0.083 C 
HETATM   26  C   UNL     1      15.051  52.991  49.759  1.00  0.00     0.017 C 
BRANCH  26  27
HETATM   27  C   UNL     1      14.186  53.883  50.534  1.00  0.00    -0.036 A 
HETATM   28  C   UNL     1      14.660  54.540  51.677  1.00  0.00     0.014 A 
HETATM   29  C   UNL     1      13.854  55.460  52.357  1.00  0.00     0.037 A 
HETATM   30  C   UNL     1      12.567  55.737  51.898  1.00  0.00     0.068 A 
HETATM   31  C   UNL     1      12.088  55.071  50.768  1.00  0.00     0.037 A 
HETATM   32  C   UNL     1      12.893  54.157  50.081  1.00  0.00     0.014 A 
BRANCH  30  33
HETATM   33  O   UNL     1      11.689  56.625  52.456  1.00  0.00    -0.356 OA
HETATM   34  C   UNL     1      12.231  57.567  53.374  1.00  0.00     0.210 C 
ENDBRANCH  30  33
ENDBRANCH  26  27
ENDBRANCH  23  25
ENDBRANCH  22  23
ENDBRANCH  19  22
ENDBRANCH   1  16
BRANCH   3  35
HETATM   35  O   UNL     1      25.962  48.405  49.985  1.00  0.00    -0.344 OA
HETATM   36  H   UNL     1      25.836  49.364  50.108  1.00  0.00     0.219 HD
ENDBRANCH   3  35
BRANCH  11  37
HETATM   37  C   UNL     1      26.349  43.615  52.962  1.00  0.00     0.273 C 
BRANCH  37  38
HETATM   38  C   UNL     1      27.595  43.775  53.790  1.00  0.00    -0.033 A 
HETATM   39  C   UNL     1      27.874  44.981  54.451  1.00  0.00     0.009 A 
HETATM   40  C   UNL     1      29.051  45.121  55.189  1.00  0.00     0.001 A 
HETATM   41  C   UNL     1      29.953  44.063  55.277  1.00  0.00     0.000 A 
HETATM   42  C   UNL     1      29.683  42.860  54.631  1.00  0.00     0.001 A 
HETATM   43  C   UNL     1      28.511  42.714  53.890  1.00  0.00     0.009 A 
ENDBRANCH  37  38
ENDBRANCH  11  37
TORSDOF 9
ENDMDL
MODEL 3
REMARK VINA RESULT:     -10.6      3.151     13.780
REMARK  9 active torsions:
REMARK  status: ('A' for Active; 'I' for Inactive)
REMARK    1  A    between atoms: O_2  and  C_3 
REMARK    2  A    between atoms: C_6  and  C_7 
REMARK    3  A    between atoms: C_8  and  C_9 
REMARK    4  A    between atoms: C_9  and  O_10 
REMARK    5  A    between atoms: O_10  and  C_11 
REMARK    6  A    between atoms: C_14  and  C_15 
REMARK    7  A    between atoms: C_17  and  O_18 
REMARK    8  A    between atoms: N_26  and  C_28 
REMARK    9  A    between atoms: C_28  and  C_29 
ROOT
HETATM    1  C   UNL     1      22.876  47.436  48.464  1.00  0.00     0.243 C 
HETATM    2  N   UNL     1      21.897  46.992  47.450  1.00  0.00    -0.235 NA
HETATM    3  C   UNL     1      20.971  47.828  47.164  1.00  0.00     0.173 C 
HETATM    4  C   UNL     1      20.773  49.108  47.797  1.00  0.00     0.057 A 
HETATM    5  C   UNL     1      21.553  49.381  48.894  1.00  0.00     0.087 A 
HETATM    6  S   UNL     1      21.212  50.880  49.605  1.00  0.00    -0.074 SA
HETATM    7  C   UNL     1      20.000  51.195  48.455  1.00  0.00     0.018 A 
HETATM    8  C   UNL     1      19.866  50.182  47.519  1.00  0.00    -0.024 A 
HETATM    9  C   UNL     1      18.838  50.258  46.428  1.00  0.00     0.068 C 
HETATM   10  C   UNL     1      18.199  51.661  46.325  1.00  0.00     0.240 C 
HETATM   11  N   UNL     1      17.904  52.270  47.692  1.00  0.00    -0.063 N 
HETATM   12  H   UNL     1      17.545  53.218  47.541  1.00  0.00     0.280 HD
HETATM   13  C   UNL     1      19.195  52.444  48.484  1.00  0.00     0.282 C 
HETATM   14  N   UNL     1      22.464  48.510  49.352  1.00  0.00    -0.357 N 
HETATM   15  H   UNL     1      23.134  48.771  50.071  1.00  0.00     0.162 HD
ENDROOT
BRANCH   1  16
HETATM   16  C   UNL     1      23.348  46.292  49.349  1.00  0.00    -0.014 A 
HETATM   17  C   UNL     1      22.842  44.995  49.140  1.00  0.00     0.014 A 
HETATM   18  C   UNL     1      23.356  43.901  49.841  1.00  0.00     0.038 A 
HETATM   19  C   UNL     1      24.375  44.100  50.767  1.00  0.00     0.079 A 
HETATM   20  C   UNL     1      24.876  45.381  51.006  1.00  0.00     0.038 A 
HETATM   21  C   UNL     1      24.368  46.470  50.296  1.00  0.00     0.014 A 
BRANCH  19  22
HETATM   22  O   UNL     1      25.060  43.054  51.427  1.00  0.00    -0.276 OA
BRANCH  22  23
HETATM   23  C   UNL     1      26.420  42.801  51.314  1.00  0.00     0.288 C 
HETATM   24  O   UNL     1      27.033  42.462  50.314  1.00  0.00    -0.260 OA
BRANCH  23  25
HETATM   25  C   UNL     1      27.104  43.091  52.596  1.00  0.00     0.083 C 
HETATM   26  C   UNL     1      28.211  43.842  52.705  1.00  0.00     0.017 C 
BRANCH  26  27
HETATM   27  C   UNL     1      28.925  44.031  53.969  1.00  0.00    -0.036 A 
HETATM   28  C   UNL     1      29.976  43.183  54.342  1.00  0.00     0.014 A 
HETATM   29  C   UNL     1      30.711  43.427  55.508  1.00  0.00     0.037 A 
HETATM   30  C   UNL     1      30.407  44.526  56.310  1.00  0.00     0.068 A 
HETATM   31  C   UNL     1      29.349  45.363  55.947  1.00  0.00     0.037 A 
HETATM   32  C   UNL     1      28.618  45.127  54.780  1.00  0.00     0.014 A 
BRANCH  30  33
HETATM   33  O   UNL     1      31.057  44.888  57.458  1.00  0.00    -0.356 OA
HETATM   34  C   UNL     1      30.560  46.033  58.140  1.00  0.00     0.210 C 
ENDBRANCH  30  33
ENDBRANCH  26  27
ENDBRANCH  23  25
ENDBRANCH  22  23
ENDBRANCH  19  22
ENDBRANCH   1  16
BRANCH   3  35
HETATM   35  O   UNL     1      20.084  47.493  46.209  1.00  0.00    -0.344 OA
HETATM   36  H   UNL     1      20.535  47.633  45.356  1.00  0.00     0.219 HD
ENDBRANCH   3  35
BRANCH  11  37
HETATM   37  C   UNL     1      16.816  51.530  48.439  1.00  0.00     0.273 C 
BRANCH  37  38
HETATM   38  C   UNL     1      15.684  52.410  48.894  1.00  0.00    -0.033 A 
HETATM   39  C   UNL     1      15.244  52.391  50.227  1.00  0.00     0.009 A 
HETATM   40  C   UNL     1      14.170  53.191  50.625  1.00  0.00     0.001 A 
HETATM   41  C   UNL     1      13.533  54.017  49.701  1.00  0.00     0.000 A 
HETATM   42  C   UNL     1      13.966  54.050  48.379  1.00  0.00     0.001 A 
HETATM   43  C   UNL     1      15.035  53.251  47.975  1.00  0.00     0.009 A 
ENDBRANCH  37  38
ENDBRANCH  11  37
TORSDOF 9
ENDMDL
MODEL 4
REMARK VINA RESULT:     -10.4      2.393      3.711
REMARK  9 active torsions:
REMARK  status: ('A' for Active; 'I' for Inactive)
REMARK    1  A    between atoms: O_2  and  C_3 
REMARK    2  A    between atoms: C_6  and  C_7 
REMARK    3  A    between atoms: C_8  and  C_9 
REMARK    4  A    between atoms: C_9  and  O_10 
REMARK    5  A    between atoms: O_10  and  C_11 
REMARK    6  A    between atoms: C_14  and  C_15 
REMARK    7  A    between atoms: C_17  and  O_18 
REMARK    8  A    between atoms: N_26  and  C_28 
REMARK    9  A    between atoms: C_28  and  C_29 
ROOT
HETATM    1  C   UNL     1      22.942  48.211  48.599  1.00  0.00     0.243 C 
HETATM    2  N   UNL     1      24.225  48.754  49.089  1.00  0.00    -0.235 NA
HETATM    3  C   UNL     1      25.037  47.900  49.591  1.00  0.00     0.173 C 
HETATM    4  C   UNL     1      24.767  46.496  49.777  1.00  0.00     0.057 A 
HETATM    5  C   UNL     1      23.483  46.077  49.532  1.00  0.00     0.087 A 
HETATM    6  S   UNL     1      23.246  44.427  49.831  1.00  0.00    -0.074 SA
HETATM    7  C   UNL     1      24.868  44.238  50.304  1.00  0.00     0.018 A 
HETATM    8  C   UNL     1      25.598  45.413  50.216  1.00  0.00    -0.024 A 
HETATM    9  C   UNL     1      27.046  45.464  50.605  1.00  0.00     0.068 C 
HETATM   10  C   UNL     1      27.643  44.056  50.819  1.00  0.00     0.240 C 
HETATM   11  N   UNL     1      26.689  43.123  51.558  1.00  0.00    -0.063 N 
HETATM   12  H   UNL     1      27.128  42.198  51.604  1.00  0.00     0.280 HD
HETATM   13  C   UNL     1      25.409  42.928  50.754  1.00  0.00     0.282 C 
HETATM   14  N   UNL     1      22.524  46.923  49.128  1.00  0.00    -0.357 N 
HETATM   15  H   UNL     1      21.618  46.588  48.812  1.00  0.00     0.162 HD
ENDROOT
BRANCH   1  16
HETATM   16  C   UNL     1      21.785  49.173  48.825  1.00  0.00    -0.014 A 
HETATM   17  C   UNL     1      20.574  48.693  49.361  1.00  0.00     0.014 A 
HETATM   18  C   UNL     1      19.545  49.571  49.710  1.00  0.00     0.038 A 
HETATM   19  C   UNL     1      19.716  50.937  49.514  1.00  0.00     0.079 A 
HETATM   20  C   UNL     1      20.899  51.433  48.964  1.00  0.00     0.038 A 
HETATM   21  C   UNL     1      21.930  50.555  48.626  1.00  0.00     0.014 A 
BRANCH  19  22
HETATM   22  O   UNL     1      18.801  51.921  49.957  1.00  0.00    -0.276 OA
BRANCH  22  23
HETATM   23  C   UNL     1      17.535  52.125  49.426  1.00  0.00     0.288 C 
HETATM   24  O   UNL     1      16.476  52.184  50.031  1.00  0.00    -0.260 OA
BRANCH  23  25
HETATM   25  C   UNL     1      17.624  52.364  47.967  1.00  0.00     0.083 C 
HETATM   26  C   UNL     1      17.340  51.441  47.035  1.00  0.00     0.017 C 
BRANCH  26  27
HETATM   27  C   UNL     1      17.532  51.670  45.601  1.00  0.00    -0.036 A 
HETATM   28  C   UNL     1      18.231  50.751  44.807  1.00  0.00     0.014 A 
HETATM   29  C   UNL     1      18.330  50.934  43.423  1.00  0.00     0.037 A 
HETATM   30  C   UNL     1      17.726  52.035  42.818  1.00  0.00     0.068 A 
HETATM   31  C   UNL     1      17.044  52.960  43.610  1.00  0.00     0.037 A 
HETATM   32  C   UNL     1      16.936  52.777  44.992  1.00  0.00     0.014 A 
BRANCH  30  33
HETATM   33  O   UNL     1      17.731  52.319  41.479  1.00  0.00    -0.356 OA
HETATM   34  C   UNL     1      18.867  51.886  40.739  1.00  0.00     0.210 C 
ENDBRANCH  30  33
ENDBRANCH  26  27
ENDBRANCH  23  25
ENDBRANCH  22  23
ENDBRANCH  19  22
ENDBRANCH   1  16
BRANCH   3  35
HETATM   35  O   UNL     1      26.241  48.334  50.005  1.00  0.00    -0.344 OA
HETATM   36  H   UNL     1      26.285  49.281  49.775  1.00  0.00     0.219 HD
ENDBRANCH   3  35
BRANCH  11  37
HETATM   37  C   UNL     1      26.459  43.542  52.995  1.00  0.00     0.273 C 
BRANCH  37  38
HETATM   38  C   UNL     1      27.725  43.717  53.788  1.00  0.00    -0.033 A 
HETATM   39  C   UNL     1      28.671  42.684  53.879  1.00  0.00     0.009 A 
HETATM   40  C   UNL     1      29.825  42.853  54.646  1.00  0.00     0.001 A 
HETATM   41  C   UNL     1      30.047  44.051  55.323  1.00  0.00     0.000 A 
HETATM   42  C   UNL     1      29.120  45.085  55.233  1.00  0.00     0.001 A 
HETATM   43  C   UNL     1      27.964  44.921  54.471  1.00  0.00     0.009 A 
ENDBRANCH  37  38
ENDBRANCH  11  37
TORSDOF 9
ENDMDL
MODEL 5
REMARK VINA RESULT:     -10.3      2.996     13.904
REMARK  9 active torsions:
REMARK  status: ('A' for Active; 'I' for Inactive)
REMARK    1  A    between atoms: O_2  and  C_3 
REMARK    2  A    between atoms: C_6  and  C_7 
REMARK    3  A    between atoms: C_8  and  C_9 
REMARK    4  A    between atoms: C_9  and  O_10 
REMARK    5  A    between atoms: O_10  and  C_11 
REMARK    6  A    between atoms: C_14  and  C_15 
REMARK    7  A    between atoms: C_17  and  O_18 
REMARK    8  A    between atoms: N_26  and  C_28 
REMARK    9  A    between atoms: C_28  and  C_29 
ROOT
HETATM    1  C   UNL     1      23.210  48.239  49.949  1.00  0.00     0.243 C 
HETATM    2  N   UNL     1      23.583  49.575  49.438  1.00  0.00    -0.235 NA
HETATM    3  C   UNL     1      22.623  50.280  48.967  1.00  0.00     0.173 C 
HETATM    4  C   UNL     1      21.254  49.849  48.834  1.00  0.00     0.057 A 
HETATM    5  C   UNL     1      20.995  48.526  49.095  1.00  0.00     0.087 A 
HETATM    6  S   UNL     1      19.373  48.099  48.857  1.00  0.00    -0.074 SA
HETATM    7  C   UNL     1      18.982  49.686  48.390  1.00  0.00     0.018 A 
HETATM    8  C   UNL     1      20.067  50.547  48.435  1.00  0.00    -0.024 A 
HETATM    9  C   UNL     1      19.937  51.989  48.042  1.00  0.00     0.068 C 
HETATM   10  C   UNL     1      18.461  52.419  47.880  1.00  0.00     0.240 C 
HETATM   11  N   UNL     1      17.619  51.360  47.176  1.00  0.00    -0.063 N 
HETATM   12  H   UNL     1      16.649  51.689  47.165  1.00  0.00     0.280 HD
HETATM   13  C   UNL     1      17.603  50.070  47.988  1.00  0.00     0.282 C 
HETATM   14  N   UNL     1      21.960  47.673  49.468  1.00  0.00    -0.357 N 
HETATM   15  H   UNL     1      21.744  46.736  49.797  1.00  0.00     0.162 HD
ENDROOT
BRANCH   1  16
HETATM   16  C   UNL     1      24.291  47.200  49.688  1.00  0.00    -0.014 A 
HETATM   17  C   UNL     1      25.644  47.540  49.874  1.00  0.00     0.014 A 
HETATM   18  C   UNL     1      26.648  46.573  49.779  1.00  0.00     0.038 A 
HETATM   19  C   UNL     1      26.305  45.258  49.484  1.00  0.00     0.079 A 
HETATM   20  C   UNL     1      24.971  44.903  49.273  1.00  0.00     0.038 A 
HETATM   21  C   UNL     1      23.969  45.869  49.380  1.00  0.00     0.014 A 
BRANCH  19  22
HETATM   22  O   UNL     1      27.219  44.179  49.500  1.00  0.00    -0.276 OA
BRANCH  22  23
HETATM   23  C   UNL     1      27.281  43.207  50.488  1.00  0.00     0.288 C 
HETATM   24  O   UNL     1      26.850  42.066  50.436  1.00  0.00    -0.260 OA
BRANCH  23  25
HETATM   25  C   UNL     1      28.053  43.705  51.650  1.00  0.00     0.083 C 
HETATM   26  C   UNL     1      27.789  43.379  52.925  1.00  0.00     0.017 C 
BRANCH  26  27
HETATM   27  C   UNL     1      28.502  43.963  54.062  1.00  0.00    -0.036 A 
HETATM   28  C   UNL     1      29.698  43.406  54.533  1.00  0.00     0.014 A 
HETATM   29  C   UNL     1      30.418  44.026  55.562  1.00  0.00     0.037 A 
HETATM   30  C   UNL     1      29.952  45.212  56.126  1.00  0.00     0.068 A 
HETATM   31  C   UNL     1      28.751  45.760  55.668  1.00  0.00     0.037 A 
HETATM   32  C   UNL     1      28.034  45.148  54.636  1.00  0.00     0.014 A 
BRANCH  30  33
HETATM   33  O   UNL     1      30.567  45.926  57.117  1.00  0.00    -0.356 OA
HETATM   34  C   UNL     1      30.659  45.298  58.391  1.00  0.00     0.210 C 
ENDBRANCH  30  33
ENDBRANCH  26  27
ENDBRANCH  23  25
ENDBRANCH  22  23
ENDBRANCH  19  22
ENDBRANCH   1  16
BRANCH   3  35
HETATM   35  O   UNL     1      22.900  51.524  48.537  1.00  0.00    -0.344 OA
HETATM   36  H   UNL     1      23.304  51.991  49.291  1.00  0.00     0.219 HD
ENDBRANCH   3  35
BRANCH  11  37
HETATM   37  C   UNL     1      18.009  51.172  45.726  1.00  0.00     0.273 C 
BRANCH  37  38
HETATM   38  C   UNL     1      17.286  52.090  44.778  1.00  0.00    -0.033 A 
HETATM   39  C   UNL     1      16.274  52.949  45.233  1.00  0.00     0.009 A 
HETATM   40  C   UNL     1      15.592  53.772  44.333  1.00  0.00     0.001 A 
HETATM   41  C   UNL     1      15.916  53.746  42.978  1.00  0.00     0.000 A 
HETATM   42  C   UNL     1      16.923  52.903  42.517  1.00  0.00     0.001 A 
HETATM   43  C   UNL     1      17.606  52.078  43.410  1.00  0.00     0.009 A 
ENDBRANCH  37  38
ENDBRANCH  11  37
TORSDOF 9
ENDMDL
MODEL 6
REMARK VINA RESULT:     -10.0      3.129     13.040
REMARK  9 active torsions:
REMARK  status: ('A' for Active; 'I' for Inactive)
REMARK    1  A    between atoms: O_2  and  C_3 
REMARK    2  A    between atoms: C_6  and  C_7 
REMARK    3  A    between atoms: C_8  and  C_9 
REMARK    4  A    between atoms: C_9  and  O_10 
REMARK    5  A    between atoms: O_10  and  C_11 
REMARK    6  A    between atoms: C_14  and  C_15 
REMARK    7  A    between atoms: C_17  and  O_18 
REMARK    8  A    between atoms: N_26  and  C_28 
REMARK    9  A    between atoms: C_28  and  C_29 
ROOT
HETATM    1  C   UNL     1      23.881  45.060  48.324  1.00  0.00     0.243 C 
HETATM    2  N   UNL     1      22.513  44.802  47.830  1.00  0.00    -0.235 NA
HETATM    3  C   UNL     1      21.761  45.830  47.705  1.00  0.00     0.173 C 
HETATM    4  C   UNL     1      22.117  47.178  48.073  1.00  0.00     0.057 A 
HETATM    5  C   UNL     1      23.302  47.342  48.748  1.00  0.00     0.087 A 
HETATM    6  S   UNL     1      23.609  48.948  49.188  1.00  0.00    -0.074 SA
HETATM    7  C   UNL     1      22.149  49.462  48.485  1.00  0.00     0.018 A 
HETATM    8  C   UNL     1      21.438  48.428  47.897  1.00  0.00    -0.024 A 
HETATM    9  C   UNL     1      20.112  48.669  47.237  1.00  0.00     0.068 C 
HETATM   10  C   UNL     1      19.814  50.174  47.057  1.00  0.00     0.240 C 
HETATM   11  N   UNL     1      20.219  50.999  48.274  1.00  0.00    -0.063 N 
HETATM   12  H   UNL     1      20.052  51.986  48.053  1.00  0.00     0.280 HD
HETATM   13  C   UNL     1      21.720  50.885  48.516  1.00  0.00     0.282 C 
HETATM   14  N   UNL     1      24.100  46.305  49.043  1.00  0.00    -0.357 N 
HETATM   15  H   UNL     1      25.036  46.443  49.412  1.00  0.00     0.162 HD
ENDROOT
BRANCH   1  16
HETATM   16  C   UNL     1      24.392  43.942  49.220  1.00  0.00    -0.014 A 
HETATM   17  C   UNL     1      24.717  42.692  48.658  1.00  0.00     0.014 A 
HETATM   18  C   UNL     1      25.318  41.692  49.427  1.00  0.00     0.038 A 
HETATM   19  C   UNL     1      25.587  41.932  50.770  1.00  0.00     0.079 A 
HETATM   20  C   UNL     1      25.254  43.156  51.353  1.00  0.00     0.038 A 
HETATM   21  C   UNL     1      24.664  44.157  50.580  1.00  0.00     0.014 A 
BRANCH  19  22
HETATM   22  O   UNL     1      26.314  41.048  51.601  1.00  0.00    -0.276 OA
BRANCH  22  23
HETATM   23  C   UNL     1      27.698  40.958  51.645  1.00  0.00     0.288 C 
HETATM   24  O   UNL     1      28.437  40.455  50.813  1.00  0.00    -0.260 OA
BRANCH  23  25
HETATM   25  C   UNL     1      28.220  41.658  52.842  1.00  0.00     0.083 C 
HETATM   26  C   UNL     1      28.351  42.990  52.936  1.00  0.00     0.017 C 
BRANCH  26  27
HETATM   27  C   UNL     1      28.964  43.652  54.089  1.00  0.00    -0.036 A 
HETATM   28  C   UNL     1      30.082  43.104  54.731  1.00  0.00     0.014 A 
HETATM   29  C   UNL     1      30.714  43.790  55.775  1.00  0.00     0.037 A 
HETATM   30  C   UNL     1      30.238  45.035  56.183  1.00  0.00     0.068 A 
HETATM   31  C   UNL     1      29.114  45.576  55.555  1.00  0.00     0.037 A 
HETATM   32  C   UNL     1      28.484  44.897  54.507  1.00  0.00     0.014 A 
BRANCH  30  33
HETATM   33  O   UNL     1      30.773  45.815  57.171  1.00  0.00    -0.356 OA
HETATM   34  C   UNL     1      30.673  45.318  58.501  1.00  0.00     0.210 C 
ENDBRANCH  30  33
ENDBRANCH  26  27
ENDBRANCH  23  25
ENDBRANCH  22  23
ENDBRANCH  19  22
ENDBRANCH   1  16
BRANCH   3  35
HETATM   35  O   UNL     1      20.522  45.657  47.211  1.00  0.00    -0.344 OA
HETATM   36  H   UNL     1      20.199  44.811  47.573  1.00  0.00     0.219 HD
ENDBRANCH   3  35
BRANCH  11  37
HETATM   37  C   UNL     1      19.372  50.699  49.491  1.00  0.00     0.273 C 
BRANCH  37  38
HETATM   38  C   UNL     1      17.981  51.268  49.421  1.00  0.00    -0.033 A 
HETATM   39  C   UNL     1      17.692  52.540  49.940  1.00  0.00     0.009 A 
HETATM   40  C   UNL     1      16.389  53.038  49.894  1.00  0.00     0.001 A 
HETATM   41  C   UNL     1      15.367  52.278  49.328  1.00  0.00     0.000 A 
HETATM   42  C   UNL     1      15.644  51.019  48.804  1.00  0.00     0.001 A 
HETATM   43  C   UNL     1      16.943  50.514  48.849  1.00  0.00     0.009 A 
ENDBRANCH  37  38
ENDBRANCH  11  37
TORSDOF 9
ENDMDL
MODEL 7
REMARK VINA RESULT:      -9.8      8.382      9.747
REMARK  9 active torsions:
REMARK  status: ('A' for Active; 'I' for Inactive)
REMARK    1  A    between atoms: O_2  and  C_3 
REMARK    2  A    between atoms: C_6  and  C_7 
REMARK    3  A    between atoms: C_8  and  C_9 
REMARK    4  A    between atoms: C_9  and  O_10 
REMARK    5  A    between atoms: O_10  and  C_11 
REMARK    6  A    between atoms: C_14  and  C_15 
REMARK    7  A    between atoms: C_17  and  O_18 
REMARK    8  A    between atoms: N_26  and  C_28 
REMARK    9  A    between atoms: C_28  and  C_29 
ROOT
HETATM    1  C   UNL     1      27.206  40.370  46.603  1.00  0.00     0.243 C 
HETATM    2  N   UNL     1      28.348  39.745  47.302  1.00  0.00    -0.235 NA
HETATM    3  C   UNL     1      28.470  40.036  48.543  1.00  0.00     0.173 C 
HETATM    4  C   UNL     1      27.641  40.965  49.271  1.00  0.00     0.057 A 
HETATM    5  C   UNL     1      26.748  41.703  48.535  1.00  0.00     0.087 A 
HETATM    6  S   UNL     1      25.859  42.805  49.464  1.00  0.00    -0.074 SA
HETATM    7  C   UNL     1      26.662  42.319  50.881  1.00  0.00     0.018 A 
HETATM    8  C   UNL     1      27.584  41.309  50.661  1.00  0.00    -0.024 A 
HETATM    9  C   UNL     1      28.413  40.750  51.781  1.00  0.00     0.068 C 
HETATM   10  C   UNL     1      27.915  41.219  53.166  1.00  0.00     0.240 C 
HETATM   11  N   UNL     1      27.516  42.691  53.175  1.00  0.00    -0.063 N 
HETATM   12  H   UNL     1      27.139  42.907  54.103  1.00  0.00     0.280 HD
HETATM   13  C   UNL     1      26.370  42.937  52.202  1.00  0.00     0.282 C 
HETATM   14  N   UNL     1      26.636  41.564  47.205  1.00  0.00    -0.357 N 
HETATM   15  H   UNL     1      25.882  42.004  46.686  1.00  0.00     0.162 HD
ENDROOT
BRANCH   1  16
HETATM   16  C   UNL     1      27.538  40.723  45.160  1.00  0.00    -0.014 A 
HETATM   17  C   UNL     1      26.586  41.396  44.371  1.00  0.00     0.014 A 
HETATM   18  C   UNL     1      26.908  41.857  43.092  1.00  0.00     0.038 A 
HETATM   19  C   UNL     1      28.185  41.635  42.588  1.00  0.00     0.079 A 
HETATM   20  C   UNL     1      29.138  40.950  43.344  1.00  0.00     0.038 A 
HETATM   21  C   UNL     1      28.816  40.501  44.626  1.00  0.00     0.014 A 
BRANCH  19  22
HETATM   22  O   UNL     1      28.660  42.175  41.370  1.00  0.00    -0.276 OA
BRANCH  22  23
HETATM   23  C   UNL     1      27.854  42.676  40.356  1.00  0.00     0.288 C 
HETATM   24  O   UNL     1      27.114  42.047  39.617  1.00  0.00    -0.260 OA
BRANCH  23  25
HETATM   25  C   UNL     1      27.928  44.155  40.326  1.00  0.00     0.083 C 
HETATM   26  C   UNL     1      28.741  44.851  39.515  1.00  0.00     0.017 C 
BRANCH  26  27
HETATM   27  C   UNL     1      28.870  46.308  39.575  1.00  0.00    -0.036 A 
HETATM   28  C   UNL     1      28.264  47.049  40.598  1.00  0.00     0.014 A 
HETATM   29  C   UNL     1      28.469  48.430  40.697  1.00  0.00     0.037 A 
HETATM   30  C   UNL     1      29.287  49.084  39.776  1.00  0.00     0.068 A 
HETATM   31  C   UNL     1      29.878  48.350  38.746  1.00  0.00     0.037 A 
HETATM   32  C   UNL     1      29.682  46.969  38.649  1.00  0.00     0.014 A 
BRANCH  30  33
HETATM   33  O   UNL     1      29.584  50.419  39.772  1.00  0.00    -0.356 OA
HETATM   34  C   UNL     1      30.149  50.951  40.965  1.00  0.00     0.210 C 
ENDBRANCH  30  33
ENDBRANCH  26  27
ENDBRANCH  23  25
ENDBRANCH  22  23
ENDBRANCH  19  22
ENDBRANCH   1  16
BRANCH   3  35
HETATM   35  O   UNL     1      29.462  39.453  49.239  1.00  0.00    -0.344 OA
HETATM   36  H   UNL     1      30.277  39.937  49.012  1.00  0.00     0.219 HD
ENDBRANCH   3  35
BRANCH  11  37
HETATM   37  C   UNL     1      28.698  43.617  52.984  1.00  0.00     0.273 C 
BRANCH  37  38
HETATM   38  C   UNL     1      29.392  43.991  54.265  1.00  0.00    -0.033 A 
HETATM   39  C   UNL     1      29.035  45.151  54.970  1.00  0.00     0.009 A 
HETATM   40  C   UNL     1      29.713  45.499  56.141  1.00  0.00     0.001 A 
HETATM   41  C   UNL     1      30.744  44.694  56.619  1.00  0.00     0.000 A 
HETATM   42  C   UNL     1      31.102  43.537  55.932  1.00  0.00     0.001 A 
HETATM   43  C   UNL     1      30.431  43.185  54.761  1.00  0.00     0.009 A 
ENDBRANCH  37  38
ENDBRANCH  11  37
TORSDOF 9
ENDMDL
MODEL 8
REMARK VINA RESULT:      -9.3      8.126      9.824
REMARK  9 active torsions:
REMARK  status: ('A' for Active; 'I' for Inactive)
REMARK    1  A    between atoms: O_2  and  C_3 
REMARK    2  A    between atoms: C_6  and  C_7 
REMARK    3  A    between atoms: C_8  and  C_9 
REMARK    4  A    between atoms: C_9  and  O_10 
REMARK    5  A    between atoms: O_10  and  C_11 
REMARK    6  A    between atoms: C_14  and  C_15 
REMARK    7  A    between atoms: C_17  and  O_18 
REMARK    8  A    between atoms: N_26  and  C_28 
REMARK    9  A    between atoms: C_28  and  C_29 
ROOT
HETATM    1  C   UNL     1      27.381  40.076  47.968  1.00  0.00     0.243 C 
HETATM    2  N   UNL     1      28.181  39.320  48.954  1.00  0.00    -0.235 NA
HETATM    3  C   UNL     1      28.253  39.833  50.126  1.00  0.00     0.173 C 
HETATM    4  C   UNL     1      27.688  41.099  50.522  1.00  0.00     0.057 A 
HETATM    5  C   UNL     1      27.162  41.880  49.523  1.00  0.00     0.087 A 
HETATM    6  S   UNL     1      26.575  43.370  50.073  1.00  0.00    -0.074 SA
HETATM    7  C   UNL     1      27.021  43.002  51.671  1.00  0.00     0.018 A 
HETATM    8  C   UNL     1      27.593  41.745  51.798  1.00  0.00    -0.024 A 
HETATM    9  C   UNL     1      28.074  41.235  53.125  1.00  0.00     0.068 C 
HETATM   10  C   UNL     1      27.602  42.125  54.297  1.00  0.00     0.240 C 
HETATM   11  N   UNL     1      27.695  43.613  53.974  1.00  0.00    -0.063 N 
HETATM   12  H   UNL     1      27.307  44.130  54.770  1.00  0.00     0.280 HD
HETATM   13  C   UNL     1      26.799  43.955  52.790  1.00  0.00     0.282 C 
HETATM   14  N   UNL     1      27.158  41.486  48.240  1.00  0.00    -0.357 N 
HETATM   15  H   UNL     1      26.644  41.998  47.529  1.00  0.00     0.162 HD
ENDROOT
BRANCH   1  16
HETATM   16  C   UNL     1      27.962  39.987  46.565  1.00  0.00    -0.014 A 
HETATM   17  C   UNL     1      27.996  38.746  45.902  1.00  0.00     0.014 A 
HETATM   18  C   UNL     1      28.393  38.655  44.565  1.00  0.00     0.038 A 
HETATM   19  C   UNL     1      28.772  39.808  43.885  1.00  0.00     0.079 A 
HETATM   20  C   UNL     1      28.768  41.046  44.530  1.00  0.00     0.038 A 
HETATM   21  C   UNL     1      28.360  41.135  45.862  1.00  0.00     0.014 A 
BRANCH  19  22
HETATM   22  O   UNL     1      29.057  39.852  42.501  1.00  0.00    -0.276 OA
BRANCH  22  23
HETATM   23  C   UNL     1      28.110  40.023  41.501  1.00  0.00     0.288 C 
HETATM   24  O   UNL     1      27.226  39.246  41.173  1.00  0.00    -0.260 OA
BRANCH  23  25
HETATM   25  C   UNL     1      28.239  41.370  40.897  1.00  0.00     0.083 C 
HETATM   26  C   UNL     1      27.576  42.454  41.330  1.00  0.00     0.017 C 
BRANCH  26  27
HETATM   27  C   UNL     1      27.643  43.752  40.655  1.00  0.00    -0.036 A 
HETATM   28  C   UNL     1      28.385  43.920  39.478  1.00  0.00     0.014 A 
HETATM   29  C   UNL     1      28.368  45.140  38.792  1.00  0.00     0.037 A 
HETATM   30  C   UNL     1      27.604  46.203  39.272  1.00  0.00     0.068 A 
HETATM   31  C   UNL     1      26.877  46.041  40.453  1.00  0.00     0.037 A 
HETATM   32  C   UNL     1      26.885  44.822  41.137  1.00  0.00     0.014 A 
BRANCH  30  33
HETATM   33  O   UNL     1      27.485  47.434  38.689  1.00  0.00    -0.356 OA
HETATM   34  C   UNL     1      27.019  48.491  39.519  1.00  0.00     0.210 C 
ENDBRANCH  30  33
ENDBRANCH  26  27
ENDBRANCH  23  25
ENDBRANCH  22  23
ENDBRANCH  19  22
ENDBRANCH   1  16
BRANCH   3  35
HETATM   35  O   UNL     1      28.926  39.158  51.075  1.00  0.00    -0.344 OA
HETATM   36  H   UNL     1      28.377  38.385  51.302  1.00  0.00     0.219 HD
ENDBRANCH   3  35
BRANCH  11  37
HETATM   37  C   UNL     1      29.123  44.091  53.828  1.00  0.00     0.273 C 
BRANCH  37  38
HETATM   38  C   UNL     1      29.853  44.238  55.135  1.00  0.00    -0.033 A 
HETATM   39  C   UNL     1      30.755  43.256  55.574  1.00  0.00     0.009 A 
HETATM   40  C   UNL     1      31.400  43.394  56.805  1.00  0.00     0.001 A 
HETATM   41  C   UNL     1      31.155  44.510  57.603  1.00  0.00     0.000 A 
HETATM   42  C   UNL     1      30.268  45.493  57.174  1.00  0.00     0.001 A 
HETATM   43  C   UNL     1      29.619  45.360  55.947  1.00  0.00     0.009 A 
ENDBRANCH  37  38
ENDBRANCH  11  37
TORSDOF 9
ENDMDL
MODEL 9
REMARK VINA RESULT:      -9.2      3.563     13.320
REMARK  9 active torsions:
REMARK  status: ('A' for Active; 'I' for Inactive)
REMARK    1  A    between atoms: O_2  and  C_3 
REMARK    2  A    between atoms: C_6  and  C_7 
REMARK    3  A    between atoms: C_8  and  C_9 
REMARK    4  A    between atoms: C_9  and  O_10 
REMARK    5  A    between atoms: O_10  and  C_11 
REMARK    6  A    between atoms: C_14  and  C_15 
REMARK    7  A    between atoms: C_17  and  O_18 
REMARK    8  A    between atoms: N_26  and  C_28 
REMARK    9  A    between atoms: C_28  and  C_29 
ROOT
HETATM    1  C   UNL     1      22.283  43.713  47.858  1.00  0.00     0.243 C 
HETATM    2  N   UNL     1      21.540  44.300  48.991  1.00  0.00    -0.235 NA
HETATM    3  C   UNL     1      20.660  45.179  48.687  1.00  0.00     0.173 C 
HETATM    4  C   UNL     1      20.401  45.680  47.360  1.00  0.00     0.057 A 
HETATM    5  C   UNL     1      21.271  45.290  46.372  1.00  0.00     0.087 A 
HETATM    6  S   UNL     1      20.922  45.973  44.862  1.00  0.00    -0.074 SA
HETATM    7  C   UNL     1      19.594  46.816  45.504  1.00  0.00     0.018 A 
HETATM    8  C   UNL     1      19.396  46.568  46.853  1.00  0.00    -0.024 A 
HETATM    9  C   UNL     1      18.285  47.230  47.615  1.00  0.00     0.068 C 
HETATM   10  C   UNL     1      17.284  47.946  46.682  1.00  0.00     0.240 C 
HETATM   11  N   UNL     1      17.975  48.690  45.544  1.00  0.00    -0.063 N 
HETATM   12  H   UNL     1      17.247  49.080  44.937  1.00  0.00     0.280 HD
HETATM   13  C   UNL     1      18.754  47.714  44.669  1.00  0.00     0.282 C 
HETATM   14  N   UNL     1      22.305  44.473  46.618  1.00  0.00    -0.357 N 
HETATM   15  H   UNL     1      22.858  44.074  45.865  1.00  0.00     0.162 HD
ENDROOT
BRANCH   1  16
HETATM   16  C   UNL     1      23.732  43.412  48.212  1.00  0.00    -0.014 A 
HETATM   17  C   UNL     1      24.508  44.391  48.862  1.00  0.00     0.014 A 
HETATM   18  C   UNL     1      25.794  44.099  49.325  1.00  0.00     0.038 A 
HETATM   19  C   UNL     1      26.318  42.825  49.129  1.00  0.00     0.079 A 
HETATM   20  C   UNL     1      25.574  41.846  48.468  1.00  0.00     0.038 A 
HETATM   21  C   UNL     1      24.286  42.137  48.016  1.00  0.00     0.014 A 
BRANCH  19  22
HETATM   22  O   UNL     1      27.544  42.382  49.675  1.00  0.00    -0.276 OA
BRANCH  22  23
HETATM   23  C   UNL     1      27.690  41.787  50.921  1.00  0.00     0.288 C 
HETATM   24  O   UNL     1      27.475  40.622  51.218  1.00  0.00    -0.260 OA
BRANCH  23  25
HETATM   25  C   UNL     1      28.253  42.756  51.889  1.00  0.00     0.083 C 
HETATM   26  C   UNL     1      28.698  42.425  53.112  1.00  0.00     0.017 C 
BRANCH  26  27
HETATM   27  C   UNL     1      29.156  43.415  54.089  1.00  0.00    -0.036 A 
HETATM   28  C   UNL     1      28.405  44.566  54.362  1.00  0.00     0.014 A 
HETATM   29  C   UNL     1      28.807  45.460  55.362  1.00  0.00     0.037 A 
HETATM   30  C   UNL     1      29.960  45.207  56.104  1.00  0.00     0.068 A 
HETATM   31  C   UNL     1      30.718  44.069  55.822  1.00  0.00     0.037 A 
HETATM   32  C   UNL     1      30.316  43.171  54.828  1.00  0.00     0.014 A 
BRANCH  30  33
HETATM   33  O   UNL     1      30.449  45.985  57.117  1.00  0.00    -0.356 OA
HETATM   34  C   UNL     1      30.740  45.327  58.344  1.00  0.00     0.210 C 
ENDBRANCH  30  33
ENDBRANCH  26  27
ENDBRANCH  23  25
ENDBRANCH  22  23
ENDBRANCH  19  22
ENDBRANCH   1  16
BRANCH   3  35
HETATM   35  O   UNL     1      19.919  45.707  49.678  1.00  0.00    -0.344 OA
HETATM   36  H   UNL     1      20.173  45.234  50.491  1.00  0.00     0.219 HD
ENDBRANCH   3  35
BRANCH  11  37
HETATM   37  C   UNL     1      18.788  49.871  46.027  1.00  0.00     0.273 C 
BRANCH  37  38
HETATM   38  C   UNL     1      18.079  50.724  47.043  1.00  0.00    -0.033 A 
HETATM   39  C   UNL     1      18.603  50.898  48.333  1.00  0.00     0.009 A 
HETATM   40  C   UNL     1      17.914  51.668  49.273  1.00  0.00     0.001 A 
HETATM   41  C   UNL     1      16.705  52.271  48.934  1.00  0.00     0.000 A 
HETATM   42  C   UNL     1      16.179  52.111  47.655  1.00  0.00     0.001 A 
HETATM   43  C   UNL     1      16.861  51.342  46.712  1.00  0.00     0.009 A 
ENDBRANCH  37  38
ENDBRANCH  11  37
TORSDOF 9
ENDMDL
MODEL 10
REMARK VINA RESULT:      -9.2      4.026     13.036
REMARK  9 active torsions:
REMARK  status: ('A' for Active; 'I' for Inactive)
REMARK    1  A    between atoms: O_2  and  C_3 
REMARK    2  A    between atoms: C_6  and  C_7 
REMARK    3  A    between atoms: C_8  and  C_9 
REMARK    4  A    between atoms: C_9  and  O_10 
REMARK    5  A    between atoms: O_10  and  C_11 
REMARK    6  A    between atoms: C_14  and  C_15 
REMARK    7  A    between atoms: C_17  and  O_18 
REMARK    8  A    between atoms: N_26  and  C_28 
REMARK    9  A    between atoms: C_28  and  C_29 
ROOT
HETATM    1  C   UNL     1      20.172  44.946  47.146  1.00  0.00     0.243 C 
HETATM    2  N   UNL     1      18.966  44.630  47.940  1.00  0.00    -0.235 NA
HETATM    3  C   UNL     1      18.061  45.536  47.966  1.00  0.00     0.173 C 
HETATM    4  C   UNL     1      18.162  46.838  47.355  1.00  0.00     0.057 A 
HETATM    5  C   UNL     1      19.384  47.183  46.834  1.00  0.00     0.087 A 
HETATM    6  S   UNL     1      19.423  48.749  46.189  1.00  0.00    -0.074 SA
HETATM    7  C   UNL     1      17.794  49.002  46.602  1.00  0.00     0.018 A 
HETATM    8  C   UNL     1      17.210  47.900  47.206  1.00  0.00    -0.024 A 
HETATM    9  C   UNL     1      15.781  47.925  47.665  1.00  0.00     0.068 C 
HETATM   10  C   UNL     1      15.021  49.161  47.136  1.00  0.00     0.240 C 
HETATM   11  N   UNL     1      15.861  50.433  47.195  1.00  0.00    -0.063 N 
HETATM   12  H   UNL     1      15.315  51.189  46.771  1.00  0.00     0.280 HD
HETATM   13  C   UNL     1      17.103  50.289  46.322  1.00  0.00     0.282 C 
HETATM   14  N   UNL     1      20.435  46.350  46.876  1.00  0.00    -0.357 N 
HETATM   15  H   UNL     1      21.292  46.549  46.367  1.00  0.00     0.162 HD
ENDROOT
BRANCH   1  16
HETATM   16  C   UNL     1      21.438  44.375  47.768  1.00  0.00    -0.014 A 
HETATM   17  C   UNL     1      22.290  43.565  46.994  1.00  0.00     0.014 A 
HETATM   18  C   UNL     1      23.526  43.142  47.490  1.00  0.00     0.038 A 
HETATM   19  C   UNL     1      23.912  43.517  48.773  1.00  0.00     0.079 A 
HETATM   20  C   UNL     1      23.073  44.301  49.566  1.00  0.00     0.038 A 
HETATM   21  C   UNL     1      21.844  44.732  49.063  1.00  0.00     0.014 A 
BRANCH  19  22
HETATM   22  O   UNL     1      25.191  43.262  49.320  1.00  0.00    -0.276 OA
BRANCH  22  23
HETATM   23  C   UNL     1      25.548  42.106  50.000  1.00  0.00     0.288 C 
HETATM   24  O   UNL     1      25.384  40.951  49.640  1.00  0.00    -0.260 OA
BRANCH  23  25
HETATM   25  C   UNL     1      26.273  42.448  51.246  1.00  0.00     0.083 C 
HETATM   26  C   UNL     1      27.508  42.972  51.277  1.00  0.00     0.017 C 
BRANCH  26  27
HETATM   27  C   UNL     1      28.244  43.207  52.521  1.00  0.00    -0.036 A 
HETATM   28  C   UNL     1      29.549  42.727  52.693  1.00  0.00     0.014 A 
HETATM   29  C   UNL     1      30.276  43.035  53.850  1.00  0.00     0.037 A 
HETATM   30  C   UNL     1      29.707  43.831  54.842  1.00  0.00     0.068 A 
HETATM   31  C   UNL     1      28.401  44.297  54.679  1.00  0.00     0.037 A 
HETATM   32  C   UNL     1      27.675  43.998  53.522  1.00  0.00     0.014 A 
BRANCH  30  33
HETATM   33  O   UNL     1      30.314  44.220  56.005  1.00  0.00    -0.356 OA
HETATM   34  C   UNL     1      30.371  45.619  56.258  1.00  0.00     0.210 C 
ENDBRANCH  30  33
ENDBRANCH  26  27
ENDBRANCH  23  25
ENDBRANCH  22  23
ENDBRANCH  19  22
ENDBRANCH   1  16
BRANCH   3  35
HETATM   35  O   UNL     1      16.922  45.278  48.632  1.00  0.00    -0.344 OA
HETATM   36  H   UNL     1      16.258  45.906  48.293  1.00  0.00     0.219 HD
ENDBRANCH   3  35
BRANCH  11  37
HETATM   37  C   UNL     1      16.151  50.877  48.612  1.00  0.00     0.273 C 
BRANCH  37  38
HETATM   38  C   UNL     1      17.616  51.016  48.920  1.00  0.00    -0.033 A 
HETATM   39  C   UNL     1      18.252  50.149  49.822  1.00  0.00     0.009 A 
HETATM   40  C   UNL     1      19.607  50.313  50.120  1.00  0.00     0.001 A 
HETATM   41  C   UNL     1      20.336  51.337  49.519  1.00  0.00     0.000 A 
HETATM   42  C   UNL     1      19.718  52.199  48.618  1.00  0.00     0.001 A 
HETATM   43  C   UNL     1      18.365  52.041  48.318  1.00  0.00     0.009 A 
ENDBRANCH  37  38
ENDBRANCH  11  37
TORSDOF 9
ENDMDL
