MODEL 1
REMARK VINA RESULT:      -8.8      0.000      0.000
REMARK  10 active torsions:
REMARK  status: ('A' for Active; 'I' for Inactive)
REMARK       I    between atoms: C_2  and  N_3 
REMARK    1  A    between atoms: N_3  and  C_4 
REMARK    2  A    between atoms: C_6  and  O_7 
REMARK    3  A    between atoms: O_7  and  C_8 
REMARK    4  A    between atoms: C_8  and  C_9 
REMARK    5  A    between atoms: C_9  and  C_10 
REMARK    6  A    between atoms: C_10  and  C_11 
REMARK    7  A    between atoms: C_11  and  N_12 
REMARK       I    between atoms: N_12  and  C_13 
REMARK    8  A    between atoms: C_13  and  C_14 
REMARK    9  A    between atoms: C_18  and  C_19 
REMARK   10  A    between atoms: C_21  and  O_22 
ROOT
HETATM    1  N   UNL     1      24.145  48.054  49.677  1.00  0.00    -0.345 N 
HETATM    2  C   UNL     1      23.676  49.289  49.310  1.00  0.00     0.270 C 
HETATM    3  O   UNL     1      24.422  50.220  49.024  1.00  0.00    -0.266 OA
HETATM    4  H   UNL     1      23.503  47.320  49.933  1.00  0.00     0.163 HD
ENDROOT
BRANCH   1   5
HETATM    5  C   UNL     1      25.557  47.793  49.758  1.00  0.00     0.217 C 
BRANCH   5   6
HETATM    6  C   UNL     1      25.900  47.337  51.105  1.00  0.00    -0.085 C 
BRANCH   6   7
HETATM    7  C   UNL     1      26.198  46.926  52.306  1.00  0.00    -0.078 C 
BRANCH   7   8
HETATM    8  C   UNL     1      26.547  46.447  53.707  1.00  0.00     0.269 C 
BRANCH   8   9
HETATM    9  O   UNL     1      26.438  45.028  53.770  1.00  0.00    -0.339 OA
BRANCH   9  10
HETATM   10  C   UNL     1      27.616  44.332  53.660  1.00  0.00     0.072 A 
HETATM   11  C   UNL     1      28.549  44.131  54.685  1.00  0.00     0.066 A 
HETATM   12  C   UNL     1      29.716  43.394  54.459  1.00  0.00     0.037 A 
HETATM   13  C   UNL     1      29.944  42.860  53.184  1.00  0.00     0.029 A 
HETATM   14  C   UNL     1      29.020  43.059  52.157  1.00  0.00     0.005 A 
HETATM   15  C   UNL     1      27.860  43.793  52.397  1.00  0.00     0.037 A 
BRANCH  12  16
HETATM   16  N   UNL     1      30.693  43.144  55.448  1.00  0.00    -0.327 N 
HETATM   17  C   UNL     1      31.074  43.975  56.485  1.00  0.00     0.218 C 
HETATM   18  C   UNL     1      32.149  43.366  57.352  1.00  0.00     0.117 C 
HETATM   19  O   UNL     1      30.652  45.103  56.721  1.00  0.00    -0.274 OA
HETATM   20  H   UNL     1      31.165  42.251  55.382  1.00  0.00     0.169 HD
ENDBRANCH  12  16
ENDBRANCH   9  10
ENDBRANCH   8   9
ENDBRANCH   7   8
ENDBRANCH   6   7
ENDBRANCH   5   6
ENDBRANCH   1   5
BRANCH   2  21
HETATM   21  C   UNL     1      22.245  49.423  49.294  1.00  0.00     0.120 A 
HETATM   22  N   UNL     1      21.424  48.336  49.396  1.00  0.00    -0.272 N 
HETATM   23  H   UNL     1      21.710  47.367  49.497  1.00  0.00     0.189 HD
HETATM   24  N   UNL     1      20.116  48.625  49.335  1.00  0.00    -0.174 NA
HETATM   25  C   UNL     1      20.069  49.962  49.221  1.00  0.00     0.089 A 
HETATM   26  C   UNL     1      21.387  50.499  49.189  1.00  0.00     0.071 A 
BRANCH  25  27
HETATM   27  C   UNL     1      18.796  50.685  49.132  1.00  0.00    -0.003 A 
HETATM   28  C   UNL     1      17.745  50.172  48.352  1.00  0.00     0.050 A 
HETATM   29  C   UNL     1      16.534  50.858  48.244  1.00  0.00     0.069 A 
HETATM   30  C   UNL     1      16.366  52.062  48.928  1.00  0.00     0.037 A 
HETATM   31  C   UNL     1      17.395  52.582  49.713  1.00  0.00     0.004 A 
HETATM   32  C   UNL     1      18.607  51.896  49.813  1.00  0.00     0.014 A 
BRANCH  29  33
HETATM   33  O   UNL     1      15.448  50.464  47.510  1.00  0.00    -0.356 OA
HETATM   34  C   UNL     1      15.212  49.064  47.419  1.00  0.00     0.210 C 
ENDBRANCH  29  33
ENDBRANCH  25  27
ENDBRANCH   2  21
TORSDOF 10
ENDMDL
MODEL 2
REMARK VINA RESULT:      -8.7      1.727      2.246
REMARK  10 active torsions:
REMARK  status: ('A' for Active; 'I' for Inactive)
REMARK       I    between atoms: C_2  and  N_3 
REMARK    1  A    between atoms: N_3  and  C_4 
REMARK    2  A    between atoms: C_6  and  O_7 
REMARK    3  A    between atoms: O_7  and  C_8 
REMARK    4  A    between atoms: C_8  and  C_9 
REMARK    5  A    between atoms: C_9  and  C_10 
REMARK    6  A    between atoms: C_10  and  C_11 
REMARK    7  A    between atoms: C_11  and  N_12 
REMARK       I    between atoms: N_12  and  C_13 
REMARK    8  A    between atoms: C_13  and  C_14 
REMARK    9  A    between atoms: C_18  and  C_19 
REMARK   10  A    between atoms: C_21  and  O_22 
ROOT
HETATM    1  N   UNL     1      24.646  49.090  49.263  1.00  0.00    -0.345 N 
HETATM    2  C   UNL     1      24.024  49.927  48.372  1.00  0.00     0.270 C 
HETATM    3  O   UNL     1      24.545  50.271  47.316  1.00  0.00    -0.266 OA
HETATM    4  H   UNL     1      24.200  48.850  50.135  1.00  0.00     0.163 HD
ENDROOT
BRANCH   1   5
HETATM    5  C   UNL     1      25.964  48.578  49.001  1.00  0.00     0.217 C 
BRANCH   5   6
HETATM    6  C   UNL     1      26.185  47.356  49.775  1.00  0.00    -0.085 C 
BRANCH   6   7
HETATM    7  C   UNL     1      26.385  46.263  50.457  1.00  0.00    -0.078 C 
BRANCH   7   8
HETATM    8  C   UNL     1      26.617  44.987  51.251  1.00  0.00     0.269 C 
BRANCH   8   9
HETATM    9  O   UNL     1      26.042  45.117  52.549  1.00  0.00    -0.339 OA
BRANCH   9  10
HETATM   10  C   UNL     1      26.873  45.605  53.525  1.00  0.00     0.072 A 
HETATM   11  C   UNL     1      27.846  44.873  54.216  1.00  0.00     0.066 A 
HETATM   12  C   UNL     1      28.645  45.481  55.190  1.00  0.00     0.037 A 
HETATM   13  C   UNL     1      28.454  46.839  55.473  1.00  0.00     0.029 A 
HETATM   14  C   UNL     1      27.483  47.575  54.791  1.00  0.00     0.005 A 
HETATM   15  C   UNL     1      26.697  46.958  53.820  1.00  0.00     0.037 A 
BRANCH  12  16
HETATM   16  N   UNL     1      29.651  44.805  55.917  1.00  0.00    -0.327 N 
HETATM   17  C   UNL     1      30.483  43.796  55.466  1.00  0.00     0.218 C 
HETATM   18  C   UNL     1      31.443  43.319  56.528  1.00  0.00     0.117 C 
HETATM   19  O   UNL     1      30.480  43.278  54.355  1.00  0.00    -0.274 OA
HETATM   20  H   UNL     1      29.770  45.098  56.878  1.00  0.00     0.169 HD
ENDBRANCH  12  16
ENDBRANCH   9  10
ENDBRANCH   8   9
ENDBRANCH   7   8
ENDBRANCH   6   7
ENDBRANCH   5   6
ENDBRANCH   1   5
BRANCH   2  21
HETATM   21  C   UNL     1      22.720  50.385  48.768  1.00  0.00     0.120 A 
HETATM   22  N   UNL     1      22.374  50.507  50.083  1.00  0.00    -0.272 N 
HETATM   23  H   UNL     1      22.962  50.309  50.887  1.00  0.00     0.189 HD
HETATM   24  N   UNL     1      21.113  50.918  50.286  1.00  0.00    -0.174 NA
HETATM   25  C   UNL     1      20.616  51.107  49.053  1.00  0.00     0.089 A 
HETATM   26  C   UNL     1      21.595  50.780  48.072  1.00  0.00     0.071 A 
BRANCH  25  27
HETATM   27  C   UNL     1      19.242  51.571  48.838  1.00  0.00    -0.003 A 
HETATM   28  C   UNL     1      18.643  51.446  47.571  1.00  0.00     0.050 A 
HETATM   29  C   UNL     1      17.342  51.899  47.347  1.00  0.00     0.069 A 
HETATM   30  C   UNL     1      16.627  52.474  48.398  1.00  0.00     0.037 A 
HETATM   31  C   UNL     1      17.202  52.599  49.662  1.00  0.00     0.004 A 
HETATM   32  C   UNL     1      18.506  52.151  49.881  1.00  0.00     0.014 A 
BRANCH  29  33
HETATM   33  O   UNL     1      16.662  51.839  46.161  1.00  0.00    -0.356 OA
HETATM   34  C   UNL     1      15.311  52.283  46.175  1.00  0.00     0.210 C 
ENDBRANCH  29  33
ENDBRANCH  25  27
ENDBRANCH   2  21
TORSDOF 10
ENDMDL
MODEL 3
REMARK VINA RESULT:      -8.6      3.284     11.401
REMARK  10 active torsions:
REMARK  status: ('A' for Active; 'I' for Inactive)
REMARK       I    between atoms: C_2  and  N_3 
REMARK    1  A    between atoms: N_3  and  C_4 
REMARK    2  A    between atoms: C_6  and  O_7 
REMARK    3  A    between atoms: O_7  and  C_8 
REMARK    4  A    between atoms: C_8  and  C_9 
REMARK    5  A    between atoms: C_9  and  C_10 
REMARK    6  A    between atoms: C_10  and  C_11 
REMARK    7  A    between atoms: C_11  and  N_12 
REMARK       I    between atoms: N_12  and  C_13 
REMARK    8  A    between atoms: C_13  and  C_14 
REMARK    9  A    between atoms: C_18  and  C_19 
REMARK   10  A    between atoms: C_21  and  O_22 
ROOT
HETATM    1  N   UNL     1      25.057  42.834  49.831  1.00  0.00    -0.345 N 
HETATM    2  C   UNL     1      26.423  42.713  49.866  1.00  0.00     0.270 C 
HETATM    3  O   UNL     1      27.089  42.475  48.864  1.00  0.00    -0.266 OA
HETATM    4  H   UNL     1      24.538  43.001  50.680  1.00  0.00     0.163 HD
ENDROOT
BRANCH   1   5
HETATM    5  C   UNL     1      24.330  42.671  48.601  1.00  0.00     0.217 C 
BRANCH   5   6
HETATM    6  C   UNL     1      23.145  43.529  48.609  1.00  0.00    -0.085 C 
BRANCH   6   7
HETATM    7  C   UNL     1      22.093  44.300  48.621  1.00  0.00    -0.078 C 
BRANCH   7   8
HETATM    8  C   UNL     1      20.868  45.201  48.634  1.00  0.00     0.269 C 
BRANCH   8   9
HETATM    9  O   UNL     1      21.067  46.296  47.743  1.00  0.00    -0.339 OA
BRANCH   9  10
HETATM   10  C   UNL     1      21.700  47.391  48.274  1.00  0.00     0.072 A 
HETATM   11  C   UNL     1      23.083  47.542  48.434  1.00  0.00     0.066 A 
HETATM   12  C   UNL     1      23.619  48.712  48.982  1.00  0.00     0.037 A 
HETATM   13  C   UNL     1      22.749  49.736  49.376  1.00  0.00     0.029 A 
HETATM   14  C   UNL     1      21.369  49.592  49.223  1.00  0.00     0.005 A 
HETATM   15  C   UNL     1      20.849  48.422  48.673  1.00  0.00     0.037 A 
BRANCH  12  16
HETATM   16  N   UNL     1      25.002  48.935  49.162  1.00  0.00    -0.327 N 
HETATM   17  C   UNL     1      25.851  49.667  48.351  1.00  0.00     0.218 C 
HETATM   18  C   UNL     1      27.269  49.690  48.867  1.00  0.00     0.117 C 
HETATM   19  O   UNL     1      25.562  50.237  47.304  1.00  0.00    -0.274 OA
HETATM   20  H   UNL     1      25.413  48.504  49.981  1.00  0.00     0.169 HD
ENDBRANCH  12  16
ENDBRANCH   9  10
ENDBRANCH   8   9
ENDBRANCH   7   8
ENDBRANCH   6   7
ENDBRANCH   5   6
ENDBRANCH   1   5
BRANCH   2  21
HETATM   21  C   UNL     1      27.021  42.872  51.162  1.00  0.00     0.120 A 
HETATM   22  N   UNL     1      27.076  41.841  52.057  1.00  0.00    -0.272 N 
HETATM   23  H   UNL     1      26.729  40.897  51.917  1.00  0.00     0.189 HD
HETATM   24  N   UNL     1      27.638  42.159  53.232  1.00  0.00    -0.174 NA
HETATM   25  C   UNL     1      28.000  43.445  53.098  1.00  0.00     0.089 A 
HETATM   26  C   UNL     1      27.627  43.929  51.812  1.00  0.00     0.071 A 
BRANCH  25  27
HETATM   27  C   UNL     1      28.667  44.176  54.179  1.00  0.00    -0.003 A 
HETATM   28  C   UNL     1      29.890  43.712  54.698  1.00  0.00     0.050 A 
HETATM   29  C   UNL     1      30.528  44.388  55.739  1.00  0.00     0.069 A 
HETATM   30  C   UNL     1      29.946  45.543  56.263  1.00  0.00     0.037 A 
HETATM   31  C   UNL     1      28.739  46.022  55.756  1.00  0.00     0.004 A 
HETATM   32  C   UNL     1      28.101  45.340  54.718  1.00  0.00     0.014 A 
BRANCH  29  33
HETATM   33  O   UNL     1      31.709  44.027  56.328  1.00  0.00    -0.356 OA
HETATM   34  C   UNL     1      31.626  43.141  57.437  1.00  0.00     0.210 C 
ENDBRANCH  29  33
ENDBRANCH  25  27
ENDBRANCH   2  21
TORSDOF 10
ENDMDL
MODEL 4
REMARK VINA RESULT:      -8.6      1.458      1.953
REMARK  10 active torsions:
REMARK  status: ('A' for Active; 'I' for Inactive)
REMARK       I    between atoms: C_2  and  N_3 
REMARK    1  A    between atoms: N_3  and  C_4 
REMARK    2  A    between atoms: C_6  and  O_7 
REMARK    3  A    between atoms: O_7  and  C_8 
REMARK    4  A    between atoms: C_8  and  C_9 
REMARK    5  A    between atoms: C_9  and  C_10 
REMARK    6  A    between atoms: C_10  and  C_11 
REMARK    7  A    between atoms: C_11  and  N_12 
REMARK       I    between atoms: N_12  and  C_13 
REMARK    8  A    between atoms: C_13  and  C_14 
REMARK    9  A    between atoms: C_18  and  C_19 
REMARK   10  A    between atoms: C_21  and  O_22 
ROOT
HETATM    1  N   UNL     1      23.369  48.181  49.743  1.00  0.00    -0.345 N 
HETATM    2  C   UNL     1      22.736  48.915  48.773  1.00  0.00     0.270 C 
HETATM    3  O   UNL     1      23.317  49.327  47.774  1.00  0.00    -0.266 OA
HETATM    4  H   UNL     1      22.868  47.883  50.566  1.00  0.00     0.163 HD
ENDROOT
BRANCH   1   5
HETATM    5  C   UNL     1      24.769  47.866  49.639  1.00  0.00     0.217 C 
BRANCH   5   6
HETATM    6  C   UNL     1      25.189  47.084  50.802  1.00  0.00    -0.085 C 
BRANCH   6   7
HETATM    7  C   UNL     1      25.565  46.395  51.843  1.00  0.00    -0.078 C 
BRANCH   7   8
HETATM    8  C   UNL     1      26.003  45.591  53.058  1.00  0.00     0.269 C 
BRANCH   8   9
HETATM    9  O   UNL     1      26.592  44.365  52.635  1.00  0.00    -0.339 OA
BRANCH   9  10
HETATM   10  C   UNL     1      27.808  44.060  53.194  1.00  0.00     0.072 A 
HETATM   11  C   UNL     1      28.283  44.524  54.427  1.00  0.00     0.066 A 
HETATM   12  C   UNL     1      29.541  44.140  54.902  1.00  0.00     0.037 A 
HETATM   13  C   UNL     1      30.328  43.283  54.122  1.00  0.00     0.029 A 
HETATM   14  C   UNL     1      29.863  42.820  52.890  1.00  0.00     0.005 A 
HETATM   15  C   UNL     1      28.606  43.208  52.430  1.00  0.00     0.037 A 
BRANCH  12  16
HETATM   16  N   UNL     1      30.077  44.561  56.140  1.00  0.00    -0.327 N 
HETATM   17  C   UNL     1      29.699  45.658  56.892  1.00  0.00     0.218 C 
HETATM   18  C   UNL     1      30.496  45.788  58.168  1.00  0.00     0.117 C 
HETATM   19  O   UNL     1      28.844  46.490  56.608  1.00  0.00    -0.274 OA
HETATM   20  H   UNL     1      30.825  43.989  56.511  1.00  0.00     0.169 HD
ENDBRANCH  12  16
ENDBRANCH   9  10
ENDBRANCH   8   9
ENDBRANCH   7   8
ENDBRANCH   6   7
ENDBRANCH   5   6
ENDBRANCH   1   5
BRANCH   2  21
HETATM   21  C   UNL     1      21.345  49.181  49.013  1.00  0.00     0.120 A 
HETATM   22  N   UNL     1      20.609  48.417  49.874  1.00  0.00    -0.272 N 
HETATM   23  H   UNL     1      20.940  47.625  50.417  1.00  0.00     0.189 HD
HETATM   24  N   UNL     1      19.319  48.774  49.965  1.00  0.00    -0.174 NA
HETATM   25  C   UNL     1      19.205  49.839  49.157  1.00  0.00     0.089 A 
HETATM   26  C   UNL     1      20.456  50.124  48.538  1.00  0.00     0.071 A 
BRANCH  25  27
HETATM   27  C   UNL     1      17.930  50.542  48.981  1.00  0.00    -0.003 A 
HETATM   28  C   UNL     1      17.591  51.614  49.826  1.00  0.00     0.050 A 
HETATM   29  C   UNL     1      16.373  52.281  49.682  1.00  0.00     0.069 A 
HETATM   30  C   UNL     1      15.489  51.881  48.679  1.00  0.00     0.037 A 
HETATM   31  C   UNL     1      15.812  50.826  47.827  1.00  0.00     0.004 A 
HETATM   32  C   UNL     1      17.028  50.157  47.979  1.00  0.00     0.014 A 
BRANCH  29  33
HETATM   33  O   UNL     1      15.933  53.326  50.447  1.00  0.00    -0.356 OA
HETATM   34  C   UNL     1      14.560  53.311  50.820  1.00  0.00     0.210 C 
ENDBRANCH  29  33
ENDBRANCH  25  27
ENDBRANCH   2  21
TORSDOF 10
ENDMDL
MODEL 5
REMARK VINA RESULT:      -8.6      2.537     12.734
REMARK  10 active torsions:
REMARK  status: ('A' for Active; 'I' for Inactive)
REMARK       I    between atoms: C_2  and  N_3 
REMARK    1  A    between atoms: N_3  and  C_4 
REMARK    2  A    between atoms: C_6  and  O_7 
REMARK    3  A    between atoms: O_7  and  C_8 
REMARK    4  A    between atoms: C_8  and  C_9 
REMARK    5  A    between atoms: C_9  and  C_10 
REMARK    6  A    between atoms: C_10  and  C_11 
REMARK    7  A    between atoms: C_11  and  N_12 
REMARK       I    between atoms: N_12  and  C_13 
REMARK    8  A    between atoms: C_13  and  C_14 
REMARK    9  A    between atoms: C_18  and  C_19 
REMARK   10  A    between atoms: C_21  and  O_22 
ROOT
HETATM    1  N   UNL     1      24.345  45.770  50.128  1.00  0.00    -0.345 N 
HETATM    2  C   UNL     1      24.243  44.624  50.873  1.00  0.00     0.270 C 
HETATM    3  O   UNL     1      23.275  43.873  50.800  1.00  0.00    -0.266 OA
HETATM    4  H   UNL     1      25.142  46.379  50.234  1.00  0.00     0.163 HD
ENDROOT
BRANCH   1   5
HETATM    5  C   UNL     1      23.299  46.159  49.221  1.00  0.00     0.217 C 
BRANCH   5   6
HETATM    6  C   UNL     1      23.215  47.618  49.157  1.00  0.00    -0.085 C 
BRANCH   6   7
HETATM    7  C   UNL     1      23.132  48.918  49.097  1.00  0.00    -0.078 C 
BRANCH   7   8
HETATM    8  C   UNL     1      23.035  50.434  49.028  1.00  0.00     0.269 C 
BRANCH   8   9
HETATM    9  O   UNL     1      22.162  50.908  50.050  1.00  0.00    -0.339 OA
BRANCH   9  10
HETATM   10  C   UNL     1      20.830  50.955  49.724  1.00  0.00     0.072 A 
HETATM   11  C   UNL     1      20.273  51.658  48.648  1.00  0.00     0.066 A 
HETATM   12  C   UNL     1      18.896  51.627  48.406  1.00  0.00     0.037 A 
HETATM   13  C   UNL     1      18.074  50.885  49.263  1.00  0.00     0.029 A 
HETATM   14  C   UNL     1      18.620  50.185  50.339  1.00  0.00     0.005 A 
HETATM   15  C   UNL     1      19.994  50.222  50.567  1.00  0.00     0.037 A 
BRANCH  12  16
HETATM   16  N   UNL     1      18.270  52.303  47.334  1.00  0.00    -0.327 N 
HETATM   17  C   UNL     1      17.819  51.760  46.145  1.00  0.00     0.218 C 
HETATM   18  C   UNL     1      17.194  52.792  45.237  1.00  0.00     0.117 C 
HETATM   19  O   UNL     1      17.907  50.590  45.786  1.00  0.00    -0.274 OA
HETATM   20  H   UNL     1      18.142  53.299  47.458  1.00  0.00     0.169 HD
ENDBRANCH  12  16
ENDBRANCH   9  10
ENDBRANCH   8   9
ENDBRANCH   7   8
ENDBRANCH   6   7
ENDBRANCH   5   6
ENDBRANCH   1   5
BRANCH   2  21
HETATM   21  C   UNL     1      25.346  44.366  51.758  1.00  0.00     0.120 A 
HETATM   22  N   UNL     1      25.828  43.103  51.951  1.00  0.00    -0.272 N 
HETATM   23  H   UNL     1      25.490  42.251  51.514  1.00  0.00     0.189 HD
HETATM   24  N   UNL     1      26.839  43.026  52.829  1.00  0.00    -0.174 NA
HETATM   25  C   UNL     1      27.057  44.296  53.207  1.00  0.00     0.089 A 
HETATM   26  C   UNL     1      26.136  45.167  52.558  1.00  0.00     0.071 A 
BRANCH  25  27
HETATM   27  C   UNL     1      28.105  44.645  54.171  1.00  0.00    -0.003 A 
HETATM   28  C   UNL     1      29.115  43.717  54.484  1.00  0.00     0.050 A 
HETATM   29  C   UNL     1      30.110  44.030  55.412  1.00  0.00     0.069 A 
HETATM   30  C   UNL     1      30.103  45.283  56.027  1.00  0.00     0.037 A 
HETATM   31  C   UNL     1      29.115  46.217  55.722  1.00  0.00     0.004 A 
HETATM   32  C   UNL     1      28.118  45.899  54.798  1.00  0.00     0.014 A 
BRANCH  29  33
HETATM   33  O   UNL     1      31.133  43.209  55.803  1.00  0.00    -0.356 OA
HETATM   34  C   UNL     1      31.623  43.384  57.127  1.00  0.00     0.210 C 
ENDBRANCH  29  33
ENDBRANCH  25  27
ENDBRANCH   2  21
TORSDOF 10
ENDMDL
MODEL 6
REMARK VINA RESULT:      -8.5      3.054     10.986
REMARK  10 active torsions:
REMARK  status: ('A' for Active; 'I' for Inactive)
REMARK       I    between atoms: C_2  and  N_3 
REMARK    1  A    between atoms: N_3  and  C_4 
REMARK    2  A    between atoms: C_6  and  O_7 
REMARK    3  A    between atoms: O_7  and  C_8 
REMARK    4  A    between atoms: C_8  and  C_9 
REMARK    5  A    between atoms: C_9  and  C_10 
REMARK    6  A    between atoms: C_10  and  C_11 
REMARK    7  A    between atoms: C_11  and  N_12 
REMARK       I    between atoms: N_12  and  C_13 
REMARK    8  A    between atoms: C_13  and  C_14 
REMARK    9  A    between atoms: C_18  and  C_19 
REMARK   10  A    between atoms: C_21  and  O_22 
ROOT
HETATM    1  N   UNL     1      23.441  44.269  50.136  1.00  0.00    -0.345 N 
HETATM    2  C   UNL     1      24.429  43.396  50.516  1.00  0.00     0.270 C 
HETATM    3  O   UNL     1      24.568  42.293  49.998  1.00  0.00    -0.266 OA
HETATM    4  H   UNL     1      23.338  45.157  50.603  1.00  0.00     0.163 HD
ENDROOT
BRANCH   1   5
HETATM    5  C   UNL     1      22.500  43.919  49.107  1.00  0.00     0.217 C 
BRANCH   5   6
HETATM    6  C   UNL     1      21.565  45.025  48.894  1.00  0.00    -0.085 C 
BRANCH   6   7
HETATM    7  C   UNL     1      20.733  46.009  48.696  1.00  0.00    -0.078 C 
BRANCH   7   8
HETATM    8  C   UNL     1      19.761  47.155  48.463  1.00  0.00     0.269 C 
BRANCH   8   9
HETATM    9  O   UNL     1      20.300  48.054  47.497  1.00  0.00    -0.339 OA
BRANCH   9  10
HETATM   10  C   UNL     1      21.306  48.875  47.940  1.00  0.00     0.072 A 
HETATM   11  C   UNL     1      22.634  48.495  48.171  1.00  0.00     0.066 A 
HETATM   12  C   UNL     1      23.579  49.425  48.616  1.00  0.00     0.037 A 
HETATM   13  C   UNL     1      23.177  50.749  48.834  1.00  0.00     0.029 A 
HETATM   14  C   UNL     1      21.855  51.135  48.610  1.00  0.00     0.005 A 
HETATM   15  C   UNL     1      20.924  50.199  48.163  1.00  0.00     0.037 A 
BRANCH  12  16
HETATM   16  N   UNL     1      24.936  49.114  48.859  1.00  0.00    -0.327 N 
HETATM   17  C   UNL     1      25.438  48.082  49.632  1.00  0.00     0.218 C 
HETATM   18  C   UNL     1      26.947  48.057  49.654  1.00  0.00     0.117 C 
HETATM   19  O   UNL     1      24.794  47.262  50.277  1.00  0.00    -0.274 OA
HETATM   20  H   UNL     1      25.612  49.721  48.413  1.00  0.00     0.169 HD
ENDBRANCH  12  16
ENDBRANCH   9  10
ENDBRANCH   8   9
ENDBRANCH   7   8
ENDBRANCH   6   7
ENDBRANCH   5   6
ENDBRANCH   1   5
BRANCH   2  21
HETATM   21  C   UNL     1      25.286  43.860  51.572  1.00  0.00     0.120 A 
HETATM   22  N   UNL     1      24.981  44.971  52.305  1.00  0.00    -0.272 N 
HETATM   23  H   UNL     1      24.159  45.560  52.201  1.00  0.00     0.189 HD
HETATM   24  N   UNL     1      25.895  45.290  53.233  1.00  0.00    -0.174 NA
HETATM   25  C   UNL     1      26.828  44.329  53.132  1.00  0.00     0.089 A 
HETATM   26  C   UNL     1      26.482  43.414  52.098  1.00  0.00     0.071 A 
BRANCH  25  27
HETATM   27  C   UNL     1      28.013  44.311  53.995  1.00  0.00    -0.003 A 
HETATM   28  C   UNL     1      28.193  45.308  54.970  1.00  0.00     0.050 A 
HETATM   29  C   UNL     1      29.325  45.313  55.788  1.00  0.00     0.069 A 
HETATM   30  C   UNL     1      30.282  44.309  55.637  1.00  0.00     0.037 A 
HETATM   31  C   UNL     1      30.116  43.308  54.681  1.00  0.00     0.004 A 
HETATM   32  C   UNL     1      28.986  43.310  53.861  1.00  0.00     0.014 A 
BRANCH  29  33
HETATM   33  O   UNL     1      29.612  46.233  56.760  1.00  0.00    -0.356 OA
HETATM   34  C   UNL     1      30.112  45.727  57.991  1.00  0.00     0.210 C 
ENDBRANCH  29  33
ENDBRANCH  25  27
ENDBRANCH   2  21
TORSDOF 10
ENDMDL
MODEL 7
REMARK VINA RESULT:      -8.5      2.655     12.866
REMARK  10 active torsions:
REMARK  status: ('A' for Active; 'I' for Inactive)
REMARK       I    between atoms: C_2  and  N_3 
REMARK    1  A    between atoms: N_3  and  C_4 
REMARK    2  A    between atoms: C_6  and  O_7 
REMARK    3  A    between atoms: O_7  and  C_8 
REMARK    4  A    between atoms: C_8  and  C_9 
REMARK    5  A    between atoms: C_9  and  C_10 
REMARK    6  A    between atoms: C_10  and  C_11 
REMARK    7  A    between atoms: C_11  and  N_12 
REMARK       I    between atoms: N_12  and  C_13 
REMARK    8  A    between atoms: C_13  and  C_14 
REMARK    9  A    between atoms: C_18  and  C_19 
REMARK   10  A    between atoms: C_21  and  O_22 
ROOT
HETATM    1  N   UNL     1      24.239  44.741  49.889  1.00  0.00    -0.345 N 
HETATM    2  C   UNL     1      24.382  43.879  50.946  1.00  0.00     0.270 C 
HETATM    3  O   UNL     1      23.742  42.836  51.038  1.00  0.00    -0.266 OA
HETATM    4  H   UNL     1      24.760  45.604  49.860  1.00  0.00     0.163 HD
ENDROOT
BRANCH   1   5
HETATM    5  C   UNL     1      23.309  44.462  48.827  1.00  0.00     0.217 C 
BRANCH   5   6
HETATM    6  C   UNL     1      22.527  45.662  48.527  1.00  0.00    -0.085 C 
BRANCH   6   7
HETATM    7  C   UNL     1      21.822  46.727  48.265  1.00  0.00    -0.078 C 
BRANCH   7   8
HETATM    8  C   UNL     1      20.999  47.969  47.958  1.00  0.00     0.269 C 
BRANCH   8   9
HETATM    9  O   UNL     1      20.342  48.414  49.141  1.00  0.00    -0.339 OA
BRANCH   9  10
HETATM   10  C   UNL     1      19.825  49.684  49.097  1.00  0.00     0.072 A 
HETATM   11  C   UNL     1      18.588  50.085  49.617  1.00  0.00     0.066 A 
HETATM   12  C   UNL     1      18.166  51.415  49.521  1.00  0.00     0.037 A 
HETATM   13  C   UNL     1      18.998  52.346  48.887  1.00  0.00     0.029 A 
HETATM   14  C   UNL     1      20.230  51.954  48.363  1.00  0.00     0.005 A 
HETATM   15  C   UNL     1      20.640  50.626  48.469  1.00  0.00     0.037 A 
BRANCH  12  16
HETATM   16  N   UNL     1      16.938  51.890  50.033  1.00  0.00    -0.327 N 
HETATM   17  C   UNL     1      15.735  52.012  49.361  1.00  0.00     0.218 C 
HETATM   18  C   UNL     1      14.632  52.553  50.238  1.00  0.00     0.117 C 
HETATM   19  O   UNL     1      15.520  51.757  48.181  1.00  0.00    -0.274 OA
HETATM   20  H   UNL     1      16.947  52.173  51.005  1.00  0.00     0.169 HD
ENDBRANCH  12  16
ENDBRANCH   9  10
ENDBRANCH   8   9
ENDBRANCH   7   8
ENDBRANCH   6   7
ENDBRANCH   5   6
ENDBRANCH   1   5
BRANCH   2  21
HETATM   21  C   UNL     1      25.325  44.289  51.950  1.00  0.00     0.120 A 
HETATM   22  N   UNL     1      25.189  45.472  52.619  1.00  0.00    -0.272 N 
HETATM   23  H   UNL     1      24.447  46.155  52.499  1.00  0.00     0.189 HD
HETATM   24  N   UNL     1      26.167  45.724  53.501  1.00  0.00    -0.174 NA
HETATM   25  C   UNL     1      26.966  44.646  53.437  1.00  0.00     0.089 A 
HETATM   26  C   UNL     1      26.471  43.724  52.471  1.00  0.00     0.071 A 
BRANCH  25  27
HETATM   27  C   UNL     1      28.167  44.525  54.269  1.00  0.00    -0.003 A 
HETATM   28  C   UNL     1      28.386  45.423  55.329  1.00  0.00     0.050 A 
HETATM   29  C   UNL     1      29.534  45.331  56.119  1.00  0.00     0.069 A 
HETATM   30  C   UNL     1      30.468  44.329  55.854  1.00  0.00     0.037 A 
HETATM   31  C   UNL     1      30.263  43.425  54.813  1.00  0.00     0.004 A 
HETATM   32  C   UNL     1      29.117  43.524  54.021  1.00  0.00     0.014 A 
BRANCH  29  33
HETATM   33  O   UNL     1      29.858  46.150  57.166  1.00  0.00    -0.356 OA
HETATM   34  C   UNL     1      30.694  45.597  58.176  1.00  0.00     0.210 C 
ENDBRANCH  29  33
ENDBRANCH  25  27
ENDBRANCH   2  21
TORSDOF 10
ENDMDL
MODEL 8
REMARK VINA RESULT:      -8.5      2.984     11.999
REMARK  10 active torsions:
REMARK  status: ('A' for Active; 'I' for Inactive)
REMARK       I    between atoms: C_2  and  N_3 
REMARK    1  A    between atoms: N_3  and  C_4 
REMARK    2  A    between atoms: C_6  and  O_7 
REMARK    3  A    between atoms: O_7  and  C_8 
REMARK    4  A    between atoms: C_8  and  C_9 
REMARK    5  A    between atoms: C_9  and  C_10 
REMARK    6  A    between atoms: C_10  and  C_11 
REMARK    7  A    between atoms: C_11  and  N_12 
REMARK       I    between atoms: N_12  and  C_13 
REMARK    8  A    between atoms: C_13  and  C_14 
REMARK    9  A    between atoms: C_18  and  C_19 
REMARK   10  A    between atoms: C_21  and  O_22 
ROOT
HETATM    1  N   UNL     1      25.375  42.671  49.839  1.00  0.00    -0.345 N 
HETATM    2  C   UNL     1      26.129  41.605  50.259  1.00  0.00     0.270 C 
HETATM    3  O   UNL     1      26.130  40.527  49.675  1.00  0.00    -0.266 OA
HETATM    4  H   UNL     1      25.376  43.534  50.360  1.00  0.00     0.163 HD
ENDROOT
BRANCH   1   5
HETATM    5  C   UNL     1      24.526  42.566  48.682  1.00  0.00     0.217 C 
BRANCH   5   6
HETATM    6  C   UNL     1      23.825  43.832  48.466  1.00  0.00    -0.085 C 
BRANCH   6   7
HETATM    7  C   UNL     1      23.192  44.956  48.273  1.00  0.00    -0.078 C 
BRANCH   7   8
HETATM    8  C   UNL     1      22.455  46.266  48.047  1.00  0.00     0.269 C 
BRANCH   8   9
HETATM    9  O   UNL     1      22.656  47.130  49.163  1.00  0.00    -0.339 OA
BRANCH   9  10
HETATM   10  C   UNL     1      22.512  48.471  48.916  1.00  0.00     0.072 A 
HETATM   11  C   UNL     1      21.334  49.213  49.071  1.00  0.00     0.066 A 
HETATM   12  C   UNL     1      21.308  50.584  48.795  1.00  0.00     0.037 A 
HETATM   13  C   UNL     1      22.480  51.209  48.353  1.00  0.00     0.029 A 
HETATM   14  C   UNL     1      23.657  50.476  48.192  1.00  0.00     0.005 A 
HETATM   15  C   UNL     1      23.670  49.112  48.473  1.00  0.00     0.037 A 
BRANCH  12  16
HETATM   16  N   UNL     1      20.159  51.394  48.941  1.00  0.00    -0.327 N 
HETATM   17  C   UNL     1      19.137  51.249  49.862  1.00  0.00     0.218 C 
HETATM   18  C   UNL     1      18.075  52.312  49.720  1.00  0.00     0.117 C 
HETATM   19  O   UNL     1      19.024  50.368  50.707  1.00  0.00    -0.274 OA
HETATM   20  H   UNL     1      20.082  52.166  48.292  1.00  0.00     0.169 HD
ENDBRANCH  12  16
ENDBRANCH   9  10
ENDBRANCH   8   9
ENDBRANCH   7   8
ENDBRANCH   6   7
ENDBRANCH   5   6
ENDBRANCH   1   5
BRANCH   2  21
HETATM   21  C   UNL     1      26.913  41.836  51.441  1.00  0.00     0.120 A 
HETATM   22  N   UNL     1      27.250  40.817  52.286  1.00  0.00    -0.272 N 
HETATM   23  H   UNL     1      27.008  39.836  52.180  1.00  0.00     0.189 HD
HETATM   24  N   UNL     1      27.957  41.200  53.359  1.00  0.00    -0.174 NA
HETATM   25  C   UNL     1      28.123  42.523  53.201  1.00  0.00     0.089 A 
HETATM   26  C   UNL     1      27.478  42.960  52.008  1.00  0.00     0.071 A 
BRANCH  25  27
HETATM   27  C   UNL     1      28.864  43.330  54.175  1.00  0.00    -0.003 A 
HETATM   28  C   UNL     1      28.374  44.588  54.569  1.00  0.00     0.050 A 
HETATM   29  C   UNL     1      29.077  45.375  55.483  1.00  0.00     0.069 A 
HETATM   30  C   UNL     1      30.276  44.900  56.016  1.00  0.00     0.037 A 
HETATM   31  C   UNL     1      30.772  43.651  55.642  1.00  0.00     0.004 A 
HETATM   32  C   UNL     1      30.069  42.870  54.723  1.00  0.00     0.014 A 
BRANCH  29  33
HETATM   33  O   UNL     1      28.706  46.614  55.932  1.00  0.00    -0.356 OA
HETATM   34  C   UNL     1      27.592  47.220  55.287  1.00  0.00     0.210 C 
ENDBRANCH  29  33
ENDBRANCH  25  27
ENDBRANCH   2  21
TORSDOF 10
ENDMDL
MODEL 9
REMARK VINA RESULT:      -8.5      2.290     12.402
REMARK  10 active torsions:
REMARK  status: ('A' for Active; 'I' for Inactive)
REMARK       I    between atoms: C_2  and  N_3 
REMARK    1  A    between atoms: N_3  and  C_4 
REMARK    2  A    between atoms: C_6  and  O_7 
REMARK    3  A    between atoms: O_7  and  C_8 
REMARK    4  A    between atoms: C_8  and  C_9 
REMARK    5  A    between atoms: C_9  and  C_10 
REMARK    6  A    between atoms: C_10  and  C_11 
REMARK    7  A    between atoms: C_11  and  N_12 
REMARK       I    between atoms: N_12  and  C_13 
REMARK    8  A    between atoms: C_13  and  C_14 
REMARK    9  A    between atoms: C_18  and  C_19 
REMARK   10  A    between atoms: C_21  and  O_22 
ROOT
HETATM    1  N   UNL     1      25.190  45.047  50.387  1.00  0.00    -0.345 N 
HETATM    2  C   UNL     1      25.197  44.098  51.377  1.00  0.00     0.270 C 
HETATM    3  O   UNL     1      24.199  43.450  51.675  1.00  0.00    -0.266 OA
HETATM    4  H   UNL     1      26.021  45.582  50.187  1.00  0.00     0.163 HD
ENDROOT
BRANCH   1   5
HETATM    5  C   UNL     1      23.991  45.339  49.649  1.00  0.00     0.217 C 
BRANCH   5   6
HETATM    6  C   UNL     1      23.892  46.779  49.413  1.00  0.00    -0.085 C 
BRANCH   6   7
HETATM    7  C   UNL     1      23.795  48.063  49.203  1.00  0.00    -0.078 C 
BRANCH   7   8
HETATM    8  C   UNL     1      23.680  49.559  48.958  1.00  0.00     0.269 C 
BRANCH   8   9
HETATM    9  O   UNL     1      22.778  50.133  49.901  1.00  0.00    -0.339 OA
BRANCH   9  10
HETATM   10  C   UNL     1      21.490  50.312  49.464  1.00  0.00     0.072 A 
HETATM   11  C   UNL     1      20.453  49.376  49.561  1.00  0.00     0.066 A 
HETATM   12  C   UNL     1      19.171  49.674  49.087  1.00  0.00     0.037 A 
HETATM   13  C   UNL     1      18.937  50.926  48.505  1.00  0.00     0.029 A 
HETATM   14  C   UNL     1      19.966  51.863  48.402  1.00  0.00     0.005 A 
HETATM   15  C   UNL     1      21.238  51.555  48.881  1.00  0.00     0.037 A 
BRANCH  12  16
HETATM   16  N   UNL     1      18.078  48.782  49.162  1.00  0.00    -0.327 N 
HETATM   17  C   UNL     1      17.893  47.613  48.445  1.00  0.00     0.218 C 
HETATM   18  C   UNL     1      16.601  46.915  48.798  1.00  0.00     0.117 C 
HETATM   19  O   UNL     1      18.634  47.149  47.585  1.00  0.00    -0.274 OA
HETATM   20  H   UNL     1      17.349  49.035  49.817  1.00  0.00     0.169 HD
ENDBRANCH  12  16
ENDBRANCH   9  10
ENDBRANCH   8   9
ENDBRANCH   7   8
ENDBRANCH   6   7
ENDBRANCH   5   6
ENDBRANCH   1   5
BRANCH   2  21
HETATM   21  C   UNL     1      26.454  43.924  52.052  1.00  0.00     0.120 A 
HETATM   22  N   UNL     1      27.464  43.187  51.503  1.00  0.00    -0.272 N 
HETATM   23  H   UNL     1      27.450  42.711  50.606  1.00  0.00     0.189 HD
HETATM   24  N   UNL     1      28.560  43.094  52.270  1.00  0.00    -0.174 NA
HETATM   25  C   UNL     1      28.275  43.829  53.358  1.00  0.00     0.089 A 
HETATM   26  C   UNL     1      26.959  44.364  53.259  1.00  0.00     0.071 A 
BRANCH  25  27
HETATM   27  C   UNL     1      29.236  43.991  54.453  1.00  0.00    -0.003 A 
HETATM   28  C   UNL     1      29.041  44.991  55.422  1.00  0.00     0.050 A 
HETATM   29  C   UNL     1      29.957  45.168  56.462  1.00  0.00     0.069 A 
HETATM   30  C   UNL     1      31.073  44.335  56.540  1.00  0.00     0.037 A 
HETATM   31  C   UNL     1      31.278  43.333  55.592  1.00  0.00     0.004 A 
HETATM   32  C   UNL     1      30.363  43.163  54.551  1.00  0.00     0.014 A 
BRANCH  29  33
HETATM   33  O   UNL     1      29.877  46.109  57.452  1.00  0.00    -0.356 OA
HETATM   34  C   UNL     1      28.579  46.403  57.953  1.00  0.00     0.210 C 
ENDBRANCH  29  33
ENDBRANCH  25  27
ENDBRANCH   2  21
TORSDOF 10
ENDMDL
MODEL 10
REMARK VINA RESULT:      -8.4      1.831      2.980
REMARK  10 active torsions:
REMARK  status: ('A' for Active; 'I' for Inactive)
REMARK       I    between atoms: C_2  and  N_3 
REMARK    1  A    between atoms: N_3  and  C_4 
REMARK    2  A    between atoms: C_6  and  O_7 
REMARK    3  A    between atoms: O_7  and  C_8 
REMARK    4  A    between atoms: C_8  and  C_9 
REMARK    5  A    between atoms: C_9  and  C_10 
REMARK    6  A    between atoms: C_10  and  C_11 
REMARK    7  A    between atoms: C_11  and  N_12 
REMARK       I    between atoms: N_12  and  C_13 
REMARK    8  A    between atoms: C_13  and  C_14 
REMARK    9  A    between atoms: C_18  and  C_19 
REMARK   10  A    between atoms: C_21  and  O_22 
ROOT
HETATM    1  N   UNL     1      24.261  47.350  49.917  1.00  0.00    -0.345 N 
HETATM    2  C   UNL     1      24.005  48.606  49.429  1.00  0.00     0.270 C 
HETATM    3  O   UNL     1      24.899  49.392  49.130  1.00  0.00    -0.266 OA
HETATM    4  H   UNL     1      23.503  46.741  50.180  1.00  0.00     0.163 HD
ENDROOT
BRANCH   1   5
HETATM    5  C   UNL     1      25.611  46.894  50.116  1.00  0.00     0.217 C 
BRANCH   5   6
HETATM    6  C   UNL     1      25.973  47.019  51.528  1.00  0.00    -0.085 C 
BRANCH   6   7
HETATM    7  C   UNL     1      26.294  47.122  52.788  1.00  0.00    -0.078 C 
BRANCH   7   8
HETATM    8  C   UNL     1      26.667  47.241  54.257  1.00  0.00     0.269 C 
BRANCH   8   9
HETATM    9  O   UNL     1      26.398  46.010  54.923  1.00  0.00    -0.339 OA
BRANCH   9  10
HETATM   10  C   UNL     1      27.136  44.931  54.507  1.00  0.00     0.072 A 
HETATM   11  C   UNL     1      26.673  43.879  53.708  1.00  0.00     0.066 A 
HETATM   12  C   UNL     1      27.523  42.831  53.338  1.00  0.00     0.037 A 
HETATM   13  C   UNL     1      28.850  42.844  53.786  1.00  0.00     0.029 A 
HETATM   14  C   UNL     1      29.318  43.887  54.586  1.00  0.00     0.005 A 
HETATM   15  C   UNL     1      28.462  44.926  54.944  1.00  0.00     0.037 A 
BRANCH  12  16
HETATM   16  N   UNL     1      27.125  41.745  52.526  1.00  0.00    -0.327 N 
HETATM   17  C   UNL     1      26.888  41.755  51.163  1.00  0.00     0.218 C 
HETATM   18  C   UNL     1      26.485  40.399  50.636  1.00  0.00     0.117 C 
HETATM   19  O   UNL     1      26.950  42.720  50.410  1.00  0.00    -0.274 OA
HETATM   20  H   UNL     1      27.000  40.862  53.004  1.00  0.00     0.169 HD
ENDBRANCH  12  16
ENDBRANCH   9  10
ENDBRANCH   8   9
ENDBRANCH   7   8
ENDBRANCH   6   7
ENDBRANCH   5   6
ENDBRANCH   1   5
BRANCH   2  21
HETATM   21  C   UNL     1      22.614  48.944  49.303  1.00  0.00     0.120 A 
HETATM   22  N   UNL     1      21.642  47.985  49.305  1.00  0.00    -0.272 N 
HETATM   23  H   UNL     1      21.779  46.983  49.397  1.00  0.00     0.189 HD
HETATM   24  N   UNL     1      20.397  48.460  49.148  1.00  0.00    -0.174 NA
HETATM   25  C   UNL     1      20.550  49.792  49.074  1.00  0.00     0.089 A 
HETATM   26  C   UNL     1      21.929  50.135  49.165  1.00  0.00     0.071 A 
BRANCH  25  27
HETATM   27  C   UNL     1      19.405  50.692  48.906  1.00  0.00    -0.003 A 
HETATM   28  C   UNL     1      18.665  50.679  47.710  1.00  0.00     0.050 A 
HETATM   29  C   UNL     1      17.582  51.542  47.530  1.00  0.00     0.069 A 
HETATM   30  C   UNL     1      17.229  52.420  48.556  1.00  0.00     0.037 A 
HETATM   31  C   UNL     1      17.947  52.441  49.751  1.00  0.00     0.004 A 
HETATM   32  C   UNL     1      19.032  51.580  49.925  1.00  0.00     0.014 A 
BRANCH  29  33
HETATM   33  O   UNL     1      16.797  51.626  46.412  1.00  0.00    -0.356 OA
HETATM   34  C   UNL     1      15.439  51.997  46.611  1.00  0.00     0.210 C 
ENDBRANCH  29  33
ENDBRANCH  25  27
ENDBRANCH   2  21
TORSDOF 10
ENDMDL
