MODEL 1
REMARK VINA RESULT:     -10.1      0.000      0.000
REMARK  3 active torsions:
REMARK  status: ('A' for Active; 'I' for Inactive)
REMARK    1  A    between atoms: C_7  and  C_8 
REMARK    2  A    between atoms: C_12  and  C_13 
REMARK    3  A    between atoms: C_16  and  C_17 
ROOT
HETATM    1  C   UNL     1      25.221  46.973  52.580  1.00  0.00     0.048 C 
HETATM    2  C   UNL     1      26.411  46.518  53.371  1.00  0.00    -0.061 A 
HETATM    3  C   UNL     1      26.991  45.263  53.156  1.00  0.00     0.021 A 
HETATM    4  C   UNL     1      28.135  44.821  53.881  1.00  0.00     0.008 A 
HETATM    5  C   UNL     1      28.674  45.690  54.850  1.00  0.00     0.068 A 
HETATM    6  N   UNL     1      29.729  45.375  55.611  1.00  0.00    -0.252 NA
HETATM    7  C   UNL     1      30.334  44.176  55.482  1.00  0.00     0.040 A 
HETATM    8  C   UNL     1      29.877  43.256  54.549  1.00  0.00     0.044 A 
HETATM    9  C   UNL     1      28.780  43.563  53.727  1.00  0.00     0.034 A 
HETATM   10  C   UNL     1      28.098  46.937  55.043  1.00  0.00     0.033 A 
HETATM   11  C   UNL     1      26.985  47.361  54.315  1.00  0.00     0.009 A 
ENDROOT
BRANCH   9  12
HETATM   12  C   UNL     1      28.356  42.582  52.729  1.00  0.00     0.207 A 
HETATM   13  O   UNL     1      27.201  42.859  52.041  1.00  0.00    -0.191 OA
HETATM   14  N   UNL     1      26.992  41.802  51.149  1.00  0.00    -0.108 NA
HETATM   15  C   UNL     1      28.040  41.010  51.372  1.00  0.00     0.189 A 
HETATM   16  N   UNL     1      28.895  41.433  52.360  1.00  0.00    -0.202 NA
BRANCH  15  17
HETATM   17  C   UNL     1      28.283  39.725  50.652  1.00  0.00     0.282 C 
HETATM   18  N   UNL     1      29.441  38.967  51.311  1.00  0.00    -0.060 N 
HETATM   19  H   UNL     1      30.208  39.643  51.442  1.00  0.00     0.278 HD
HETATM   20  H   UNL     1      29.153  38.700  52.262  1.00  0.00     0.278 HD
HETATM   21  C   UNL     1      29.884  37.767  50.535  1.00  0.00     0.259 C 
HETATM   22  C   UNL     1      30.180  38.170  49.090  1.00  0.00     0.195 C 
HETATM   23  O   UNL     1      29.022  38.773  48.499  1.00  0.00    -0.387 OA
HETATM   24  C   UNL     1      28.645  39.983  49.174  1.00  0.00     0.208 C 
ENDBRANCH  15  17
ENDBRANCH   9  12
BRANCH   7  25
HETATM   25  C   UNL     1      31.501  43.855  56.385  1.00  0.00     0.038 A 
HETATM   26  C   UNL     1      31.411  44.114  57.872  1.00  0.00     0.011 A 
HETATM   27  C   UNL     1      31.398  42.704  57.361  1.00  0.00     0.011 A 
ENDBRANCH   7  25
TORSDOF 3
ENDMDL
MODEL 2
REMARK VINA RESULT:      -9.9      1.441      4.276
REMARK  3 active torsions:
REMARK  status: ('A' for Active; 'I' for Inactive)
REMARK    1  A    between atoms: C_7  and  C_8 
REMARK    2  A    between atoms: C_12  and  C_13 
REMARK    3  A    between atoms: C_16  and  C_17 
ROOT
HETATM    1  C   UNL     1      31.756  43.335  56.865  1.00  0.00     0.048 C 
HETATM    2  C   UNL     1      30.667  44.118  56.196  1.00  0.00    -0.061 A 
HETATM    3  C   UNL     1      29.951  43.592  55.114  1.00  0.00     0.021 A 
HETATM    4  C   UNL     1      28.898  44.310  54.480  1.00  0.00     0.008 A 
HETATM    5  C   UNL     1      28.594  45.597  54.966  1.00  0.00     0.068 A 
HETATM    6  N   UNL     1      27.645  46.377  54.433  1.00  0.00    -0.252 NA
HETATM    7  C   UNL     1      26.923  45.953  53.375  1.00  0.00     0.040 A 
HETATM    8  C   UNL     1      27.148  44.697  52.831  1.00  0.00     0.044 A 
HETATM    9  C   UNL     1      28.127  43.851  53.376  1.00  0.00     0.034 A 
HETATM   10  C   UNL     1      29.302  46.101  56.048  1.00  0.00     0.033 A 
HETATM   11  C   UNL     1      30.322  45.379  56.669  1.00  0.00     0.009 A 
ENDROOT
BRANCH   9  12
HETATM   12  C   UNL     1      28.304  42.519  52.797  1.00  0.00     0.207 A 
HETATM   13  O   UNL     1      28.667  41.514  53.659  1.00  0.00    -0.191 OA
HETATM   14  N   UNL     1      28.773  40.343  52.900  1.00  0.00    -0.108 NA
HETATM   15  C   UNL     1      28.450  40.751  51.673  1.00  0.00     0.189 A 
HETATM   16  N   UNL     1      28.182  42.092  51.552  1.00  0.00    -0.202 NA
BRANCH  15  17
HETATM   17  C   UNL     1      28.411  39.855  50.480  1.00  0.00     0.282 C 
HETATM   18  N   UNL     1      26.976  39.372  50.236  1.00  0.00    -0.060 N 
HETATM   19  H   UNL     1      26.609  39.047  51.143  1.00  0.00     0.278 HD
HETATM   20  H   UNL     1      26.399  40.187  49.989  1.00  0.00     0.278 HD
HETATM   21  C   UNL     1      26.877  38.313  49.184  1.00  0.00     0.259 C 
HETATM   22  C   UNL     1      27.844  37.173  49.509  1.00  0.00     0.195 C 
HETATM   23  O   UNL     1      29.181  37.676  49.616  1.00  0.00    -0.387 OA
HETATM   24  C   UNL     1      29.314  38.621  50.688  1.00  0.00     0.208 C 
ENDBRANCH  15  17
ENDBRANCH   9  12
BRANCH   7  25
HETATM   25  C   UNL     1      25.886  46.881  52.790  1.00  0.00     0.038 A 
HETATM   26  C   UNL     1      26.074  47.464  51.408  1.00  0.00     0.011 A 
HETATM   27  C   UNL     1      25.028  46.414  51.637  1.00  0.00     0.011 A 
ENDBRANCH   7  25
TORSDOF 3
ENDMDL
MODEL 3
REMARK VINA RESULT:      -9.6      3.251      7.321
REMARK  3 active torsions:
REMARK  status: ('A' for Active; 'I' for Inactive)
REMARK    1  A    between atoms: C_7  and  C_8 
REMARK    2  A    between atoms: C_12  and  C_13 
REMARK    3  A    between atoms: C_16  and  C_17 
ROOT
HETATM    1  C   UNL     1      29.008  45.439  55.434  1.00  0.00     0.048 C 
HETATM    2  C   UNL     1      28.860  44.305  54.464  1.00  0.00    -0.061 A 
HETATM    3  C   UNL     1      28.204  44.476  53.240  1.00  0.00     0.021 A 
HETATM    4  C   UNL     1      28.073  43.418  52.295  1.00  0.00     0.008 A 
HETATM    5  C   UNL     1      28.619  42.164  52.633  1.00  0.00     0.068 A 
HETATM    6  N   UNL     1      28.534  41.089  51.839  1.00  0.00    -0.252 NA
HETATM    7  C   UNL     1      27.899  41.164  50.650  1.00  0.00     0.040 A 
HETATM    8  C   UNL     1      27.335  42.359  50.230  1.00  0.00     0.044 A 
HETATM    9  C   UNL     1      27.419  43.507  51.035  1.00  0.00     0.034 A 
HETATM   10  C   UNL     1      29.279  42.013  53.844  1.00  0.00     0.033 A 
HETATM   11  C   UNL     1      29.412  43.063  54.753  1.00  0.00     0.009 A 
ENDROOT
BRANCH   9  12
HETATM   12  C   UNL     1      26.846  44.757  50.536  1.00  0.00     0.207 A 
HETATM   13  O   UNL     1      27.587  45.452  49.614  1.00  0.00    -0.191 OA
HETATM   14  N   UNL     1      26.854  46.595  49.277  1.00  0.00    -0.108 NA
HETATM   15  C   UNL     1      25.749  46.468  50.010  1.00  0.00     0.189 A 
HETATM   16  N   UNL     1      25.709  45.365  50.827  1.00  0.00    -0.202 NA
BRANCH  15  17
HETATM   17  C   UNL     1      24.626  47.453  50.004  1.00  0.00     0.282 C 
HETATM   18  N   UNL     1      23.410  46.854  49.288  1.00  0.00    -0.060 N 
HETATM   19  H   UNL     1      23.750  46.448  48.403  1.00  0.00     0.278 HD
HETATM   20  H   UNL     1      23.072  46.054  49.839  1.00  0.00     0.278 HD
HETATM   21  C   UNL     1      22.310  47.842  49.058  1.00  0.00     0.259 C 
HETATM   22  C   UNL     1      22.869  49.080  48.354  1.00  0.00     0.195 C 
HETATM   23  O   UNL     1      23.929  49.652  49.130  1.00  0.00    -0.387 OA
HETATM   24  C   UNL     1      25.035  48.749  49.273  1.00  0.00     0.208 C 
ENDBRANCH  15  17
ENDBRANCH   9  12
BRANCH   7  25
HETATM   25  C   UNL     1      27.803  39.917  49.805  1.00  0.00     0.038 A 
HETATM   26  C   UNL     1      28.826  39.643  48.725  1.00  0.00     0.011 A 
HETATM   27  C   UNL     1      28.824  38.815  49.975  1.00  0.00     0.011 A 
ENDBRANCH   7  25
TORSDOF 3
ENDMDL
MODEL 4
REMARK VINA RESULT:      -9.2      3.144      7.047
REMARK  3 active torsions:
REMARK  status: ('A' for Active; 'I' for Inactive)
REMARK    1  A    between atoms: C_7  and  C_8 
REMARK    2  A    between atoms: C_12  and  C_13 
REMARK    3  A    between atoms: C_16  and  C_17 
ROOT
HETATM    1  C   UNL     1      28.704  45.529  55.164  1.00  0.00     0.048 C 
HETATM    2  C   UNL     1      28.725  44.307  54.297  1.00  0.00    -0.061 A 
HETATM    3  C   UNL     1      27.784  44.122  53.277  1.00  0.00     0.021 A 
HETATM    4  C   UNL     1      27.800  42.979  52.428  1.00  0.00     0.008 A 
HETATM    5  C   UNL     1      28.797  42.009  52.650  1.00  0.00     0.068 A 
HETATM    6  N   UNL     1      28.895  40.881  51.935  1.00  0.00    -0.252 NA
HETATM    7  C   UNL     1      28.015  40.617  50.947  1.00  0.00     0.040 A 
HETATM    8  C   UNL     1      27.002  41.517  50.652  1.00  0.00     0.044 A 
HETATM    9  C   UNL     1      26.881  42.715  51.375  1.00  0.00     0.034 A 
HETATM   10  C   UNL     1      29.732  42.211  53.656  1.00  0.00     0.033 A 
HETATM   11  C   UNL     1      29.712  43.343  54.470  1.00  0.00     0.009 A 
ENDROOT
BRANCH   9  12
HETATM   12  C   UNL     1      25.823  43.654  51.004  1.00  0.00     0.207 A 
HETATM   13  O   UNL     1      24.666  43.605  51.741  1.00  0.00    -0.191 OA
HETATM   14  N   UNL     1      23.808  44.581  51.221  1.00  0.00    -0.108 NA
HETATM   15  C   UNL     1      24.531  45.125  50.244  1.00  0.00     0.189 A 
HETATM   16  N   UNL     1      25.771  44.567  50.050  1.00  0.00    -0.202 NA
BRANCH  15  17
HETATM   17  C   UNL     1      24.050  46.237  49.371  1.00  0.00     0.282 C 
HETATM   18  N   UNL     1      23.847  47.507  50.206  1.00  0.00    -0.060 N 
HETATM   19  H   UNL     1      23.311  47.234  51.044  1.00  0.00     0.278 HD
HETATM   20  H   UNL     1      24.763  47.810  50.561  1.00  0.00     0.278 HD
HETATM   21  C   UNL     1      23.177  48.612  49.454  1.00  0.00     0.259 C 
HETATM   22  C   UNL     1      21.881  48.095  48.826  1.00  0.00     0.195 C 
HETATM   23  O   UNL     1      22.157  46.978  47.973  1.00  0.00    -0.387 OA
HETATM   24  C   UNL     1      22.709  45.871  48.702  1.00  0.00     0.208 C 
ENDBRANCH  15  17
ENDBRANCH   9  12
BRANCH   7  25
HETATM   25  C   UNL     1      28.149  39.318  50.190  1.00  0.00     0.038 A 
HETATM   26  C   UNL     1      29.092  39.211  49.014  1.00  0.00     0.011 A 
HETATM   27  C   UNL     1      29.425  38.514  50.299  1.00  0.00     0.011 A 
ENDBRANCH   7  25
TORSDOF 3
ENDMDL
MODEL 5
REMARK VINA RESULT:      -9.1      4.719      8.520
REMARK  3 active torsions:
REMARK  status: ('A' for Active; 'I' for Inactive)
REMARK    1  A    between atoms: C_7  and  C_8 
REMARK    2  A    between atoms: C_12  and  C_13 
REMARK    3  A    between atoms: C_16  and  C_17 
ROOT
HETATM    1  C   UNL     1      26.586  48.188  55.241  1.00  0.00     0.048 C 
HETATM    2  C   UNL     1      26.741  47.043  54.286  1.00  0.00    -0.061 A 
HETATM    3  C   UNL     1      26.204  47.095  52.994  1.00  0.00     0.021 A 
HETATM    4  C   UNL     1      26.359  46.028  52.064  1.00  0.00     0.008 A 
HETATM    5  C   UNL     1      27.069  44.887  52.486  1.00  0.00     0.068 A 
HETATM    6  N   UNL     1      27.256  43.811  51.711  1.00  0.00    -0.252 NA
HETATM    7  C   UNL     1      26.753  43.772  50.460  1.00  0.00     0.040 A 
HETATM    8  C   UNL     1      26.044  44.852  49.955  1.00  0.00     0.044 A 
HETATM    9  C   UNL     1      25.843  46.000  50.739  1.00  0.00     0.034 A 
HETATM   10  C   UNL     1      27.608  44.854  53.765  1.00  0.00     0.033 A 
HETATM   11  C   UNL     1      27.459  45.914  54.660  1.00  0.00     0.009 A 
ENDROOT
BRANCH   9  12
HETATM   12  C   UNL     1      25.126  47.132  50.153  1.00  0.00     0.207 A 
HETATM   13  O   UNL     1      25.887  48.183  49.707  1.00  0.00    -0.191 OA
HETATM   14  N   UNL     1      25.005  49.137  49.189  1.00  0.00    -0.108 NA
HETATM   15  C   UNL     1      23.813  48.566  49.358  1.00  0.00     0.189 A 
HETATM   16  N   UNL     1      23.832  47.340  49.977  1.00  0.00    -0.202 NA
BRANCH  15  17
HETATM   17  C   UNL     1      22.521  49.196  48.954  1.00  0.00     0.282 C 
HETATM   18  N   UNL     1      22.078  50.206  50.019  1.00  0.00    -0.060 N 
HETATM   19  H   UNL     1      22.165  49.738  50.934  1.00  0.00     0.278 HD
HETATM   20  H   UNL     1      22.764  50.972  50.044  1.00  0.00     0.278 HD
HETATM   21  C   UNL     1      20.697  50.737  49.797  1.00  0.00     0.259 C 
HETATM   22  C   UNL     1      19.719  49.573  49.632  1.00  0.00     0.195 C 
HETATM   23  O   UNL     1      20.133  48.729  48.551  1.00  0.00    -0.387 OA
HETATM   24  C   UNL     1      21.415  48.132  48.798  1.00  0.00     0.208 C 
ENDBRANCH  15  17
ENDBRANCH   9  12
BRANCH   7  25
HETATM   25  C   UNL     1      26.963  42.524  49.636  1.00  0.00     0.038 A 
HETATM   26  C   UNL     1      26.192  41.262  49.950  1.00  0.00     0.011 A 
HETATM   27  C   UNL     1      25.867  42.043  48.712  1.00  0.00     0.011 A 
ENDBRANCH   7  25
TORSDOF 3
ENDMDL
MODEL 6
REMARK VINA RESULT:      -8.9      4.067      7.276
REMARK  3 active torsions:
REMARK  status: ('A' for Active; 'I' for Inactive)
REMARK    1  A    between atoms: C_7  and  C_8 
REMARK    2  A    between atoms: C_12  and  C_13 
REMARK    3  A    between atoms: C_16  and  C_17 
ROOT
HETATM    1  C   UNL     1      26.712  41.673  48.361  1.00  0.00     0.048 C 
HETATM    2  C   UNL     1      27.001  42.242  49.718  1.00  0.00    -0.061 A 
HETATM    3  C   UNL     1      26.530  43.506  50.092  1.00  0.00     0.021 A 
HETATM    4  C   UNL     1      26.775  44.055  51.383  1.00  0.00     0.008 A 
HETATM    5  C   UNL     1      27.528  43.287  52.292  1.00  0.00     0.068 A 
HETATM    6  N   UNL     1      27.845  43.708  53.523  1.00  0.00    -0.252 NA
HETATM    7  C   UNL     1      27.447  44.924  53.954  1.00  0.00     0.040 A 
HETATM    8  C   UNL     1      26.696  45.749  53.130  1.00  0.00     0.044 A 
HETATM    9  C   UNL     1      26.337  45.330  51.839  1.00  0.00     0.034 A 
HETATM   10  C   UNL     1      27.976  42.029  51.913  1.00  0.00     0.033 A 
HETATM   11  C   UNL     1      27.717  41.499  50.649  1.00  0.00     0.009 A 
ENDROOT
BRANCH   9  12
HETATM   12  C   UNL     1      25.510  46.214  51.019  1.00  0.00     0.207 A 
HETATM   13  O   UNL     1      25.890  47.531  50.954  1.00  0.00    -0.191 OA
HETATM   14  N   UNL     1      24.972  48.182  50.122  1.00  0.00    -0.108 NA
HETATM   15  C   UNL     1      24.149  47.199  49.759  1.00  0.00     0.189 A 
HETATM   16  N   UNL     1      24.421  45.971  50.311  1.00  0.00    -0.202 NA
BRANCH  15  17
HETATM   17  C   UNL     1      22.977  47.385  48.852  1.00  0.00     0.282 C 
HETATM   18  N   UNL     1      21.980  48.365  49.481  1.00  0.00    -0.060 N 
HETATM   19  H   UNL     1      21.839  48.066  50.458  1.00  0.00     0.278 HD
HETATM   20  H   UNL     1      22.430  49.288  49.544  1.00  0.00     0.278 HD
HETATM   21  C   UNL     1      20.685  48.455  48.736  1.00  0.00     0.259 C 
HETATM   22  C   UNL     1      20.105  47.053  48.542  1.00  0.00     0.195 C 
HETATM   23  O   UNL     1      21.045  46.221  47.852  1.00  0.00    -0.387 OA
HETATM   24  C   UNL     1      22.255  46.044  48.604  1.00  0.00     0.208 C 
ENDBRANCH  15  17
ENDBRANCH   9  12
BRANCH   7  25
HETATM   25  C   UNL     1      27.856  45.367  55.338  1.00  0.00     0.038 A 
HETATM   26  C   UNL     1      29.270  45.832  55.606  1.00  0.00     0.011 A 
HETATM   27  C   UNL     1      28.148  46.827  55.602  1.00  0.00     0.011 A 
ENDBRANCH   7  25
TORSDOF 3
ENDMDL
MODEL 7
REMARK VINA RESULT:      -8.7      2.275      4.976
REMARK  3 active torsions:
REMARK  status: ('A' for Active; 'I' for Inactive)
REMARK    1  A    between atoms: C_7  and  C_8 
REMARK    2  A    between atoms: C_12  and  C_13 
REMARK    3  A    between atoms: C_16  and  C_17 
ROOT
HETATM    1  C   UNL     1      30.148  42.834  54.828  1.00  0.00     0.048 C 
HETATM    2  C   UNL     1      29.110  43.725  54.214  1.00  0.00    -0.061 A 
HETATM    3  C   UNL     1      28.533  43.424  52.974  1.00  0.00     0.021 A 
HETATM    4  C   UNL     1      27.530  44.245  52.385  1.00  0.00     0.008 A 
HETATM    5  C   UNL     1      27.131  45.401  53.085  1.00  0.00     0.068 A 
HETATM    6  N   UNL     1      26.218  46.263  52.620  1.00  0.00    -0.252 NA
HETATM    7  C   UNL     1      25.629  46.056  51.423  1.00  0.00     0.040 A 
HETATM    8  C   UNL     1      25.954  44.942  50.664  1.00  0.00     0.044 A 
HETATM    9  C   UNL     1      26.898  44.013  51.132  1.00  0.00     0.034 A 
HETATM   10  C   UNL     1      27.701  45.680  54.319  1.00  0.00     0.033 A 
HETATM   11  C   UNL     1      28.673  44.858  54.891  1.00  0.00     0.009 A 
ENDROOT
BRANCH   9  12
HETATM   12  C   UNL     1      27.182  42.831  50.318  1.00  0.00     0.207 A 
HETATM   13  O   UNL     1      27.179  43.003  48.957  1.00  0.00    -0.191 OA
HETATM   14  N   UNL     1      27.475  41.760  48.387  1.00  0.00    -0.108 NA
HETATM   15  C   UNL     1      27.641  40.975  49.450  1.00  0.00     0.189 A 
HETATM   16  N   UNL     1      27.441  41.583  50.666  1.00  0.00    -0.202 NA
BRANCH  15  17
HETATM   17  C   UNL     1      27.981  39.523  49.371  1.00  0.00     0.282 C 
HETATM   18  N   UNL     1      28.518  39.188  47.974  1.00  0.00    -0.060 N 
HETATM   19  H   UNL     1      27.869  39.609  47.293  1.00  0.00     0.278 HD
HETATM   20  H   UNL     1      29.407  39.688  47.842  1.00  0.00     0.278 HD
HETATM   21  C   UNL     1      28.694  37.721  47.741  1.00  0.00     0.259 C 
HETATM   22  C   UNL     1      27.394  36.988  48.074  1.00  0.00     0.195 C 
HETATM   23  O   UNL     1      27.006  37.257  49.426  1.00  0.00    -0.387 OA
HETATM   24  C   UNL     1      26.736  38.651  49.638  1.00  0.00     0.208 C 
ENDBRANCH  15  17
ENDBRANCH   9  12
BRANCH   7  25
HETATM   25  C   UNL     1      24.629  47.073  50.927  1.00  0.00     0.038 A 
HETATM   26  C   UNL     1      24.948  47.938  49.728  1.00  0.00     0.011 A 
HETATM   27  C   UNL     1      23.924  46.849  49.608  1.00  0.00     0.011 A 
ENDBRANCH   7  25
TORSDOF 3
ENDMDL
MODEL 8
REMARK VINA RESULT:      -8.6      3.309      7.139
REMARK  3 active torsions:
REMARK  status: ('A' for Active; 'I' for Inactive)
REMARK    1  A    between atoms: C_7  and  C_8 
REMARK    2  A    between atoms: C_12  and  C_13 
REMARK    3  A    between atoms: C_16  and  C_17 
ROOT
HETATM    1  C   UNL     1      26.401  39.512  47.582  1.00  0.00     0.048 C 
HETATM    2  C   UNL     1      27.006  39.966  48.876  1.00  0.00    -0.061 A 
HETATM    3  C   UNL     1      26.591  41.150  49.498  1.00  0.00     0.021 A 
HETATM    4  C   UNL     1      27.137  41.587  50.738  1.00  0.00     0.008 A 
HETATM    5  C   UNL     1      28.136  40.791  51.334  1.00  0.00     0.068 A 
HETATM    6  N   UNL     1      28.742  41.113  52.483  1.00  0.00    -0.252 NA
HETATM    7  C   UNL     1      28.415  42.248  53.136  1.00  0.00     0.040 A 
HETATM    8  C   UNL     1      27.438  43.092  52.628  1.00  0.00     0.044 A 
HETATM    9  C   UNL     1      26.775  42.775  51.432  1.00  0.00     0.034 A 
HETATM   10  C   UNL     1      28.528  39.613  50.714  1.00  0.00     0.033 A 
HETATM   11  C   UNL     1      27.973  39.191  49.505  1.00  0.00     0.009 A 
ENDROOT
BRANCH   9  12
HETATM   12  C   UNL     1      25.723  43.672  50.953  1.00  0.00     0.207 A 
HETATM   13  O   UNL     1      24.470  43.493  51.484  1.00  0.00    -0.191 OA
HETATM   14  N   UNL     1      23.636  44.449  50.895  1.00  0.00    -0.108 NA
HETATM   15  C   UNL     1      24.464  45.113  50.089  1.00  0.00     0.189 A 
HETATM   16  N   UNL     1      25.757  44.652  50.067  1.00  0.00    -0.202 NA
BRANCH  15  17
HETATM   17  C   UNL     1      24.048  46.257  49.225  1.00  0.00     0.282 C 
HETATM   18  N   UNL     1      23.635  47.448  50.097  1.00  0.00    -0.060 N 
HETATM   19  H   UNL     1      22.998  47.085  50.822  1.00  0.00     0.278 HD
HETATM   20  H   UNL     1      24.465  47.777  50.609  1.00  0.00     0.278 HD
HETATM   21  C   UNL     1      23.014  48.567  49.321  1.00  0.00     0.259 C 
HETATM   22  C   UNL     1      21.866  48.024  48.468  1.00  0.00     0.195 C 
HETATM   23  O   UNL     1      22.343  46.990  47.599  1.00  0.00    -0.387 OA
HETATM   24  C   UNL     1      22.851  45.866  48.333  1.00  0.00     0.208 C 
ENDBRANCH  15  17
ENDBRANCH   9  12
BRANCH   7  25
HETATM   25  C   UNL     1      29.148  42.584  54.412  1.00  0.00     0.038 A 
HETATM   26  C   UNL     1      30.523  43.212  54.362  1.00  0.00     0.011 A 
HETATM   27  C   UNL     1      29.347  44.031  54.804  1.00  0.00     0.011 A 
ENDBRANCH   7  25
TORSDOF 3
ENDMDL
MODEL 9
REMARK VINA RESULT:      -8.5      4.854      9.003
REMARK  3 active torsions:
REMARK  status: ('A' for Active; 'I' for Inactive)
REMARK    1  A    between atoms: C_7  and  C_8 
REMARK    2  A    between atoms: C_12  and  C_13 
REMARK    3  A    between atoms: C_16  and  C_17 
ROOT
HETATM    1  C   UNL     1      22.924  42.192  48.646  1.00  0.00     0.048 C 
HETATM    2  C   UNL     1      22.727  43.649  48.352  1.00  0.00    -0.061 A 
HETATM    3  C   UNL     1      23.346  44.638  49.125  1.00  0.00     0.021 A 
HETATM    4  C   UNL     1      23.190  46.026  48.848  1.00  0.00     0.008 A 
HETATM    5  C   UNL     1      22.369  46.392  47.763  1.00  0.00     0.068 A 
HETATM    6  N   UNL     1      22.125  47.664  47.424  1.00  0.00    -0.252 NA
HETATM    7  C   UNL     1      22.667  48.678  48.131  1.00  0.00     0.040 A 
HETATM    8  C   UNL     1      23.494  48.414  49.213  1.00  0.00     0.044 A 
HETATM    9  C   UNL     1      23.779  47.091  49.585  1.00  0.00     0.034 A 
HETATM   10  C   UNL     1      21.772  45.401  46.997  1.00  0.00     0.033 A 
HETATM   11  C   UNL     1      21.947  44.044  47.271  1.00  0.00     0.009 A 
ENDROOT
BRANCH   9  12
HETATM   12  C   UNL     1      24.688  46.858  50.708  1.00  0.00     0.207 A 
HETATM   13  O   UNL     1      25.530  47.888  51.045  1.00  0.00    -0.191 OA
HETATM   14  N   UNL     1      26.295  47.452  52.132  1.00  0.00    -0.108 NA
HETATM   15  C   UNL     1      25.831  46.222  52.350  1.00  0.00     0.189 A 
HETATM   16  N   UNL     1      24.859  45.798  51.478  1.00  0.00    -0.202 NA
BRANCH  15  17
HETATM   17  C   UNL     1      26.333  45.321  53.430  1.00  0.00     0.282 C 
HETATM   18  N   UNL     1      27.369  46.058  54.287  1.00  0.00    -0.060 N 
HETATM   19  H   UNL     1      28.030  46.511  53.638  1.00  0.00     0.278 HD
HETATM   20  H   UNL     1      26.895  46.832  54.771  1.00  0.00     0.278 HD
HETATM   21  C   UNL     1      28.071  45.171  55.265  1.00  0.00     0.259 C 
HETATM   22  C   UNL     1      28.652  43.959  54.535  1.00  0.00     0.195 C 
HETATM   23  O   UNL     1      27.614  43.253  53.844  1.00  0.00    -0.387 OA
HETATM   24  C   UNL     1      26.999  44.064  52.832  1.00  0.00     0.208 C 
ENDBRANCH  15  17
ENDBRANCH   9  12
BRANCH   7  25
HETATM   25  C   UNL     1      22.337  50.095  47.729  1.00  0.00     0.038 A 
HETATM   26  C   UNL     1      21.407  50.933  48.576  1.00  0.00     0.011 A 
HETATM   27  C   UNL     1      22.873  51.250  48.545  1.00  0.00     0.011 A 
ENDBRANCH   7  25
TORSDOF 3
ENDMDL
MODEL 10
REMARK VINA RESULT:      -8.3      6.467     10.349
REMARK  3 active torsions:
REMARK  status: ('A' for Active; 'I' for Inactive)
REMARK    1  A    between atoms: C_7  and  C_8 
REMARK    2  A    between atoms: C_12  and  C_13 
REMARK    3  A    between atoms: C_16  and  C_17 
ROOT
HETATM    1  C   UNL     1      21.294  44.539  45.742  1.00  0.00     0.048 C 
HETATM    2  C   UNL     1      20.934  45.877  46.316  1.00  0.00    -0.061 A 
HETATM    3  C   UNL     1      21.740  46.495  47.279  1.00  0.00     0.021 A 
HETATM    4  C   UNL     1      21.428  47.776  47.820  1.00  0.00     0.008 A 
HETATM    5  C   UNL     1      20.258  48.415  47.364  1.00  0.00     0.068 A 
HETATM    6  N   UNL     1      19.849  49.606  47.818  1.00  0.00    -0.252 NA
HETATM    7  C   UNL     1      20.557  50.259  48.762  1.00  0.00     0.040 A 
HETATM    8  C   UNL     1      21.726  49.710  49.268  1.00  0.00     0.044 A 
HETATM    9  C   UNL     1      22.189  48.469  48.802  1.00  0.00     0.034 A 
HETATM   10  C   UNL     1      19.477  47.796  46.398  1.00  0.00     0.033 A 
HETATM   11  C   UNL     1      19.803  46.548  45.867  1.00  0.00     0.009 A 
ENDROOT
BRANCH   9  12
HETATM   12  C   UNL     1      23.447  47.945  49.332  1.00  0.00     0.207 A 
HETATM   13  O   UNL     1      24.411  48.866  49.657  1.00  0.00    -0.191 OA
HETATM   14  N   UNL     1      25.513  48.152  50.142  1.00  0.00    -0.108 NA
HETATM   15  C   UNL     1      25.101  46.887  50.077  1.00  0.00     0.189 A 
HETATM   16  N   UNL     1      23.843  46.705  49.555  1.00  0.00    -0.202 NA
BRANCH  15  17
HETATM   17  C   UNL     1      25.930  45.717  50.493  1.00  0.00     0.282 C 
HETATM   18  N   UNL     1      26.047  44.721  49.334  1.00  0.00    -0.060 N 
HETATM   19  H   UNL     1      25.096  44.577  48.962  1.00  0.00     0.278 HD
HETATM   20  H   UNL     1      26.569  45.172  48.571  1.00  0.00     0.278 HD
HETATM   21  C   UNL     1      26.691  43.427  49.724  1.00  0.00     0.259 C 
HETATM   22  C   UNL     1      25.976  42.845  50.944  1.00  0.00     0.195 C 
HETATM   23  O   UNL     1      25.998  43.785  52.025  1.00  0.00    -0.387 OA
HETATM   24  C   UNL     1      25.295  44.993  51.699  1.00  0.00     0.208 C 
ENDBRANCH  15  17
ENDBRANCH   9  12
BRANCH   7  25
HETATM   25  C   UNL     1      20.037  51.584  49.265  1.00  0.00     0.038 A 
HETATM   26  C   UNL     1      19.100  52.411  48.415  1.00  0.00     0.011 A 
HETATM   27  C   UNL     1      18.579  51.724  49.641  1.00  0.00     0.011 A 
ENDBRANCH   7  25
TORSDOF 3
ENDMDL
