MODEL 1
REMARK VINA RESULT:      -9.7      0.000      0.000
REMARK  9 active torsions:
REMARK  status: ('A' for Active; 'I' for Inactive)
REMARK    1  A    between atoms: C_2  and  C_3 
REMARK    2  A    between atoms: C_8  and  O_9 
REMARK    3  A    between atoms: C_10  and  C_11 
REMARK    4  A    between atoms: C_11  and  N_12 
REMARK       I    between atoms: N_12  and  C_13 
REMARK    5  A    between atoms: N_12  and  C_23 
REMARK       I    between atoms: C_13  and  N_14 
REMARK    6  A    between atoms: N_14  and  C_15 
REMARK    7  A    between atoms: C_23  and  C_24 
REMARK    8  A    between atoms: C_24  and  C_25 
REMARK    9  A    between atoms: C_25  and  N_26 
ROOT
HETATM    1  N   UNL     1      26.159  44.382  52.025  1.00  0.00    -0.330 N 
HETATM    2  C   UNL     1      26.731  44.323  53.306  1.00  0.00     0.323 C 
HETATM    3  N   UNL     1      28.019  44.816  53.353  1.00  0.00    -0.309 N 
HETATM    4  O   UNL     1      26.136  43.810  54.246  1.00  0.00    -0.247 OA
HETATM    5  H   UNL     1      28.444  45.001  52.466  1.00  0.00     0.170 HD
ENDROOT
BRANCH   1   6
HETATM    6  C   UNL     1      25.036  43.470  51.751  1.00  0.00     0.170 C 
BRANCH   6   7
HETATM    7  C   UNL     1      25.436  42.329  50.855  1.00  0.00     0.013 A 
HETATM    8  C   UNL     1      24.714  41.950  49.741  1.00  0.00     0.170 A 
HETATM    9  N   UNL     1      25.058  40.995  48.861  1.00  0.00    -0.224 NA
HETATM   10  C   UNL     1      26.212  40.335  49.083  1.00  0.00     0.070 A 
HETATM   11  C   UNL     1      27.022  40.601  50.204  1.00  0.00    -0.006 A 
HETATM   12  C   UNL     1      26.638  39.360  48.191  1.00  0.00     0.033 A 
HETATM   13  C   UNL     1      28.215  39.884  50.411  1.00  0.00     0.021 A 
HETATM   14  C   UNL     1      26.608  41.605  51.089  1.00  0.00     0.027 A 
HETATM   15  C   UNL     1      28.629  38.905  49.503  1.00  0.00    -0.058 A 
HETATM   16  C   UNL     1      27.829  38.652  48.386  1.00  0.00     0.009 A 
BRANCH   8  17
HETATM   17  O   UNL     1      23.525  42.521  49.419  1.00  0.00    -0.344 OA
HETATM   18  H   UNL     1      23.426  43.060  50.231  1.00  0.00     0.219 HD
ENDBRANCH   8  17
BRANCH  15  19
HETATM   19  C   UNL     1      29.906  38.135  49.730  1.00  0.00     0.034 C 
HETATM   20  C   UNL     1      29.893  37.382  51.052  1.00  0.00     0.010 C 
ENDBRANCH  15  19
ENDBRANCH   6   7
ENDBRANCH   1   6
BRANCH   1  21
HETATM   21  C   UNL     1      26.411  45.474  51.085  1.00  0.00     0.129 C 
BRANCH  21  22
HETATM   22  C   UNL     1      25.592  46.728  51.390  1.00  0.00     0.048 C 
BRANCH  22  23
HETATM   23  C   UNL     1      24.643  47.118  50.259  1.00  0.00     0.236 C 
BRANCH  23  24
HETATM   24  N   UNL     1      24.941  48.478  49.661  1.00  0.00    -0.067 N 
HETATM   25  H   UNL     1      24.893  49.197  50.393  1.00  0.00     0.280 HD
HETATM   26  C   UNL     1      26.373  48.507  49.102  1.00  0.00     0.261 C 
HETATM   27  C   UNL     1      26.661  49.861  48.449  1.00  0.00     0.195 C 
HETATM   28  O   UNL     1      25.713  50.135  47.414  1.00  0.00    -0.388 OA
HETATM   29  C   UNL     1      24.381  50.211  47.927  1.00  0.00     0.195 C 
HETATM   30  C   UNL     1      23.956  48.879  48.555  1.00  0.00     0.261 C 
ENDBRANCH  23  24
ENDBRANCH  22  23
ENDBRANCH  21  22
ENDBRANCH   1  21
BRANCH   3  31
HETATM   31  C   UNL     1      28.922  44.742  54.436  1.00  0.00     0.036 A 
HETATM   32  C   UNL     1      29.750  43.611  54.492  1.00  0.00     0.031 A 
HETATM   33  C   UNL     1      30.633  43.424  55.560  1.00  0.00     0.026 A 
HETATM   34  C   UNL     1      30.698  44.373  56.575  1.00  0.00     0.034 A 
HETATM   35 CL   UNL     1      31.767  44.135  57.899  1.00  0.00    -0.084 Cl
HETATM   36  C   UNL     1      29.896  45.510  56.521  1.00  0.00     0.026 A 
HETATM   37  C   UNL     1      29.014  45.695  55.451  1.00  0.00     0.031 A 
ENDBRANCH   3  31
TORSDOF 9
ENDMDL
MODEL 2
REMARK VINA RESULT:      -9.5      1.787      2.583
REMARK  9 active torsions:
REMARK  status: ('A' for Active; 'I' for Inactive)
REMARK    1  A    between atoms: C_2  and  C_3 
REMARK    2  A    between atoms: C_8  and  O_9 
REMARK    3  A    between atoms: C_10  and  C_11 
REMARK    4  A    between atoms: C_11  and  N_12 
REMARK       I    between atoms: N_12  and  C_13 
REMARK    5  A    between atoms: N_12  and  C_23 
REMARK       I    between atoms: C_13  and  N_14 
REMARK    6  A    between atoms: N_14  and  C_15 
REMARK    7  A    between atoms: C_23  and  C_24 
REMARK    8  A    between atoms: C_24  and  C_25 
REMARK    9  A    between atoms: C_25  and  N_26 
ROOT
HETATM    1  N   UNL     1      26.847  43.858  50.970  1.00  0.00    -0.330 N 
HETATM    2  C   UNL     1      27.180  43.761  52.330  1.00  0.00     0.323 C 
HETATM    3  N   UNL     1      28.427  44.271  52.626  1.00  0.00    -0.309 N 
HETATM    4  O   UNL     1      26.437  43.204  53.129  1.00  0.00    -0.247 OA
HETATM    5  H   UNL     1      29.001  44.495  51.837  1.00  0.00     0.170 HD
ENDROOT
BRANCH   1   6
HETATM    6  C   UNL     1      25.812  42.939  50.466  1.00  0.00     0.170 C 
BRANCH   6   7
HETATM    7  C   UNL     1      26.404  41.729  49.796  1.00  0.00     0.013 A 
HETATM    8  C   UNL     1      26.607  40.526  50.443  1.00  0.00     0.170 A 
HETATM    9  N   UNL     1      27.057  39.391  49.883  1.00  0.00    -0.224 NA
HETATM   10  C   UNL     1      27.347  39.423  48.568  1.00  0.00     0.070 A 
HETATM   11  C   UNL     1      27.220  40.597  47.801  1.00  0.00    -0.006 A 
HETATM   12  C   UNL     1      27.785  38.272  47.925  1.00  0.00     0.033 A 
HETATM   13  C   UNL     1      27.544  40.597  46.432  1.00  0.00     0.021 A 
HETATM   14  C   UNL     1      26.750  41.751  48.443  1.00  0.00     0.027 A 
HETATM   15  C   UNL     1      27.983  39.430  45.800  1.00  0.00    -0.058 A 
HETATM   16  C   UNL     1      28.098  38.263  46.561  1.00  0.00     0.009 A 
BRANCH   8  17
HETATM   17  O   UNL     1      26.374  40.370  51.772  1.00  0.00    -0.344 OA
HETATM   18  H   UNL     1      27.238  39.969  51.999  1.00  0.00     0.219 HD
ENDBRANCH   8  17
BRANCH  15  19
HETATM   19  C   UNL     1      28.335  39.433  44.333  1.00  0.00     0.034 C 
HETATM   20  C   UNL     1      28.951  40.754  43.895  1.00  0.00     0.010 C 
ENDBRANCH  15  19
ENDBRANCH   6   7
ENDBRANCH   1   6
BRANCH   1  21
HETATM   21  C   UNL     1      27.240  44.987  50.128  1.00  0.00     0.129 C 
BRANCH  21  22
HETATM   22  C   UNL     1      26.051  45.818  49.647  1.00  0.00     0.048 C 
BRANCH  22  23
HETATM   23  C   UNL     1      25.684  46.954  50.600  1.00  0.00     0.236 C 
BRANCH  23  24
HETATM   24  N   UNL     1      25.672  48.317  49.939  1.00  0.00    -0.067 N 
HETATM   25  H   UNL     1      25.612  49.050  50.656  1.00  0.00     0.280 HD
HETATM   26  C   UNL     1      26.987  48.547  49.176  1.00  0.00     0.261 C 
HETATM   27  C   UNL     1      26.958  49.901  48.463  1.00  0.00     0.195 C 
HETATM   28  O   UNL     1      25.842  49.980  47.573  1.00  0.00    -0.388 OA
HETATM   29  C   UNL     1      24.601  49.867  48.273  1.00  0.00     0.195 C 
HETATM   30  C   UNL     1      24.489  48.513  48.981  1.00  0.00     0.261 C 
ENDBRANCH  23  24
ENDBRANCH  22  23
ENDBRANCH  21  22
ENDBRANCH   1  21
BRANCH   3  31
HETATM   31  C   UNL     1      29.121  44.171  53.851  1.00  0.00     0.036 A 
HETATM   32  C   UNL     1      28.914  45.201  54.781  1.00  0.00     0.031 A 
HETATM   33  C   UNL     1      29.604  45.217  55.997  1.00  0.00     0.026 A 
HETATM   34  C   UNL     1      30.502  44.197  56.292  1.00  0.00     0.034 A 
HETATM   35 CL   UNL     1      31.369  44.226  57.776  1.00  0.00    -0.084 Cl
HETATM   36  C   UNL     1      30.704  43.159  55.387  1.00  0.00     0.026 A 
HETATM   37  C   UNL     1      30.010  43.144  54.171  1.00  0.00     0.031 A 
ENDBRANCH   3  31
TORSDOF 9
ENDMDL
MODEL 3
REMARK VINA RESULT:      -9.2      3.205      6.998
REMARK  9 active torsions:
REMARK  status: ('A' for Active; 'I' for Inactive)
REMARK    1  A    between atoms: C_2  and  C_3 
REMARK    2  A    between atoms: C_8  and  O_9 
REMARK    3  A    between atoms: C_10  and  C_11 
REMARK    4  A    between atoms: C_11  and  N_12 
REMARK       I    between atoms: N_12  and  C_13 
REMARK    5  A    between atoms: N_12  and  C_23 
REMARK       I    between atoms: C_13  and  N_14 
REMARK    6  A    between atoms: N_14  and  C_15 
REMARK    7  A    between atoms: C_23  and  C_24 
REMARK    8  A    between atoms: C_24  and  C_25 
REMARK    9  A    between atoms: C_25  and  N_26 
ROOT
HETATM    1  N   UNL     1      26.268  43.816  50.563  1.00  0.00    -0.330 N 
HETATM    2  C   UNL     1      26.458  42.488  50.149  1.00  0.00     0.323 C 
HETATM    3  N   UNL     1      26.604  42.357  48.783  1.00  0.00    -0.309 N 
HETATM    4  O   UNL     1      26.416  41.560  50.947  1.00  0.00    -0.247 OA
HETATM    5  H   UNL     1      26.402  43.177  48.246  1.00  0.00     0.170 HD
ENDROOT
BRANCH   1   6
HETATM    6  C   UNL     1      25.626  44.024  51.872  1.00  0.00     0.170 C 
BRANCH   6   7
HETATM    7  C   UNL     1      26.579  44.591  52.889  1.00  0.00     0.013 A 
HETATM    8  C   UNL     1      26.422  45.837  53.463  1.00  0.00     0.170 A 
HETATM    9  N   UNL     1      27.191  46.367  54.430  1.00  0.00    -0.224 NA
HETATM   10  C   UNL     1      28.219  45.621  54.880  1.00  0.00     0.070 A 
HETATM   11  C   UNL     1      28.510  44.348  54.352  1.00  0.00    -0.006 A 
HETATM   12  C   UNL     1      29.030  46.100  55.901  1.00  0.00     0.033 A 
HETATM   13  C   UNL     1      29.599  43.602  54.838  1.00  0.00     0.021 A 
HETATM   14  C   UNL     1      27.674  43.852  53.342  1.00  0.00     0.027 A 
HETATM   15  C   UNL     1      30.405  44.100  55.867  1.00  0.00    -0.058 A 
HETATM   16  C   UNL     1      30.107  45.358  56.397  1.00  0.00     0.009 A 
BRANCH   8  17
HETATM   17  O   UNL     1      25.440  46.693  53.081  1.00  0.00    -0.344 OA
HETATM   18  H   UNL     1      25.982  47.509  53.088  1.00  0.00     0.219 HD
ENDBRANCH   8  17
BRANCH  15  19
HETATM   19  C   UNL     1      31.575  43.301  56.384  1.00  0.00     0.034 C 
HETATM   20  C   UNL     1      32.111  43.853  57.696  1.00  0.00     0.010 C 
ENDBRANCH  15  19
ENDBRANCH   6   7
ENDBRANCH   1   6
BRANCH   1  21
HETATM   21  C   UNL     1      26.928  44.956  49.926  1.00  0.00     0.129 C 
BRANCH  21  22
HETATM   22  C   UNL     1      25.959  46.079  49.559  1.00  0.00     0.048 C 
BRANCH  22  23
HETATM   23  C   UNL     1      26.467  47.466  49.948  1.00  0.00     0.236 C 
BRANCH  23  24
HETATM   24  N   UNL     1      25.562  48.592  49.492  1.00  0.00    -0.067 N 
HETATM   25  H   UNL     1      25.445  49.272  50.252  1.00  0.00     0.280 HD
HETATM   26  C   UNL     1      26.206  49.344  48.316  1.00  0.00     0.261 C 
HETATM   27  C   UNL     1      25.271  50.448  47.816  1.00  0.00     0.195 C 
HETATM   28  O   UNL     1      24.006  49.905  47.432  1.00  0.00    -0.388 OA
HETATM   29  C   UNL     1      23.342  49.285  48.535  1.00  0.00     0.195 C 
HETATM   30  C   UNL     1      24.163  48.112  49.083  1.00  0.00     0.261 C 
ENDBRANCH  23  24
ENDBRANCH  22  23
ENDBRANCH  21  22
ENDBRANCH   1  21
BRANCH   3  31
HETATM   31  C   UNL     1      26.638  41.158  48.039  1.00  0.00     0.036 A 
HETATM   32  C   UNL     1      27.889  40.750  47.554  1.00  0.00     0.031 A 
HETATM   33  C   UNL     1      28.009  39.606  46.757  1.00  0.00     0.026 A 
HETATM   34  C   UNL     1      26.877  38.860  46.448  1.00  0.00     0.034 A 
HETATM   35 CL   UNL     1      27.018  37.467  45.452  1.00  0.00    -0.084 Cl
HETATM   36  C   UNL     1      25.632  39.243  46.940  1.00  0.00     0.026 A 
HETATM   37  C   UNL     1      25.514  40.387  47.738  1.00  0.00     0.031 A 
ENDBRANCH   3  31
TORSDOF 9
ENDMDL
MODEL 4
REMARK VINA RESULT:      -9.0      2.158      7.435
REMARK  9 active torsions:
REMARK  status: ('A' for Active; 'I' for Inactive)
REMARK    1  A    between atoms: C_2  and  C_3 
REMARK    2  A    between atoms: C_8  and  O_9 
REMARK    3  A    between atoms: C_10  and  C_11 
REMARK    4  A    between atoms: C_11  and  N_12 
REMARK       I    between atoms: N_12  and  C_13 
REMARK    5  A    between atoms: N_12  and  C_23 
REMARK       I    between atoms: C_13  and  N_14 
REMARK    6  A    between atoms: N_14  and  C_15 
REMARK    7  A    between atoms: C_23  and  C_24 
REMARK    8  A    between atoms: C_24  and  C_25 
REMARK    9  A    between atoms: C_25  and  N_26 
ROOT
HETATM    1  N   UNL     1      26.279  43.482  51.592  1.00  0.00    -0.330 N 
HETATM    2  C   UNL     1      26.832  44.073  52.738  1.00  0.00     0.323 C 
HETATM    3  N   UNL     1      28.163  43.760  52.927  1.00  0.00    -0.309 N 
HETATM    4  O   UNL     1      26.146  44.734  53.507  1.00  0.00    -0.247 OA
HETATM    5  H   UNL     1      28.525  43.039  52.335  1.00  0.00     0.170 HD
ENDROOT
BRANCH   1   6
HETATM    6  C   UNL     1      24.814  43.332  51.556  1.00  0.00     0.170 C 
BRANCH   6   7
HETATM    7  C   UNL     1      24.171  44.272  50.572  1.00  0.00     0.013 A 
HETATM    8  C   UNL     1      23.131  43.906  49.741  1.00  0.00     0.170 A 
HETATM    9  N   UNL     1      22.465  44.716  48.900  1.00  0.00    -0.224 NA
HETATM   10  C   UNL     1      22.848  46.007  48.852  1.00  0.00     0.070 A 
HETATM   11  C   UNL     1      23.920  46.500  49.621  1.00  0.00    -0.006 A 
HETATM   12  C   UNL     1      22.177  46.901  48.027  1.00  0.00     0.033 A 
HETATM   13  C   UNL     1      24.301  47.852  49.537  1.00  0.00     0.021 A 
HETATM   14  C   UNL     1      24.578  45.605  50.476  1.00  0.00     0.027 A 
HETATM   15  C   UNL     1      23.614  48.738  48.701  1.00  0.00    -0.058 A 
HETATM   16  C   UNL     1      22.544  48.249  47.947  1.00  0.00     0.009 A 
BRANCH   8  17
HETATM   17  O   UNL     1      22.667  42.632  49.679  1.00  0.00    -0.344 OA
HETATM   18  H   UNL     1      22.352  42.572  50.604  1.00  0.00     0.219 HD
ENDBRANCH   8  17
BRANCH  15  19
HETATM   19  C   UNL     1      24.027  50.185  48.608  1.00  0.00     0.034 C 
HETATM   20  C   UNL     1      22.856  51.131  48.834  1.00  0.00     0.010 C 
ENDBRANCH  15  19
ENDBRANCH   6   7
ENDBRANCH   1   6
BRANCH   1  21
HETATM   21  C   UNL     1      27.025  43.293  50.348  1.00  0.00     0.129 C 
BRANCH  21  22
HETATM   22  C   UNL     1      27.173  41.824  49.955  1.00  0.00     0.048 C 
BRANCH  22  23
HETATM   23  C   UNL     1      27.925  40.994  50.993  1.00  0.00     0.236 C 
BRANCH  23  24
HETATM   24  N   UNL     1      28.313  39.616  50.500  1.00  0.00    -0.067 N 
HETATM   25  H   UNL     1      27.488  39.003  50.497  1.00  0.00     0.280 HD
HETATM   26  C   UNL     1      28.815  39.695  49.048  1.00  0.00     0.261 C 
HETATM   27  C   UNL     1      29.258  38.313  48.564  1.00  0.00     0.195 C 
HETATM   28  O   UNL     1      30.274  37.779  49.416  1.00  0.00    -0.388 OA
HETATM   29  C   UNL     1      29.801  37.604  50.753  1.00  0.00     0.195 C 
HETATM   30  C   UNL     1      29.383  38.943  51.370  1.00  0.00     0.261 C 
ENDBRANCH  23  24
ENDBRANCH  22  23
ENDBRANCH  21  22
ENDBRANCH   1  21
BRANCH   3  31
HETATM   31  C   UNL     1      28.955  44.048  54.059  1.00  0.00     0.036 A 
HETATM   32  C   UNL     1      29.909  43.087  54.424  1.00  0.00     0.031 A 
HETATM   33  C   UNL     1      30.698  43.259  55.566  1.00  0.00     0.026 A 
HETATM   34  C   UNL     1      30.541  44.400  56.345  1.00  0.00     0.034 A 
HETATM   35 CL   UNL     1      31.494  44.604  57.761  1.00  0.00    -0.084 Cl
HETATM   36  C   UNL     1      29.612  45.372  55.984  1.00  0.00     0.026 A 
HETATM   37  C   UNL     1      28.824  45.197  54.840  1.00  0.00     0.031 A 
ENDBRANCH   3  31
TORSDOF 9
ENDMDL
MODEL 5
REMARK VINA RESULT:      -9.0      3.713      7.287
REMARK  9 active torsions:
REMARK  status: ('A' for Active; 'I' for Inactive)
REMARK    1  A    between atoms: C_2  and  C_3 
REMARK    2  A    between atoms: C_8  and  O_9 
REMARK    3  A    between atoms: C_10  and  C_11 
REMARK    4  A    between atoms: C_11  and  N_12 
REMARK       I    between atoms: N_12  and  C_13 
REMARK    5  A    between atoms: N_12  and  C_23 
REMARK       I    between atoms: C_13  and  N_14 
REMARK    6  A    between atoms: N_14  and  C_15 
REMARK    7  A    between atoms: C_23  and  C_24 
REMARK    8  A    between atoms: C_24  and  C_25 
REMARK    9  A    between atoms: C_25  and  N_26 
ROOT
HETATM    1  N   UNL     1      25.181  44.897  50.877  1.00  0.00    -0.330 N 
HETATM    2  C   UNL     1      25.018  43.570  50.452  1.00  0.00     0.323 C 
HETATM    3  N   UNL     1      24.916  43.442  49.082  1.00  0.00    -0.309 N 
HETATM    4  O   UNL     1      24.909  42.653  51.257  1.00  0.00    -0.247 OA
HETATM    5  H   UNL     1      24.808  44.299  48.575  1.00  0.00     0.170 HD
ENDROOT
BRANCH   1   6
HETATM    6  C   UNL     1      24.812  45.205  52.269  1.00  0.00     0.170 C 
BRANCH   6   7
HETATM    7  C   UNL     1      26.012  45.541  53.114  1.00  0.00     0.013 A 
HETATM    8  C   UNL     1      26.218  46.783  53.679  1.00  0.00     0.170 A 
HETATM    9  N   UNL     1      27.224  47.122  54.502  1.00  0.00    -0.224 NA
HETATM   10  C   UNL     1      28.125  46.166  54.804  1.00  0.00     0.070 A 
HETATM   11  C   UNL     1      28.049  44.868  54.264  1.00  0.00    -0.006 A 
HETATM   12  C   UNL     1      29.169  46.446  55.677  1.00  0.00     0.033 A 
HETATM   13  C   UNL     1      29.014  43.898  54.592  1.00  0.00     0.021 A 
HETATM   14  C   UNL     1      26.979  44.577  53.407  1.00  0.00     0.027 A 
HETATM   15  C   UNL     1      30.059  44.196  55.472  1.00  0.00    -0.058 A 
HETATM   16  C   UNL     1      30.125  45.482  56.015  1.00  0.00     0.009 A 
BRANCH   8  17
HETATM   17  O   UNL     1      25.397  47.836  53.435  1.00  0.00    -0.344 OA
HETATM   18  H   UNL     1      24.693  47.591  54.071  1.00  0.00     0.219 HD
ENDBRANCH   8  17
BRANCH  15  19
HETATM   19  C   UNL     1      31.095  43.157  55.819  1.00  0.00     0.034 C 
HETATM   20  C   UNL     1      31.500  43.218  57.284  1.00  0.00     0.010 C 
ENDBRANCH  15  19
ENDBRANCH   6   7
ENDBRANCH   1   6
BRANCH   1  21
HETATM   21  C   UNL     1      25.956  45.889  50.131  1.00  0.00     0.129 C 
BRANCH  21  22
HETATM   22  C   UNL     1      25.177  47.175  49.856  1.00  0.00     0.048 C 
BRANCH  22  23
HETATM   23  C   UNL     1      23.755  46.925  49.360  1.00  0.00     0.236 C 
BRANCH  23  24
HETATM   24  N   UNL     1      23.215  48.037  48.484  1.00  0.00    -0.067 N 
HETATM   25  H   UNL     1      23.266  47.756  47.497  1.00  0.00     0.280 HD
HETATM   26  C   UNL     1      21.731  48.287  48.800  1.00  0.00     0.261 C 
HETATM   27  C   UNL     1      21.196  49.445  47.955  1.00  0.00     0.195 C 
HETATM   28  O   UNL     1      21.963  50.631  48.179  1.00  0.00    -0.388 OA
HETATM   29  C   UNL     1      23.329  50.454  47.799  1.00  0.00     0.195 C 
HETATM   30  C   UNL     1      23.994  49.351  48.631  1.00  0.00     0.261 C 
ENDBRANCH  23  24
ENDBRANCH  22  23
ENDBRANCH  21  22
ENDBRANCH   1  21
BRANCH   3  31
HETATM   31  C   UNL     1      24.578  42.280  48.356  1.00  0.00     0.036 A 
HETATM   32  C   UNL     1      23.210  42.004  48.206  1.00  0.00     0.031 A 
HETATM   33  C   UNL     1      22.783  40.843  47.553  1.00  0.00     0.026 A 
HETATM   34  C   UNL     1      23.722  39.956  47.039  1.00  0.00     0.034 A 
HETATM   35 CL   UNL     1      23.199  38.519  46.255  1.00  0.00    -0.084 Cl
HETATM   36  C   UNL     1      25.082  40.228  47.163  1.00  0.00     0.026 A 
HETATM   37  C   UNL     1      25.508  41.390  47.816  1.00  0.00     0.031 A 
ENDBRANCH   3  31
TORSDOF 9
ENDMDL
MODEL 6
REMARK VINA RESULT:      -8.9      2.344      8.182
REMARK  9 active torsions:
REMARK  status: ('A' for Active; 'I' for Inactive)
REMARK    1  A    between atoms: C_2  and  C_3 
REMARK    2  A    between atoms: C_8  and  O_9 
REMARK    3  A    between atoms: C_10  and  C_11 
REMARK    4  A    between atoms: C_11  and  N_12 
REMARK       I    between atoms: N_12  and  C_13 
REMARK    5  A    between atoms: N_12  and  C_23 
REMARK       I    between atoms: C_13  and  N_14 
REMARK    6  A    between atoms: N_14  and  C_15 
REMARK    7  A    between atoms: C_23  and  C_24 
REMARK    8  A    between atoms: C_24  and  C_25 
REMARK    9  A    between atoms: C_25  and  N_26 
ROOT
HETATM    1  N   UNL     1      25.028  45.020  50.571  1.00  0.00    -0.330 N 
HETATM    2  C   UNL     1      26.255  45.109  51.247  1.00  0.00     0.323 C 
HETATM    3  N   UNL     1      26.132  45.018  52.618  1.00  0.00    -0.309 N 
HETATM    4  O   UNL     1      27.300  45.320  50.644  1.00  0.00    -0.247 OA
HETATM    5  H   UNL     1      25.197  45.062  52.972  1.00  0.00     0.170 HD
ENDROOT
BRANCH   1   6
HETATM    6  C   UNL     1      24.970  45.582  49.211  1.00  0.00     0.170 C 
BRANCH   6   7
HETATM    7  C   UNL     1      24.477  47.004  49.205  1.00  0.00     0.013 A 
HETATM    8  C   UNL     1      25.316  48.098  49.279  1.00  0.00     0.170 A 
HETATM    9  N   UNL     1      24.945  49.387  49.200  1.00  0.00    -0.224 NA
HETATM   10  C   UNL     1      23.632  49.645  49.040  1.00  0.00     0.070 A 
HETATM   11  C   UNL     1      22.668  48.619  48.988  1.00  0.00    -0.006 A 
HETATM   12  C   UNL     1      23.191  50.956  48.919  1.00  0.00     0.033 A 
HETATM   13  C   UNL     1      21.304  48.925  48.833  1.00  0.00     0.021 A 
HETATM   14  C   UNL     1      23.116  47.295  49.080  1.00  0.00     0.027 A 
HETATM   15  C   UNL     1      20.877  50.252  48.712  1.00  0.00    -0.058 A 
HETATM   16  C   UNL     1      21.837  51.266  48.753  1.00  0.00     0.009 A 
BRANCH   8  17
HETATM   17  O   UNL     1      26.655  47.973  49.462  1.00  0.00    -0.344 OA
HETATM   18  H   UNL     1      26.622  47.234  50.103  1.00  0.00     0.219 HD
ENDBRANCH   8  17
BRANCH  15  19
HETATM   19  C   UNL     1      19.414  50.578  48.551  1.00  0.00     0.034 C 
HETATM   20  C   UNL     1      19.170  52.075  48.435  1.00  0.00     0.010 C 
ENDBRANCH  15  19
ENDBRANCH   6   7
ENDBRANCH   1   6
BRANCH   1  21
HETATM   21  C   UNL     1      23.931  44.158  51.011  1.00  0.00     0.129 C 
BRANCH  21  22
HETATM   22  C   UNL     1      24.294  42.673  51.001  1.00  0.00     0.048 C 
BRANCH  22  23
HETATM   23  C   UNL     1      24.807  42.187  49.647  1.00  0.00     0.236 C 
BRANCH  23  24
HETATM   24  N   UNL     1      26.290  41.879  49.638  1.00  0.00    -0.067 N 
HETATM   25  H   UNL     1      26.822  42.736  49.443  1.00  0.00     0.280 HD
HETATM   26  C   UNL     1      26.737  41.384  51.023  1.00  0.00     0.261 C 
HETATM   27  C   UNL     1      28.223  41.020  51.004  1.00  0.00     0.195 C 
HETATM   28  O   UNL     1      28.489  40.030  50.008  1.00  0.00    -0.388 OA
HETATM   29  C   UNL     1      28.174  40.504  48.697  1.00  0.00     0.195 C 
HETATM   30  C   UNL     1      26.684  40.842  48.577  1.00  0.00     0.261 C 
ENDBRANCH  23  24
ENDBRANCH  22  23
ENDBRANCH  21  22
ENDBRANCH   1  21
BRANCH   3  31
HETATM   31  C   UNL     1      27.139  45.240  53.582  1.00  0.00     0.036 A 
HETATM   32  C   UNL     1      28.045  44.192  53.803  1.00  0.00     0.031 A 
HETATM   33  C   UNL     1      29.039  44.300  54.781  1.00  0.00     0.026 A 
HETATM   34  C   UNL     1      29.136  45.462  55.538  1.00  0.00     0.034 A 
HETATM   35 CL   UNL     1      30.343  45.589  56.755  1.00  0.00    -0.084 Cl
HETATM   36  C   UNL     1      28.256  46.517  55.317  1.00  0.00     0.026 A 
HETATM   37  C   UNL     1      27.263  46.408  54.336  1.00  0.00     0.031 A 
ENDBRANCH   3  31
TORSDOF 9
ENDMDL
MODEL 7
REMARK VINA RESULT:      -8.8      3.470      8.636
REMARK  9 active torsions:
REMARK  status: ('A' for Active; 'I' for Inactive)
REMARK    1  A    between atoms: C_2  and  C_3 
REMARK    2  A    between atoms: C_8  and  O_9 
REMARK    3  A    between atoms: C_10  and  C_11 
REMARK    4  A    between atoms: C_11  and  N_12 
REMARK       I    between atoms: N_12  and  C_13 
REMARK    5  A    between atoms: N_12  and  C_23 
REMARK       I    between atoms: C_13  and  N_14 
REMARK    6  A    between atoms: N_14  and  C_15 
REMARK    7  A    between atoms: C_23  and  C_24 
REMARK    8  A    between atoms: C_24  and  C_25 
REMARK    9  A    between atoms: C_25  and  N_26 
ROOT
HETATM    1  N   UNL     1      25.596  44.006  50.700  1.00  0.00    -0.330 N 
HETATM    2  C   UNL     1      24.405  44.671  50.371  1.00  0.00     0.323 C 
HETATM    3  N   UNL     1      24.559  45.603  49.365  1.00  0.00    -0.309 N 
HETATM    4  O   UNL     1      23.369  44.466  50.991  1.00  0.00    -0.247 OA
HETATM    5  H   UNL     1      25.504  45.808  49.107  1.00  0.00     0.170 HD
ENDROOT
BRANCH   1   6
HETATM    6  C   UNL     1      25.669  43.384  52.033  1.00  0.00     0.170 C 
BRANCH   6   7
HETATM    7  C   UNL     1      26.619  44.109  52.947  1.00  0.00     0.013 A 
HETATM    8  C   UNL     1      26.414  45.404  53.381  1.00  0.00     0.170 A 
HETATM    9  N   UNL     1      27.181  46.077  54.256  1.00  0.00    -0.224 NA
HETATM   10  C   UNL     1      28.257  45.438  54.754  1.00  0.00     0.070 A 
HETATM   11  C   UNL     1      28.599  44.129  54.364  1.00  0.00    -0.006 A 
HETATM   12  C   UNL     1      29.070  46.070  55.687  1.00  0.00     0.033 A 
HETATM   13  C   UNL     1      29.737  43.496  54.897  1.00  0.00     0.021 A 
HETATM   14  C   UNL     1      27.763  43.481  53.446  1.00  0.00     0.027 A 
HETATM   15  C   UNL     1      30.544  44.147  55.835  1.00  0.00    -0.058 A 
HETATM   16  C   UNL     1      30.197  45.442  56.229  1.00  0.00     0.009 A 
BRANCH   8  17
HETATM   17  O   UNL     1      25.380  46.162  52.936  1.00  0.00    -0.344 OA
HETATM   18  H   UNL     1      25.916  46.836  52.470  1.00  0.00     0.219 HD
ENDBRANCH   8  17
BRANCH  15  19
HETATM   19  C   UNL     1      31.767  43.469  56.401  1.00  0.00     0.034 C 
HETATM   20  C   UNL     1      32.033  43.877  57.843  1.00  0.00     0.010 C 
ENDBRANCH  15  19
ENDBRANCH   6   7
ENDBRANCH   1   6
BRANCH   1  21
HETATM   21  C   UNL     1      26.613  43.648  49.712  1.00  0.00     0.129 C 
BRANCH  21  22
HETATM   22  C   UNL     1      26.700  42.143  49.459  1.00  0.00     0.048 C 
BRANCH  22  23
HETATM   23  C   UNL     1      27.889  41.482  50.151  1.00  0.00     0.236 C 
BRANCH  23  24
HETATM   24  N   UNL     1      28.520  40.369  49.339  1.00  0.00    -0.067 N 
HETATM   25  H   UNL     1      29.428  40.679  48.972  1.00  0.00     0.280 HD
HETATM   26  C   UNL     1      28.794  39.150  50.236  1.00  0.00     0.261 C 
HETATM   27  C   UNL     1      29.381  38.004  49.409  1.00  0.00     0.195 C 
HETATM   28  O   UNL     1      28.503  37.651  48.338  1.00  0.00    -0.388 OA
HETATM   29  C   UNL     1      28.310  38.741  47.434  1.00  0.00     0.195 C 
HETATM   30  C   UNL     1      27.662  39.936  48.143  1.00  0.00     0.261 C 
ENDBRANCH  23  24
ENDBRANCH  22  23
ENDBRANCH  21  22
ENDBRANCH   1  21
BRANCH   3  31
HETATM   31  C   UNL     1      23.608  46.550  48.926  1.00  0.00     0.036 A 
HETATM   32  C   UNL     1      23.784  47.871  49.363  1.00  0.00     0.031 A 
HETATM   33  C   UNL     1      22.859  48.865  49.027  1.00  0.00     0.026 A 
HETATM   34  C   UNL     1      21.756  48.542  48.244  1.00  0.00     0.034 A 
HETATM   35 CL   UNL     1      20.606  49.757  47.847  1.00  0.00    -0.084 Cl
HETATM   36  C   UNL     1      21.580  47.239  47.787  1.00  0.00     0.026 A 
HETATM   37  C   UNL     1      22.508  46.247  48.123  1.00  0.00     0.031 A 
ENDBRANCH   3  31
TORSDOF 9
ENDMDL
MODEL 8
REMARK VINA RESULT:      -8.7      4.030      7.501
REMARK  9 active torsions:
REMARK  status: ('A' for Active; 'I' for Inactive)
REMARK    1  A    between atoms: C_2  and  C_3 
REMARK    2  A    between atoms: C_8  and  O_9 
REMARK    3  A    between atoms: C_10  and  C_11 
REMARK    4  A    between atoms: C_11  and  N_12 
REMARK       I    between atoms: N_12  and  C_13 
REMARK    5  A    between atoms: N_12  and  C_23 
REMARK       I    between atoms: C_13  and  N_14 
REMARK    6  A    between atoms: N_14  and  C_15 
REMARK    7  A    between atoms: C_23  and  C_24 
REMARK    8  A    between atoms: C_24  and  C_25 
REMARK    9  A    between atoms: C_25  and  N_26 
ROOT
HETATM    1  N   UNL     1      25.181  44.390  51.073  1.00  0.00    -0.330 N 
HETATM    2  C   UNL     1      24.531  43.546  50.160  1.00  0.00     0.323 C 
HETATM    3  N   UNL     1      24.290  44.143  48.939  1.00  0.00    -0.309 N 
HETATM    4  O   UNL     1      24.166  42.422  50.481  1.00  0.00    -0.247 OA
HETATM    5  H   UNL     1      24.453  45.130  48.901  1.00  0.00     0.170 HD
ENDROOT
BRANCH   1   6
HETATM    6  C   UNL     1      25.048  44.060  52.502  1.00  0.00     0.170 C 
BRANCH   6   7
HETATM    7  C   UNL     1      26.379  43.784  53.148  1.00  0.00     0.013 A 
HETATM    8  C   UNL     1      27.193  42.729  52.788  1.00  0.00     0.170 A 
HETATM    9  N   UNL     1      28.421  42.474  53.270  1.00  0.00    -0.224 NA
HETATM   10  C   UNL     1      28.908  43.320  54.199  1.00  0.00     0.070 A 
HETATM   11  C   UNL     1      28.163  44.414  54.681  1.00  0.00    -0.006 A 
HETATM   12  C   UNL     1      30.185  43.129  54.712  1.00  0.00     0.033 A 
HETATM   13  C   UNL     1      28.698  45.270  55.660  1.00  0.00     0.021 A 
HETATM   14  C   UNL     1      26.887  44.624  54.142  1.00  0.00     0.027 A 
HETATM   15  C   UNL     1      29.986  45.063  56.165  1.00  0.00    -0.058 A 
HETATM   16  C   UNL     1      30.727  43.984  55.678  1.00  0.00     0.009 A 
BRANCH   8  17
HETATM   17  O   UNL     1      26.810  41.794  51.880  1.00  0.00    -0.344 OA
HETATM   18  H   UNL     1      26.328  42.400  51.280  1.00  0.00     0.219 HD
ENDBRANCH   8  17
BRANCH  15  19
HETATM   19  C   UNL     1      30.556  45.979  57.219  1.00  0.00     0.034 C 
HETATM   20  C   UNL     1      30.993  45.219  58.463  1.00  0.00     0.010 C 
ENDBRANCH  15  19
ENDBRANCH   6   7
ENDBRANCH   1   6
BRANCH   1  21
HETATM   21  C   UNL     1      26.198  45.365  50.680  1.00  0.00     0.129 C 
BRANCH  21  22
HETATM   22  C   UNL     1      25.799  46.807  50.992  1.00  0.00     0.048 C 
BRANCH  22  23
HETATM   23  C   UNL     1      26.341  47.815  49.982  1.00  0.00     0.236 C 
BRANCH  23  24
HETATM   24  N   UNL     1      25.293  48.784  49.472  1.00  0.00    -0.067 N 
HETATM   25  H   UNL     1      25.126  49.515  50.174  1.00  0.00     0.280 HD
HETATM   26  C   UNL     1      25.798  49.490  48.203  1.00  0.00     0.261 C 
HETATM   27  C   UNL     1      24.722  50.429  47.654  1.00  0.00     0.195 C 
HETATM   28  O   UNL     1      23.515  49.712  47.382  1.00  0.00    -0.388 OA
HETATM   29  C   UNL     1      22.972  49.128  48.568  1.00  0.00     0.195 C 
HETATM   30  C   UNL     1      23.945  48.112  49.177  1.00  0.00     0.261 C 
ENDBRANCH  23  24
ENDBRANCH  22  23
ENDBRANCH  21  22
ENDBRANCH   1  21
BRANCH   3  31
HETATM   31  C   UNL     1      23.512  43.632  47.878  1.00  0.00     0.036 A 
HETATM   32  C   UNL     1      22.283  44.263  47.635  1.00  0.00     0.031 A 
HETATM   33  C   UNL     1      21.419  43.788  46.643  1.00  0.00     0.026 A 
HETATM   34  C   UNL     1      21.785  42.682  45.883  1.00  0.00     0.034 A 
HETATM   35 CL   UNL     1      20.716  42.083  44.678  1.00  0.00    -0.084 Cl
HETATM   36  C   UNL     1      23.010  42.059  46.100  1.00  0.00     0.026 A 
HETATM   37  C   UNL     1      23.874  42.537  47.093  1.00  0.00     0.031 A 
ENDBRANCH   3  31
TORSDOF 9
ENDMDL
MODEL 9
REMARK VINA RESULT:      -8.7      5.248     10.522
REMARK  9 active torsions:
REMARK  status: ('A' for Active; 'I' for Inactive)
REMARK    1  A    between atoms: C_2  and  C_3 
REMARK    2  A    between atoms: C_8  and  O_9 
REMARK    3  A    between atoms: C_10  and  C_11 
REMARK    4  A    between atoms: C_11  and  N_12 
REMARK       I    between atoms: N_12  and  C_13 
REMARK    5  A    between atoms: N_12  and  C_23 
REMARK       I    between atoms: C_13  and  N_14 
REMARK    6  A    between atoms: N_14  and  C_15 
REMARK    7  A    between atoms: C_23  and  C_24 
REMARK    8  A    between atoms: C_24  and  C_25 
REMARK    9  A    between atoms: C_25  and  N_26 
ROOT
HETATM    1  N   UNL     1      23.170  48.386  48.558  1.00  0.00    -0.330 N 
HETATM    2  C   UNL     1      24.290  48.104  49.355  1.00  0.00     0.323 C 
HETATM    3  N   UNL     1      24.151  46.956  50.108  1.00  0.00    -0.309 N 
HETATM    4  O   UNL     1      25.245  48.868  49.403  1.00  0.00    -0.247 OA
HETATM    5  H   UNL     1      23.232  46.558  50.123  1.00  0.00     0.170 HD
ENDROOT
BRANCH   1   6
HETATM    6  C   UNL     1      22.996  49.779  48.115  1.00  0.00     0.170 C 
BRANCH   6   7
HETATM    7  C   UNL     1      21.668  50.348  48.537  1.00  0.00     0.013 A 
HETATM    8  C   UNL     1      21.395  50.767  49.823  1.00  0.00     0.170 A 
HETATM    9  N   UNL     1      20.261  51.353  50.243  1.00  0.00    -0.224 NA
HETATM   10  C   UNL     1      19.290  51.545  49.329  1.00  0.00     0.070 A 
HETATM   11  C   UNL     1      19.427  51.129  47.990  1.00  0.00    -0.006 A 
HETATM   12  C   UNL     1      18.107  52.175  49.694  1.00  0.00     0.033 A 
HETATM   13  C   UNL     1      18.387  51.335  47.065  1.00  0.00     0.021 A 
HETATM   14  C   UNL     1      20.632  50.520  47.615  1.00  0.00     0.027 A 
HETATM   15  C   UNL     1      17.203  51.972  47.450  1.00  0.00    -0.058 A 
HETATM   16  C   UNL     1      17.073  52.393  48.776  1.00  0.00     0.009 A 
BRANCH   8  17
HETATM   17  O   UNL     1      22.281  50.609  50.840  1.00  0.00    -0.344 OA
HETATM   18  H   UNL     1      21.867  51.244  51.461  1.00  0.00     0.219 HD
ENDBRANCH   8  17
BRANCH  15  19
HETATM   19  C   UNL     1      16.087  52.187  46.458  1.00  0.00     0.034 C 
HETATM   20  C   UNL     1      14.963  53.034  47.036  1.00  0.00     0.010 C 
ENDBRANCH  15  19
ENDBRANCH   6   7
ENDBRANCH   1   6
BRANCH   1  21
HETATM   21  C   UNL     1      22.364  47.349  47.913  1.00  0.00     0.129 C 
BRANCH  21  22
HETATM   22  C   UNL     1      21.047  47.076  48.639  1.00  0.00     0.048 C 
BRANCH  22  23
HETATM   23  C   UNL     1      19.967  46.492  47.732  1.00  0.00     0.236 C 
BRANCH  23  24
HETATM   24  N   UNL     1      18.732  47.363  47.624  1.00  0.00    -0.067 N 
HETATM   25  H   UNL     1      18.972  48.249  47.163  1.00  0.00     0.280 HD
HETATM   26  C   UNL     1      17.675  46.675  46.744  1.00  0.00     0.261 C 
HETATM   27  C   UNL     1      16.405  47.527  46.676  1.00  0.00     0.195 C 
HETATM   28  O   UNL     1      15.886  47.768  47.986  1.00  0.00    -0.388 OA
HETATM   29  C   UNL     1      16.815  48.494  48.794  1.00  0.00     0.195 C 
HETATM   30  C   UNL     1      18.114  47.704  48.987  1.00  0.00     0.261 C 
ENDBRANCH  23  24
ENDBRANCH  22  23
ENDBRANCH  21  22
ENDBRANCH   1  21
BRANCH   3  31
HETATM   31  C   UNL     1      25.011  46.494  51.127  1.00  0.00     0.036 A 
HETATM   32  C   UNL     1      25.535  45.202  50.974  1.00  0.00     0.031 A 
HETATM   33  C   UNL     1      26.349  44.638  51.962  1.00  0.00     0.026 A 
HETATM   34  C   UNL     1      26.648  45.369  53.107  1.00  0.00     0.034 A 
HETATM   35 CL   UNL     1      27.630  44.671  54.333  1.00  0.00    -0.084 Cl
HETATM   36  C   UNL     1      26.151  46.660  53.263  1.00  0.00     0.026 A 
HETATM   37  C   UNL     1      25.338  47.222  52.272  1.00  0.00     0.031 A 
ENDBRANCH   3  31
TORSDOF 9
ENDMDL
MODEL 10
REMARK VINA RESULT:      -8.5      3.559      8.553
REMARK  9 active torsions:
REMARK  status: ('A' for Active; 'I' for Inactive)
REMARK    1  A    between atoms: C_2  and  C_3 
REMARK    2  A    between atoms: C_8  and  O_9 
REMARK    3  A    between atoms: C_10  and  C_11 
REMARK    4  A    between atoms: C_11  and  N_12 
REMARK       I    between atoms: N_12  and  C_13 
REMARK    5  A    between atoms: N_12  and  C_23 
REMARK       I    between atoms: C_13  and  N_14 
REMARK    6  A    between atoms: N_14  and  C_15 
REMARK    7  A    between atoms: C_23  and  C_24 
REMARK    8  A    between atoms: C_24  and  C_25 
REMARK    9  A    between atoms: C_25  and  N_26 
ROOT
HETATM    1  N   UNL     1      26.356  41.975  50.007  1.00  0.00    -0.330 N 
HETATM    2  C   UNL     1      25.251  42.840  50.002  1.00  0.00     0.323 C 
HETATM    3  N   UNL     1      25.411  43.927  49.168  1.00  0.00    -0.309 N 
HETATM    4  O   UNL     1      24.290  42.650  50.738  1.00  0.00    -0.247 OA
HETATM    5  H   UNL     1      26.333  44.057  48.798  1.00  0.00     0.170 HD
ENDROOT
BRANCH   1   6
HETATM    6  C   UNL     1      26.512  41.094  51.177  1.00  0.00     0.170 C 
BRANCH   6   7
HETATM    7  C   UNL     1      27.497  41.642  52.173  1.00  0.00     0.013 A 
HETATM    8  C   UNL     1      28.744  41.089  52.391  1.00  0.00     0.170 A 
HETATM    9  N   UNL     1      29.695  41.574  53.206  1.00  0.00    -0.224 NA
HETATM   10  C   UNL     1      29.410  42.703  53.885  1.00  0.00     0.070 A 
HETATM   11  C   UNL     1      28.162  43.346  53.781  1.00  0.00    -0.006 A 
HETATM   12  C   UNL     1      30.365  43.272  54.719  1.00  0.00     0.033 A 
HETATM   13  C   UNL     1      27.895  44.516  54.514  1.00  0.00     0.021 A 
HETATM   14  C   UNL     1      27.209  42.788  52.918  1.00  0.00     0.027 A 
HETATM   15  C   UNL     1      28.868  45.076  55.348  1.00  0.00    -0.058 A 
HETATM   16  C   UNL     1      30.110  44.443  55.441  1.00  0.00     0.009 A 
BRANCH   8  17
HETATM   17  O   UNL     1      29.142  39.941  51.786  1.00  0.00    -0.344 OA
HETATM   18  H   UNL     1      29.832  40.338  51.215  1.00  0.00     0.219 HD
ENDBRANCH   8  17
BRANCH  15  19
HETATM   19  C   UNL     1      28.578  46.328  56.137  1.00  0.00     0.034 C 
HETATM   20  C   UNL     1      28.808  46.132  57.628  1.00  0.00     0.010 C 
ENDBRANCH  15  19
ENDBRANCH   6   7
ENDBRANCH   1   6
BRANCH   1  21
HETATM   21  C   UNL     1      27.159  41.694  48.817  1.00  0.00     0.129 C 
BRANCH  21  22
HETATM   22  C   UNL     1      27.503  40.213  48.662  1.00  0.00     0.048 C 
BRANCH  22  23
HETATM   23  C   UNL     1      26.430  39.419  47.920  1.00  0.00     0.236 C 
BRANCH  23  24
HETATM   24  N   UNL     1      26.988  38.494  46.858  1.00  0.00    -0.067 N 
HETATM   25  H   UNL     1      26.279  37.798  46.596  1.00  0.00     0.280 HD
HETATM   26  C   UNL     1      27.322  39.290  45.585  1.00  0.00     0.261 C 
HETATM   27  C   UNL     1      27.936  38.370  44.528  1.00  0.00     0.195 C 
HETATM   28  O   UNL     1      29.106  37.725  45.037  1.00  0.00    -0.388 OA
HETATM   29  C   UNL     1      28.804  36.899  46.164  1.00  0.00     0.195 C 
HETATM   30  C   UNL     1      28.236  37.730  47.320  1.00  0.00     0.261 C 
ENDBRANCH  23  24
ENDBRANCH  22  23
ENDBRANCH  21  22
ENDBRANCH   1  21
BRANCH   3  31
HETATM   31  C   UNL     1      24.571  45.057  49.067  1.00  0.00     0.036 A 
HETATM   32  C   UNL     1      25.000  46.224  49.717  1.00  0.00     0.031 A 
HETATM   33  C   UNL     1      24.205  47.374  49.721  1.00  0.00     0.026 A 
HETATM   34  C   UNL     1      22.977  47.365  49.067  1.00  0.00     0.034 A 
HETATM   35 CL   UNL     1      21.988  48.770  49.088  1.00  0.00    -0.084 Cl
HETATM   36  C   UNL     1      22.549  46.220  48.401  1.00  0.00     0.026 A 
HETATM   37  C   UNL     1      23.347  45.071  48.397  1.00  0.00     0.031 A 
ENDBRANCH   3  31
TORSDOF 9
ENDMDL
