MODEL 1
REMARK VINA RESULT:      -9.0      0.000      0.000
REMARK  4 active torsions:
REMARK  status: ('A' for Active; 'I' for Inactive)
REMARK    1  A    between atoms: C_4  and  N_5 
REMARK       I    between atoms: N_5  and  C_6 
REMARK    2  A    between atoms: C_6  and  C_7 
REMARK    3  A    between atoms: C_7  and  C_8 
REMARK    4  A    between atoms: C_10  and  O_11 
ROOT
HETATM    1  N   UNL     1      26.212  45.246  52.357  1.00  0.00    -0.325 N 
HETATM    2  C   UNL     1      26.098  45.681  51.055  1.00  0.00     0.226 C 
HETATM    3  O   UNL     1      26.759  45.276  50.100  1.00  0.00    -0.273 OA
HETATM    4  H   UNL     1      25.492  45.499  53.032  1.00  0.00     0.169 HD
ENDROOT
BRANCH   1   5
HETATM    5  C   UNL     1      27.200  44.392  52.907  1.00  0.00     0.065 A 
HETATM    6  C   UNL     1      27.441  43.100  52.426  1.00  0.00     0.038 A 
HETATM    7  C   UNL     1      28.461  42.315  52.972  1.00  0.00    -0.059 A 
HETATM    8  C   UNL     1      28.734  40.937  52.445  1.00  0.00     0.048 C 
HETATM    9  C   UNL     1      29.224  42.832  54.021  1.00  0.00     0.020 A 
HETATM   10  C   UNL     1      28.988  44.127  54.510  1.00  0.00    -0.005 A 
HETATM   11  C   UNL     1      27.972  44.930  53.949  1.00  0.00     0.093 A 
HETATM   12  C   UNL     1      29.748  44.659  55.561  1.00  0.00     0.015 A 
HETATM   13  N   UNL     1      27.729  46.189  54.394  1.00  0.00    -0.258 NA
HETATM   14  C   UNL     1      28.483  46.662  55.412  1.00  0.00     0.117 A 
HETATM   15  C   UNL     1      29.493  45.943  56.021  1.00  0.00     0.020 A 
ENDBRANCH   1   5
BRANCH   2  16
HETATM   16  C   UNL     1      25.061  46.781  50.874  1.00  0.00     0.141 C 
BRANCH  16  17
HETATM   17  C   UNL     1      25.559  47.878  49.959  1.00  0.00    -0.047 A 
HETATM   18  C   UNL     1      24.662  48.557  49.117  1.00  0.00     0.044 A 
HETATM   19  C   UNL     1      25.128  49.540  48.250  1.00  0.00     0.066 A 
HETATM   20  C   UNL     1      26.474  49.878  48.215  1.00  0.00     0.036 A 
HETATM   21  C   UNL     1      27.371  49.220  49.055  1.00  0.00     0.003 A 
HETATM   22  C   UNL     1      26.917  48.222  49.922  1.00  0.00     0.007 A 
BRANCH  19  23
HETATM   23  O   UNL     1      24.282  50.193  47.402  1.00  0.00    -0.361 OA
HETATM   24  H   UNL     1      24.169  49.646  46.607  1.00  0.00     0.217 HD
ENDBRANCH  19  23
ENDBRANCH  16  17
ENDBRANCH   2  16
TORSDOF 4
ENDMDL
MODEL 2
REMARK VINA RESULT:      -9.0      1.571      3.293
REMARK  4 active torsions:
REMARK  status: ('A' for Active; 'I' for Inactive)
REMARK    1  A    between atoms: C_4  and  N_5 
REMARK       I    between atoms: N_5  and  C_6 
REMARK    2  A    between atoms: C_6  and  C_7 
REMARK    3  A    between atoms: C_7  and  C_8 
REMARK    4  A    between atoms: C_10  and  O_11 
ROOT
HETATM    1  N   UNL     1      26.436  45.630  51.808  1.00  0.00    -0.325 N 
HETATM    2  C   UNL     1      25.565  46.696  51.852  1.00  0.00     0.226 C 
HETATM    3  O   UNL     1      25.411  47.461  52.802  1.00  0.00    -0.273 OA
HETATM    4  H   UNL     1      26.631  45.181  50.915  1.00  0.00     0.169 HD
ENDROOT
BRANCH   1   5
HETATM    5  C   UNL     1      27.197  45.082  52.871  1.00  0.00     0.065 A 
HETATM    6  C   UNL     1      27.507  45.800  54.032  1.00  0.00     0.038 A 
HETATM    7  C   UNL     1      28.219  45.199  55.073  1.00  0.00    -0.059 A 
HETATM    8  C   UNL     1      28.536  45.960  56.327  1.00  0.00     0.048 C 
HETATM    9  C   UNL     1      28.637  43.873  54.930  1.00  0.00     0.020 A 
HETATM   10  C   UNL     1      28.330  43.146  53.768  1.00  0.00    -0.005 A 
HETATM   11  C   UNL     1      27.595  43.744  52.722  1.00  0.00     0.093 A 
HETATM   12  C   UNL     1      28.741  41.816  53.611  1.00  0.00     0.015 A 
HETATM   13  N   UNL     1      27.275  43.063  51.593  1.00  0.00    -0.258 NA
HETATM   14  C   UNL     1      27.694  41.782  51.482  1.00  0.00     0.117 A 
HETATM   15  C   UNL     1      28.422  41.122  52.452  1.00  0.00     0.020 A 
ENDBRANCH   1   5
BRANCH   2  16
HETATM   16  C   UNL     1      24.738  46.853  50.583  1.00  0.00     0.141 C 
BRANCH  16  17
HETATM   17  C   UNL     1      25.245  47.986  49.718  1.00  0.00    -0.047 A 
HETATM   18  C   UNL     1      26.615  48.294  49.689  1.00  0.00     0.044 A 
HETATM   19  C   UNL     1      27.074  49.359  48.922  1.00  0.00     0.066 A 
HETATM   20  C   UNL     1      26.196  50.120  48.162  1.00  0.00     0.036 A 
HETATM   21  C   UNL     1      24.835  49.815  48.174  1.00  0.00     0.003 A 
HETATM   22  C   UNL     1      24.360  48.754  48.950  1.00  0.00     0.007 A 
BRANCH  19  23
HETATM   23  O   UNL     1      28.396  49.696  48.899  1.00  0.00    -0.361 OA
HETATM   24  H   UNL     1      28.917  48.883  49.007  1.00  0.00     0.217 HD
ENDBRANCH  19  23
ENDBRANCH  16  17
ENDBRANCH   2  16
TORSDOF 4
ENDMDL
MODEL 3
REMARK VINA RESULT:      -8.7      3.890      7.397
REMARK  4 active torsions:
REMARK  status: ('A' for Active; 'I' for Inactive)
REMARK    1  A    between atoms: C_4  and  N_5 
REMARK       I    between atoms: N_5  and  C_6 
REMARK    2  A    between atoms: C_6  and  C_7 
REMARK    3  A    between atoms: C_7  and  C_8 
REMARK    4  A    between atoms: C_10  and  O_11 
ROOT
HETATM    1  N   UNL     1      27.489  44.482  52.881  1.00  0.00    -0.325 N 
HETATM    2  C   UNL     1      27.410  44.665  54.244  1.00  0.00     0.226 C 
HETATM    3  O   UNL     1      26.608  44.118  54.998  1.00  0.00    -0.273 OA
HETATM    4  H   UNL     1      28.305  44.825  52.377  1.00  0.00     0.169 HD
ENDROOT
BRANCH   1   5
HETATM    5  C   UNL     1      26.585  43.784  52.042  1.00  0.00     0.065 A 
HETATM    6  C   UNL     1      25.354  44.318  51.642  1.00  0.00     0.038 A 
HETATM    7  C   UNL     1      24.519  43.610  50.774  1.00  0.00    -0.059 A 
HETATM    8  C   UNL     1      23.208  44.187  50.328  1.00  0.00     0.048 C 
HETATM    9  C   UNL     1      24.920  42.348  50.327  1.00  0.00     0.020 A 
HETATM   10  C   UNL     1      26.153  41.806  50.724  1.00  0.00    -0.005 A 
HETATM   11  C   UNL     1      27.008  42.526  51.585  1.00  0.00     0.093 A 
HETATM   12  C   UNL     1      26.570  40.543  50.282  1.00  0.00     0.015 A 
HETATM   13  N   UNL     1      28.210  42.031  51.977  1.00  0.00    -0.258 NA
HETATM   14  C   UNL     1      28.571  40.807  51.529  1.00  0.00     0.117 A 
HETATM   15  C   UNL     1      27.795  40.033  50.690  1.00  0.00     0.020 A 
ENDBRANCH   1   5
BRANCH   2  16
HETATM   16  C   UNL     1      28.422  45.671  54.777  1.00  0.00     0.141 C 
BRANCH  16  17
HETATM   17  C   UNL     1      29.462  45.011  55.655  1.00  0.00    -0.047 A 
HETATM   18  C   UNL     1      29.797  45.573  56.898  1.00  0.00     0.044 A 
HETATM   19  C   UNL     1      30.779  44.985  57.688  1.00  0.00     0.066 A 
HETATM   20  C   UNL     1      31.429  43.830  57.273  1.00  0.00     0.036 A 
HETATM   21  C   UNL     1      31.096  43.257  56.046  1.00  0.00     0.003 A 
HETATM   22  C   UNL     1      30.118  43.846  55.239  1.00  0.00     0.007 A 
BRANCH  19  23
HETATM   23  O   UNL     1      31.142  45.528  58.886  1.00  0.00    -0.361 OA
HETATM   24  H   UNL     1      31.074  44.836  59.564  1.00  0.00     0.217 HD
ENDBRANCH  19  23
ENDBRANCH  16  17
ENDBRANCH   2  16
TORSDOF 4
ENDMDL
MODEL 4
REMARK VINA RESULT:      -8.7      3.781      6.070
REMARK  4 active torsions:
REMARK  status: ('A' for Active; 'I' for Inactive)
REMARK    1  A    between atoms: C_4  and  N_5 
REMARK       I    between atoms: N_5  and  C_6 
REMARK    2  A    between atoms: C_6  and  C_7 
REMARK    3  A    between atoms: C_7  and  C_8 
REMARK    4  A    between atoms: C_10  and  O_11 
ROOT
HETATM    1  N   UNL     1      26.925  43.782  52.993  1.00  0.00    -0.325 N 
HETATM    2  C   UNL     1      26.973  43.761  51.617  1.00  0.00     0.226 C 
HETATM    3  O   UNL     1      27.576  44.563  50.905  1.00  0.00    -0.273 OA
HETATM    4  H   UNL     1      26.567  42.970  53.493  1.00  0.00     0.169 HD
ENDROOT
BRANCH   1   5
HETATM    5  C   UNL     1      27.395  44.795  53.866  1.00  0.00     0.065 A 
HETATM    6  C   UNL     1      26.705  45.995  54.076  1.00  0.00     0.038 A 
HETATM    7  C   UNL     1      27.185  46.943  54.985  1.00  0.00    -0.059 A 
HETATM    8  C   UNL     1      26.439  48.221  55.227  1.00  0.00     0.048 C 
HETATM    9  C   UNL     1      28.378  46.684  55.666  1.00  0.00     0.020 A 
HETATM   10  C   UNL     1      29.075  45.483  55.459  1.00  0.00    -0.005 A 
HETATM   11  C   UNL     1      28.584  44.515  54.557  1.00  0.00     0.093 A 
HETATM   12  C   UNL     1      30.271  45.210  56.137  1.00  0.00     0.015 A 
HETATM   13  N   UNL     1      29.231  43.341  54.346  1.00  0.00    -0.258 NA
HETATM   14  C   UNL     1      30.384  43.120  55.018  1.00  0.00     0.117 A 
HETATM   15  C   UNL     1      30.938  44.013  55.913  1.00  0.00     0.020 A 
ENDBRANCH   1   5
BRANCH   2  16
HETATM   16  C   UNL     1      26.157  42.632  51.001  1.00  0.00     0.141 C 
BRANCH  16  17
HETATM   17  C   UNL     1      27.035  41.626  50.291  1.00  0.00    -0.047 A 
HETATM   18  C   UNL     1      27.763  40.678  51.029  1.00  0.00     0.044 A 
HETATM   19  C   UNL     1      28.599  39.778  50.376  1.00  0.00     0.066 A 
HETATM   20  C   UNL     1      28.714  39.788  48.992  1.00  0.00     0.036 A 
HETATM   21  C   UNL     1      27.987  40.717  48.249  1.00  0.00     0.003 A 
HETATM   22  C   UNL     1      27.153  41.635  48.895  1.00  0.00     0.007 A 
BRANCH  19  23
HETATM   23  O   UNL     1      29.337  38.866  51.072  1.00  0.00    -0.361 OA
HETATM   24  H   UNL     1      29.554  38.132  50.473  1.00  0.00     0.217 HD
ENDBRANCH  19  23
ENDBRANCH  16  17
ENDBRANCH   2  16
TORSDOF 4
ENDMDL
MODEL 5
REMARK VINA RESULT:      -8.7      3.049      7.238
REMARK  4 active torsions:
REMARK  status: ('A' for Active; 'I' for Inactive)
REMARK    1  A    between atoms: C_4  and  N_5 
REMARK       I    between atoms: N_5  and  C_6 
REMARK    2  A    between atoms: C_6  and  C_7 
REMARK    3  A    between atoms: C_7  and  C_8 
REMARK    4  A    between atoms: C_10  and  O_11 
ROOT
HETATM    1  N   UNL     1      27.670  44.779  52.955  1.00  0.00    -0.325 N 
HETATM    2  C   UNL     1      27.469  44.872  54.315  1.00  0.00     0.226 C 
HETATM    3  O   UNL     1      26.594  44.290  54.954  1.00  0.00    -0.273 OA
HETATM    4  H   UNL     1      28.533  45.140  52.553  1.00  0.00     0.169 HD
ENDROOT
BRANCH   1   5
HETATM    5  C   UNL     1      26.838  44.156  51.992  1.00  0.00     0.065 A 
HETATM    6  C   UNL     1      26.868  42.780  51.739  1.00  0.00     0.038 A 
HETATM    7  C   UNL     1      25.992  42.207  50.812  1.00  0.00    -0.059 A 
HETATM    8  C   UNL     1      26.008  40.729  50.553  1.00  0.00     0.048 C 
HETATM    9  C   UNL     1      25.099  43.032  50.125  1.00  0.00     0.020 A 
HETATM   10  C   UNL     1      25.064  44.415  50.372  1.00  0.00    -0.005 A 
HETATM   11  C   UNL     1      25.934  44.994  51.321  1.00  0.00     0.093 A 
HETATM   12  C   UNL     1      24.172  45.254  49.691  1.00  0.00     0.015 A 
HETATM   13  N   UNL     1      25.914  46.324  51.588  1.00  0.00    -0.258 NA
HETATM   14  C   UNL     1      25.041  47.099  50.906  1.00  0.00     0.117 A 
HETATM   15  C   UNL     1      24.160  46.616  49.959  1.00  0.00     0.020 A 
ENDBRANCH   1   5
BRANCH   2  16
HETATM   16  C   UNL     1      28.439  45.821  55.006  1.00  0.00     0.141 C 
BRANCH  16  17
HETATM   17  C   UNL     1      29.497  45.073  55.787  1.00  0.00    -0.047 A 
HETATM   18  C   UNL     1      29.928  45.556  57.033  1.00  0.00     0.044 A 
HETATM   19  C   UNL     1      30.927  44.887  57.733  1.00  0.00     0.066 A 
HETATM   20  C   UNL     1      31.498  43.728  57.225  1.00  0.00     0.036 A 
HETATM   21  C   UNL     1      31.069  43.233  55.994  1.00  0.00     0.003 A 
HETATM   22  C   UNL     1      30.074  43.903  55.276  1.00  0.00     0.007 A 
BRANCH  19  23
HETATM   23  O   UNL     1      31.383  45.352  58.932  1.00  0.00    -0.361 OA
HETATM   24  H   UNL     1      31.645  44.588  59.473  1.00  0.00     0.217 HD
ENDBRANCH  19  23
ENDBRANCH  16  17
ENDBRANCH   2  16
TORSDOF 4
ENDMDL
MODEL 6
REMARK VINA RESULT:      -8.7      3.042      4.185
REMARK  4 active torsions:
REMARK  status: ('A' for Active; 'I' for Inactive)
REMARK    1  A    between atoms: C_4  and  N_5 
REMARK       I    between atoms: N_5  and  C_6 
REMARK    2  A    between atoms: C_6  and  C_7 
REMARK    3  A    between atoms: C_7  and  C_8 
REMARK    4  A    between atoms: C_10  and  O_11 
ROOT
HETATM    1  N   UNL     1      27.368  42.874  53.063  1.00  0.00    -0.325 N 
HETATM    2  C   UNL     1      27.796  42.115  51.996  1.00  0.00     0.226 C 
HETATM    3  O   UNL     1      28.964  41.825  51.742  1.00  0.00    -0.273 OA
HETATM    4  H   UNL     1      26.376  42.893  53.295  1.00  0.00     0.169 HD
ENDROOT
BRANCH   1   5
HETATM    5  C   UNL     1      28.157  43.616  53.977  1.00  0.00     0.065 A 
HETATM    6  C   UNL     1      29.270  43.076  54.631  1.00  0.00     0.038 A 
HETATM    7  C   UNL     1      30.046  43.864  55.486  1.00  0.00    -0.059 A 
HETATM    8  C   UNL     1      31.251  43.294  56.174  1.00  0.00     0.048 C 
HETATM    9  C   UNL     1      29.679  45.195  55.697  1.00  0.00     0.020 A 
HETATM   10  C   UNL     1      28.562  45.744  55.046  1.00  0.00    -0.005 A 
HETATM   11  C   UNL     1      27.789  44.957  54.166  1.00  0.00     0.093 A 
HETATM   12  C   UNL     1      28.185  47.078  55.247  1.00  0.00     0.015 A 
HETATM   13  N   UNL     1      26.711  45.463  53.515  1.00  0.00    -0.258 NA
HETATM   14  C   UNL     1      26.380  46.755  53.740  1.00  0.00     0.117 A 
HETATM   15  C   UNL     1      27.077  47.593  54.587  1.00  0.00     0.020 A 
ENDBRANCH   1   5
BRANCH   2  16
HETATM   16  C   UNL     1      26.663  41.659  51.086  1.00  0.00     0.141 C 
BRANCH  16  17
HETATM   17  C   UNL     1      25.830  42.823  50.599  1.00  0.00    -0.047 A 
HETATM   18  C   UNL     1      24.465  42.899  50.922  1.00  0.00     0.044 A 
HETATM   19  C   UNL     1      23.692  43.952  50.443  1.00  0.00     0.066 A 
HETATM   20  C   UNL     1      24.256  44.948  49.657  1.00  0.00     0.036 A 
HETATM   21  C   UNL     1      25.613  44.889  49.340  1.00  0.00     0.003 A 
HETATM   22  C   UNL     1      26.397  43.830  49.806  1.00  0.00     0.007 A 
BRANCH  19  23
HETATM   23  O   UNL     1      22.359  44.033  50.719  1.00  0.00    -0.361 OA
HETATM   24  H   UNL     1      21.894  44.268  49.899  1.00  0.00     0.217 HD
ENDBRANCH  19  23
ENDBRANCH  16  17
ENDBRANCH   2  16
TORSDOF 4
ENDMDL
MODEL 7
REMARK VINA RESULT:      -8.7      3.762      5.042
REMARK  4 active torsions:
REMARK  status: ('A' for Active; 'I' for Inactive)
REMARK    1  A    between atoms: C_4  and  N_5 
REMARK       I    between atoms: N_5  and  C_6 
REMARK    2  A    between atoms: C_6  and  C_7 
REMARK    3  A    between atoms: C_7  and  C_8 
REMARK    4  A    between atoms: C_10  and  O_11 
ROOT
HETATM    1  N   UNL     1      27.322  43.265  53.133  1.00  0.00    -0.325 N 
HETATM    2  C   UNL     1      27.337  43.097  51.766  1.00  0.00     0.226 C 
HETATM    3  O   UNL     1      27.762  43.907  50.945  1.00  0.00    -0.273 OA
HETATM    4  H   UNL     1      27.133  42.465  53.733  1.00  0.00     0.169 HD
ENDROOT
BRANCH   1   5
HETATM    5  C   UNL     1      27.619  44.440  53.868  1.00  0.00     0.065 A 
HETATM    6  C   UNL     1      26.798  45.573  53.853  1.00  0.00     0.038 A 
HETATM    7  C   UNL     1      27.109  46.689  54.635  1.00  0.00    -0.059 A 
HETATM    8  C   UNL     1      26.221  47.898  54.636  1.00  0.00     0.048 C 
HETATM    9  C   UNL     1      28.266  46.666  55.417  1.00  0.00     0.020 A 
HETATM   10  C   UNL     1      29.096  45.533  55.437  1.00  0.00    -0.005 A 
HETATM   11  C   UNL     1      28.775  44.397  54.664  1.00  0.00     0.093 A 
HETATM   12  C   UNL     1      30.259  45.495  56.219  1.00  0.00     0.015 A 
HETATM   13  N   UNL     1      29.551  43.284  54.672  1.00  0.00    -0.258 NA
HETATM   14  C   UNL     1      30.666  43.291  55.438  1.00  0.00     0.117 A 
HETATM   15  C   UNL     1      31.058  44.360  56.219  1.00  0.00     0.020 A 
ENDBRANCH   1   5
BRANCH   2  16
HETATM   16  C   UNL     1      26.728  41.776  51.314  1.00  0.00     0.141 C 
BRANCH  16  17
HETATM   17  C   UNL     1      25.465  41.985  50.507  1.00  0.00    -0.047 A 
HETATM   18  C   UNL     1      24.513  42.932  50.920  1.00  0.00     0.044 A 
HETATM   19  C   UNL     1      23.336  43.097  50.197  1.00  0.00     0.066 A 
HETATM   20  C   UNL     1      23.091  42.348  49.054  1.00  0.00     0.036 A 
HETATM   21  C   UNL     1      24.036  41.415  48.629  1.00  0.00     0.003 A 
HETATM   22  C   UNL     1      25.217  41.231  49.353  1.00  0.00     0.007 A 
BRANCH  19  23
HETATM   23  O   UNL     1      22.382  43.989  50.593  1.00  0.00    -0.361 OA
HETATM   24  H   UNL     1      22.794  44.868  50.647  1.00  0.00     0.217 HD
ENDBRANCH  19  23
ENDBRANCH  16  17
ENDBRANCH   2  16
TORSDOF 4
ENDMDL
MODEL 8
REMARK VINA RESULT:      -8.3      3.494      6.664
REMARK  4 active torsions:
REMARK  status: ('A' for Active; 'I' for Inactive)
REMARK    1  A    between atoms: C_4  and  N_5 
REMARK       I    between atoms: N_5  and  C_6 
REMARK    2  A    between atoms: C_6  and  C_7 
REMARK    3  A    between atoms: C_7  and  C_8 
REMARK    4  A    between atoms: C_10  and  O_11 
ROOT
HETATM    1  N   UNL     1      28.714  43.064  52.164  1.00  0.00    -0.325 N 
HETATM    2  C   UNL     1      28.993  42.503  53.391  1.00  0.00     0.226 C 
HETATM    3  O   UNL     1      28.236  41.787  54.044  1.00  0.00    -0.273 OA
HETATM    4  H   UNL     1      29.470  43.475  51.620  1.00  0.00     0.169 HD
ENDROOT
BRANCH   1   5
HETATM    5  C   UNL     1      27.473  43.092  51.481  1.00  0.00     0.065 A 
HETATM    6  C   UNL     1      27.024  42.037  50.678  1.00  0.00     0.038 A 
HETATM    7  C   UNL     1      25.770  42.093  50.064  1.00  0.00    -0.059 A 
HETATM    8  C   UNL     1      25.278  40.956  49.218  1.00  0.00     0.048 C 
HETATM    9  C   UNL     1      24.976  43.228  50.246  1.00  0.00     0.020 A 
HETATM   10  C   UNL     1      25.420  44.291  51.050  1.00  0.00    -0.005 A 
HETATM   11  C   UNL     1      26.678  44.231  51.687  1.00  0.00     0.093 A 
HETATM   12  C   UNL     1      24.634  45.435  51.244  1.00  0.00     0.015 A 
HETATM   13  N   UNL     1      27.127  45.238  52.478  1.00  0.00    -0.258 NA
HETATM   14  C   UNL     1      26.338  46.325  52.635  1.00  0.00     0.117 A 
HETATM   15  C   UNL     1      25.098  46.469  52.045  1.00  0.00     0.020 A 
ENDBRANCH   1   5
BRANCH   2  16
HETATM   16  C   UNL     1      30.370  42.874  53.926  1.00  0.00     0.141 C 
BRANCH  16  17
HETATM   17  C   UNL     1      30.277  43.751  55.155  1.00  0.00    -0.047 A 
HETATM   18  C   UNL     1      29.339  44.796  55.208  1.00  0.00     0.044 A 
HETATM   19  C   UNL     1      29.281  45.625  56.323  1.00  0.00     0.066 A 
HETATM   20  C   UNL     1      30.129  45.424  57.404  1.00  0.00     0.036 A 
HETATM   21  C   UNL     1      31.055  44.383  57.367  1.00  0.00     0.003 A 
HETATM   22  C   UNL     1      31.132  43.551  56.246  1.00  0.00     0.007 A 
BRANCH  19  23
HETATM   23  O   UNL     1      28.398  46.663  56.387  1.00  0.00    -0.361 OA
HETATM   24  H   UNL     1      27.593  46.405  55.909  1.00  0.00     0.217 HD
ENDBRANCH  19  23
ENDBRANCH  16  17
ENDBRANCH   2  16
TORSDOF 4
ENDMDL
MODEL 9
REMARK VINA RESULT:      -8.2      3.632      7.472
REMARK  4 active torsions:
REMARK  status: ('A' for Active; 'I' for Inactive)
REMARK    1  A    between atoms: C_4  and  N_5 
REMARK       I    between atoms: N_5  and  C_6 
REMARK    2  A    between atoms: C_6  and  C_7 
REMARK    3  A    between atoms: C_7  and  C_8 
REMARK    4  A    between atoms: C_10  and  O_11 
ROOT
HETATM    1  N   UNL     1      28.718  43.181  52.188  1.00  0.00    -0.325 N 
HETATM    2  C   UNL     1      28.968  42.598  53.411  1.00  0.00     0.226 C 
HETATM    3  O   UNL     1      28.161  41.955  54.080  1.00  0.00    -0.273 OA
HETATM    4  H   UNL     1      29.499  43.521  51.629  1.00  0.00     0.169 HD
ENDROOT
BRANCH   1   5
HETATM    5  C   UNL     1      27.473  43.320  51.528  1.00  0.00     0.065 A 
HETATM    6  C   UNL     1      26.708  44.491  51.585  1.00  0.00     0.038 A 
HETATM    7  C   UNL     1      25.509  44.595  50.876  1.00  0.00    -0.059 A 
HETATM    8  C   UNL     1      24.697  45.856  50.920  1.00  0.00     0.048 C 
HETATM    9  C   UNL     1      25.071  43.503  50.123  1.00  0.00     0.020 A 
HETATM   10  C   UNL     1      25.832  42.324  50.061  1.00  0.00    -0.005 A 
HETATM   11  C   UNL     1      27.053  42.222  50.760  1.00  0.00     0.093 A 
HETATM   12  C   UNL     1      25.406  41.221  49.308  1.00  0.00     0.015 A 
HETATM   13  N   UNL     1      27.814  41.099  50.710  1.00  0.00    -0.258 NA
HETATM   14  C   UNL     1      27.364  40.058  49.974  1.00  0.00     0.117 A 
HETATM   15  C   UNL     1      26.180  40.070  49.264  1.00  0.00     0.020 A 
ENDBRANCH   1   5
BRANCH   2  16
HETATM   16  C   UNL     1      30.382  42.845  53.921  1.00  0.00     0.141 C 
BRANCH  16  17
HETATM   17  C   UNL     1      30.386  43.655  55.198  1.00  0.00    -0.047 A 
HETATM   18  C   UNL     1      29.506  44.740  55.349  1.00  0.00     0.044 A 
HETATM   19  C   UNL     1      29.536  45.506  56.510  1.00  0.00     0.066 A 
HETATM   20  C   UNL     1      30.417  45.204  57.539  1.00  0.00     0.036 A 
HETATM   21  C   UNL     1      31.286  44.122  57.405  1.00  0.00     0.003 A 
HETATM   22  C   UNL     1      31.273  43.351  56.239  1.00  0.00     0.007 A 
BRANCH  19  23
HETATM   23  O   UNL     1      28.712  46.582  56.669  1.00  0.00    -0.361 OA
HETATM   24  H   UNL     1      29.257  47.345  56.922  1.00  0.00     0.217 HD
ENDBRANCH  19  23
ENDBRANCH  16  17
ENDBRANCH   2  16
TORSDOF 4
ENDMDL
MODEL 10
REMARK VINA RESULT:      -8.1      3.870      6.344
REMARK  4 active torsions:
REMARK  status: ('A' for Active; 'I' for Inactive)
REMARK    1  A    between atoms: C_4  and  N_5 
REMARK       I    between atoms: N_5  and  C_6 
REMARK    2  A    between atoms: C_6  and  C_7 
REMARK    3  A    between atoms: C_7  and  C_8 
REMARK    4  A    between atoms: C_10  and  O_11 
ROOT
HETATM    1  N   UNL     1      27.046  42.560  52.766  1.00  0.00    -0.325 N 
HETATM    2  C   UNL     1      27.491  41.508  51.995  1.00  0.00     0.226 C 
HETATM    3  O   UNL     1      28.610  41.001  52.046  1.00  0.00    -0.273 OA
HETATM    4  H   UNL     1      26.052  42.777  52.787  1.00  0.00     0.169 HD
ENDROOT
BRANCH   1   5
HETATM    5  C   UNL     1      27.804  43.382  53.637  1.00  0.00     0.065 A 
HETATM    6  C   UNL     1      28.937  42.926  54.319  1.00  0.00     0.038 A 
HETATM    7  C   UNL     1      29.679  43.790  55.129  1.00  0.00    -0.059 A 
HETATM    8  C   UNL     1      30.905  43.309  55.846  1.00  0.00     0.048 C 
HETATM    9  C   UNL     1      29.258  45.116  55.266  1.00  0.00     0.020 A 
HETATM   10  C   UNL     1      28.121  45.581  54.585  1.00  0.00    -0.005 A 
HETATM   11  C   UNL     1      27.381  44.716  53.751  1.00  0.00     0.093 A 
HETATM   12  C   UNL     1      27.690  46.909  54.712  1.00  0.00     0.015 A 
HETATM   13  N   UNL     1      26.285  45.142  53.074  1.00  0.00    -0.258 NA
HETATM   14  C   UNL     1      25.902  46.429  53.227  1.00  0.00     0.117 A 
HETATM   15  C   UNL     1      26.563  47.341  54.026  1.00  0.00     0.020 A 
ENDBRANCH   1   5
BRANCH   2  16
HETATM   16  C   UNL     1      26.454  41.010  50.998  1.00  0.00     0.141 C 
BRANCH  16  17
HETATM   17  C   UNL     1      27.098  40.443  49.752  1.00  0.00    -0.047 A 
HETATM   18  C   UNL     1      27.301  39.059  49.630  1.00  0.00     0.044 A 
HETATM   19  C   UNL     1      27.927  38.543  48.499  1.00  0.00     0.066 A 
HETATM   20  C   UNL     1      28.342  39.379  47.472  1.00  0.00     0.036 A 
HETATM   21  C   UNL     1      28.134  40.754  47.578  1.00  0.00     0.003 A 
HETATM   22  C   UNL     1      27.517  41.285  48.714  1.00  0.00     0.007 A 
BRANCH  19  23
HETATM   23  O   UNL     1      28.162  37.205  48.370  1.00  0.00    -0.361 OA
HETATM   24  H   UNL     1      27.397  36.806  47.921  1.00  0.00     0.217 HD
ENDBRANCH  19  23
ENDBRANCH  16  17
ENDBRANCH   2  16
TORSDOF 4
ENDMDL
