MODEL 1
REMARK VINA RESULT:      -8.8      0.000      0.000
REMARK  4 active torsions:
REMARK  status: ('A' for Active; 'I' for Inactive)
REMARK    1  A    between atoms: N_2  and  C_3 
REMARK    2  A    between atoms: C_9  and  N_10 
REMARK       I    between atoms: N_10  and  C_11 
REMARK    3  A    between atoms: C_11  and  C_12 
REMARK    4  A    between atoms: C_12  and  C_13 
ROOT
HETATM    1  N   UNL     1      25.293  45.987  51.962  1.00  0.00    -0.327 N 
HETATM    2  C   UNL     1      25.196  46.805  50.849  1.00  0.00     0.227 C 
HETATM    3  O   UNL     1      25.850  47.826  50.639  1.00  0.00    -0.273 OA
HETATM    4  H   UNL     1      24.643  45.211  52.039  1.00  0.00     0.169 HD
ENDROOT
BRANCH   1   5
HETATM    5  C   UNL     1      26.200  46.108  53.041  1.00  0.00     0.037 A 
HETATM    6  C   UNL     1      27.276  45.233  53.247  1.00  0.00     0.069 A 
HETATM    7  C   UNL     1      28.049  45.469  54.382  1.00  0.00     0.110 A 
HETATM    8  O   UNL     1      29.124  44.752  54.813  1.00  0.00    -0.276 OA
HETATM    9  C   UNL     1      27.837  46.491  55.287  1.00  0.00     0.095 A 
HETATM   10  C   UNL     1      29.504  45.377  55.977  1.00  0.00     0.249 A 
HETATM   11  N   UNL     1      28.768  46.426  56.287  1.00  0.00    -0.206 NA
HETATM   12  C   UNL     1      26.776  47.373  55.072  1.00  0.00     0.037 A 
HETATM   13  C   UNL     1      25.962  47.163  53.944  1.00  0.00     0.032 A 
BRANCH  10  14
HETATM   14  N   UNL     1      30.543  44.846  56.662  1.00  0.00    -0.354 N 
HETATM   15  C   UNL     1      30.648  45.109  58.088  1.00  0.00     0.152 C 
HETATM   16  C   UNL     1      31.031  43.555  56.201  1.00  0.00     0.152 C 
ENDBRANCH  10  14
ENDBRANCH   1   5
BRANCH   2  17
HETATM   17  C   UNL     1      24.167  46.305  49.849  1.00  0.00     0.161 C 
BRANCH  17  18
HETATM   18  C   UNL     1      23.261  47.368  49.352  1.00  0.00     0.035 A 
HETATM   19  N   UNL     1      23.288  48.689  49.787  1.00  0.00    -0.344 N 
HETATM   20  H   UNL     1      23.950  49.031  50.493  1.00  0.00     0.167 HD
HETATM   21  C   UNL     1      22.359  49.417  49.181  1.00  0.00     0.111 A 
HETATM   22  N   UNL     1      21.713  48.602  48.325  1.00  0.00    -0.317 N 
HETATM   23  C   UNL     1      21.990  50.846  49.317  1.00  0.00     0.049 A 
HETATM   24  C   UNL     1      22.254  47.332  48.407  1.00  0.00     0.123 A 
HETATM   25  C   UNL     1      20.678  49.040  47.523  1.00  0.00     0.098 A 
HETATM   26  C   UNL     1      20.322  50.335  47.627  1.00  0.00     0.018 A 
HETATM   27  C   UNL     1      20.979  51.270  48.538  1.00  0.00     0.005 A 
ENDBRANCH  17  18
ENDBRANCH   2  17
TORSDOF 4
ENDMDL
MODEL 2
REMARK VINA RESULT:      -8.7      1.962      9.734
REMARK  4 active torsions:
REMARK  status: ('A' for Active; 'I' for Inactive)
REMARK    1  A    between atoms: N_2  and  C_3 
REMARK    2  A    between atoms: C_9  and  N_10 
REMARK       I    between atoms: N_10  and  C_11 
REMARK    3  A    between atoms: C_11  and  C_12 
REMARK    4  A    between atoms: C_12  and  C_13 
ROOT
HETATM    1  N   UNL     1      27.178  44.821  50.916  1.00  0.00    -0.327 N 
HETATM    2  C   UNL     1      27.249  44.131  52.115  1.00  0.00     0.227 C 
HETATM    3  O   UNL     1      26.353  44.044  52.955  1.00  0.00    -0.273 OA
HETATM    4  H   UNL     1      28.017  44.868  50.347  1.00  0.00     0.169 HD
ENDROOT
BRANCH   1   5
HETATM    5  C   UNL     1      26.059  45.497  50.378  1.00  0.00     0.037 A 
HETATM    6  C   UNL     1      25.812  46.864  50.577  1.00  0.00     0.069 A 
HETATM    7  C   UNL     1      24.641  47.363  50.012  1.00  0.00     0.110 A 
HETATM    8  O   UNL     1      24.170  48.639  50.083  1.00  0.00    -0.276 OA
HETATM    9  C   UNL     1      23.736  46.622  49.277  1.00  0.00     0.095 A 
HETATM   10  C   UNL     1      22.983  48.600  49.390  1.00  0.00     0.249 A 
HETATM   11  N   UNL     1      22.695  47.418  48.884  1.00  0.00    -0.206 NA
HETATM   12  C   UNL     1      23.990  45.265  49.065  1.00  0.00     0.037 A 
HETATM   13  C   UNL     1      25.156  44.717  49.629  1.00  0.00     0.032 A 
BRANCH  10  14
HETATM   14  N   UNL     1      22.256  49.741  49.330  1.00  0.00    -0.354 N 
HETATM   15  C   UNL     1      22.838  50.907  48.686  1.00  0.00     0.152 C 
HETATM   16  C   UNL     1      20.815  49.586  49.215  1.00  0.00     0.152 C 
ENDBRANCH  10  14
ENDBRANCH   1   5
BRANCH   2  17
HETATM   17  C   UNL     1      28.590  43.446  52.314  1.00  0.00     0.161 C 
BRANCH  17  18
HETATM   18  C   UNL     1      29.201  43.718  53.637  1.00  0.00     0.035 A 
HETATM   19  N   UNL     1      28.882  44.807  54.441  1.00  0.00    -0.344 N 
HETATM   20  H   UNL     1      28.185  45.512  54.175  1.00  0.00     0.167 HD
HETATM   21  C   UNL     1      29.590  44.803  55.563  1.00  0.00     0.111 A 
HETATM   22  N   UNL     1      30.376  43.711  55.532  1.00  0.00    -0.317 N 
HETATM   23  C   UNL     1      29.618  45.746  56.706  1.00  0.00     0.049 A 
HETATM   24  C   UNL     1      30.152  43.019  54.355  1.00  0.00     0.123 A 
HETATM   25  C   UNL     1      31.249  43.396  56.556  1.00  0.00     0.098 A 
HETATM   26  C   UNL     1      31.295  44.236  57.608  1.00  0.00     0.018 A 
HETATM   27  C   UNL     1      30.471  45.440  57.701  1.00  0.00     0.005 A 
ENDBRANCH  17  18
ENDBRANCH   2  17
TORSDOF 4
ENDMDL
MODEL 3
REMARK VINA RESULT:      -8.4      2.245      3.260
REMARK  4 active torsions:
REMARK  status: ('A' for Active; 'I' for Inactive)
REMARK    1  A    between atoms: N_2  and  C_3 
REMARK    2  A    between atoms: C_9  and  N_10 
REMARK       I    between atoms: N_10  and  C_11 
REMARK    3  A    between atoms: C_11  and  C_12 
REMARK    4  A    between atoms: C_12  and  C_13 
ROOT
HETATM    1  N   UNL     1      26.382  44.227  51.606  1.00  0.00    -0.327 N 
HETATM    2  C   UNL     1      25.064  44.472  51.956  1.00  0.00     0.227 C 
HETATM    3  O   UNL     1      24.599  44.445  53.095  1.00  0.00    -0.273 OA
HETATM    4  H   UNL     1      26.615  44.216  50.618  1.00  0.00     0.169 HD
ENDROOT
BRANCH   1   5
HETATM    5  C   UNL     1      27.468  43.970  52.474  1.00  0.00     0.037 A 
HETATM    6  C   UNL     1      27.685  44.671  53.669  1.00  0.00     0.069 A 
HETATM    7  C   UNL     1      28.826  44.320  54.386  1.00  0.00     0.110 A 
HETATM    8  O   UNL     1      29.267  44.866  55.554  1.00  0.00    -0.276 OA
HETATM    9  C   UNL     1      29.729  43.343  54.013  1.00  0.00     0.095 A 
HETATM   10  C   UNL     1      30.434  44.191  55.824  1.00  0.00     0.249 A 
HETATM   11  N   UNL     1      30.737  43.266  54.934  1.00  0.00    -0.206 NA
HETATM   12  C   UNL     1      29.503  42.633  52.832  1.00  0.00     0.037 A 
HETATM   13  C   UNL     1      28.368  42.964  52.070  1.00  0.00     0.032 A 
BRANCH  10  14
HETATM   14  N   UNL     1      31.129  44.558  56.926  1.00  0.00    -0.354 N 
HETATM   15  C   UNL     1      30.538  45.527  57.834  1.00  0.00     0.152 C 
HETATM   16  C   UNL     1      31.982  43.543  57.522  1.00  0.00     0.152 C 
ENDBRANCH  10  14
ENDBRANCH   1   5
BRANCH   2  17
HETATM   17  C   UNL     1      24.196  44.807  50.755  1.00  0.00     0.161 C 
BRANCH  17  18
HETATM   18  C   UNL     1      24.508  46.124  50.150  1.00  0.00     0.035 A 
HETATM   19  N   UNL     1      23.552  47.024  49.691  1.00  0.00    -0.344 N 
HETATM   20  H   UNL     1      22.543  46.841  49.742  1.00  0.00     0.167 HD
HETATM   21  C   UNL     1      24.116  48.115  49.190  1.00  0.00     0.111 A 
HETATM   22  N   UNL     1      25.448  47.968  49.320  1.00  0.00    -0.317 N 
HETATM   23  C   UNL     1      23.527  49.328  48.575  1.00  0.00     0.049 A 
HETATM   24  C   UNL     1      25.717  46.749  49.915  1.00  0.00     0.123 A 
HETATM   25  C   UNL     1      26.345  48.931  48.898  1.00  0.00     0.098 A 
HETATM   26  C   UNL     1      25.836  50.044  48.336  1.00  0.00     0.018 A 
HETATM   27  C   UNL     1      24.402  50.264  48.162  1.00  0.00     0.005 A 
ENDBRANCH  17  18
ENDBRANCH   2  17
TORSDOF 4
ENDMDL
MODEL 4
REMARK VINA RESULT:      -8.2      6.514     10.835
REMARK  4 active torsions:
REMARK  status: ('A' for Active; 'I' for Inactive)
REMARK    1  A    between atoms: N_2  and  C_3 
REMARK    2  A    between atoms: C_9  and  N_10 
REMARK       I    between atoms: N_10  and  C_11 
REMARK    3  A    between atoms: C_11  and  C_12 
REMARK    4  A    between atoms: C_12  and  C_13 
ROOT
HETATM    1  N   UNL     1      16.865  52.010  50.135  1.00  0.00    -0.327 N 
HETATM    2  C   UNL     1      15.762  52.361  49.375  1.00  0.00     0.227 C 
HETATM    3  O   UNL     1      15.680  52.308  48.148  1.00  0.00    -0.273 OA
HETATM    4  H   UNL     1      16.820  52.169  51.137  1.00  0.00     0.169 HD
ENDROOT
BRANCH   1   5
HETATM    5  C   UNL     1      18.083  51.456  49.677  1.00  0.00     0.037 A 
HETATM    6  C   UNL     1      18.478  50.136  49.940  1.00  0.00     0.069 A 
HETATM    7  C   UNL     1      19.727  49.762  49.450  1.00  0.00     0.110 A 
HETATM    8  O   UNL     1      20.342  48.555  49.593  1.00  0.00    -0.276 OA
HETATM    9  C   UNL     1      20.576  50.582  48.731  1.00  0.00     0.095 A 
HETATM   10  C   UNL     1      21.550  48.713  48.956  1.00  0.00     0.249 A 
HETATM   11  N   UNL     1      21.722  49.904  48.418  1.00  0.00    -0.206 NA
HETATM   12  C   UNL     1      20.174  51.891  48.455  1.00  0.00     0.037 A 
HETATM   13  C   UNL     1      18.924  52.314  48.942  1.00  0.00     0.032 A 
BRANCH  10  14
HETATM   14  N   UNL     1      22.408  47.666  48.974  1.00  0.00    -0.354 N 
HETATM   15  C   UNL     1      22.298  46.654  47.936  1.00  0.00     0.152 C 
HETATM   16  C   UNL     1      23.744  47.932  49.485  1.00  0.00     0.152 C 
ENDBRANCH  10  14
ENDBRANCH   1   5
BRANCH   2  17
HETATM   17  C   UNL     1      14.595  52.834  50.226  1.00  0.00     0.161 C 
BRANCH  17  18
HETATM   18  C   UNL     1      14.785  54.194  50.784  1.00  0.00     0.035 A 
HETATM   19  N   UNL     1      14.943  54.473  52.138  1.00  0.00    -0.344 N 
HETATM   20  H   UNL     1      14.945  53.745  52.861  1.00  0.00     0.167 HD
HETATM   21  C   UNL     1      15.082  55.775  52.350  1.00  0.00     0.111 A 
HETATM   22  N   UNL     1      15.034  56.380  51.148  1.00  0.00    -0.317 N 
HETATM   23  C   UNL     1      15.259  56.551  53.600  1.00  0.00     0.049 A 
HETATM   24  C   UNL     1      14.856  55.426  50.163  1.00  0.00     0.123 A 
HETATM   25  C   UNL     1      15.151  57.749  51.001  1.00  0.00     0.098 A 
HETATM   26  C   UNL     1      15.312  58.478  52.122  1.00  0.00     0.018 A 
HETATM   27  C   UNL     1      15.368  57.884  53.456  1.00  0.00     0.005 A 
ENDBRANCH  17  18
ENDBRANCH   2  17
TORSDOF 4
ENDMDL
MODEL 5
REMARK VINA RESULT:      -8.2      2.117      9.412
REMARK  4 active torsions:
REMARK  status: ('A' for Active; 'I' for Inactive)
REMARK    1  A    between atoms: N_2  and  C_3 
REMARK    2  A    between atoms: C_9  and  N_10 
REMARK       I    between atoms: N_10  and  C_11 
REMARK    3  A    between atoms: C_11  and  C_12 
REMARK    4  A    between atoms: C_12  and  C_13 
ROOT
HETATM    1  N   UNL     1      25.418  43.976  51.219  1.00  0.00    -0.327 N 
HETATM    2  C   UNL     1      26.692  43.501  50.958  1.00  0.00     0.227 C 
HETATM    3  O   UNL     1      27.392  43.793  49.988  1.00  0.00    -0.273 OA
HETATM    4  H   UNL     1      24.926  43.598  52.022  1.00  0.00     0.169 HD
ENDROOT
BRANCH   1   5
HETATM    5  C   UNL     1      24.692  44.937  50.478  1.00  0.00     0.037 A 
HETATM    6  C   UNL     1      24.805  46.319  50.684  1.00  0.00     0.069 A 
HETATM    7  C   UNL     1      23.987  47.125  49.896  1.00  0.00     0.110 A 
HETATM    8  O   UNL     1      23.894  48.485  49.924  1.00  0.00    -0.276 OA
HETATM    9  C   UNL     1      23.102  46.664  48.941  1.00  0.00     0.095 A 
HETATM   10  C   UNL     1      22.938  48.778  48.981  1.00  0.00     0.249 A 
HETATM   11  N   UNL     1      22.450  47.720  48.364  1.00  0.00    -0.206 NA
HETATM   12  C   UNL     1      23.002  45.289  48.723  1.00  0.00     0.037 A 
HETATM   13  C   UNL     1      23.802  44.437  49.506  1.00  0.00     0.032 A 
BRANCH  10  14
HETATM   14  N   UNL     1      22.600  50.078  48.816  1.00  0.00    -0.354 N 
HETATM   15  C   UNL     1      21.870  50.750  49.878  1.00  0.00     0.152 C 
HETATM   16  C   UNL     1      23.522  50.894  48.042  1.00  0.00     0.152 C 
ENDBRANCH  10  14
ENDBRANCH   1   5
BRANCH   2  17
HETATM   17  C   UNL     1      27.187  42.546  52.032  1.00  0.00     0.161 C 
BRANCH  17  18
HETATM   18  C   UNL     1      27.986  43.210  53.090  1.00  0.00     0.035 A 
HETATM   19  N   UNL     1      29.071  42.629  53.737  1.00  0.00    -0.344 N 
HETATM   20  H   UNL     1      29.407  41.683  53.523  1.00  0.00     0.167 HD
HETATM   21  C   UNL     1      29.588  43.447  54.644  1.00  0.00     0.111 A 
HETATM   22  N   UNL     1      28.870  44.585  54.606  1.00  0.00    -0.317 N 
HETATM   23  C   UNL     1      30.721  43.277  55.584  1.00  0.00     0.049 A 
HETATM   24  C   UNL     1      27.877  44.468  53.650  1.00  0.00     0.123 A 
HETATM   25  C   UNL     1      29.143  45.662  55.428  1.00  0.00     0.098 A 
HETATM   26  C   UNL     1      30.169  45.534  56.292  1.00  0.00     0.018 A 
HETATM   27  C   UNL     1      30.984  44.325  56.386  1.00  0.00     0.005 A 
ENDBRANCH  17  18
ENDBRANCH   2  17
TORSDOF 4
ENDMDL
MODEL 6
REMARK VINA RESULT:      -7.9      2.296      3.116
REMARK  4 active torsions:
REMARK  status: ('A' for Active; 'I' for Inactive)
REMARK    1  A    between atoms: N_2  and  C_3 
REMARK    2  A    between atoms: C_9  and  N_10 
REMARK       I    between atoms: N_10  and  C_11 
REMARK    3  A    between atoms: C_11  and  C_12 
REMARK    4  A    between atoms: C_12  and  C_13 
ROOT
HETATM    1  N   UNL     1      23.746  46.326  49.982  1.00  0.00    -0.327 N 
HETATM    2  C   UNL     1      23.534  47.588  49.452  1.00  0.00     0.227 C 
HETATM    3  O   UNL     1      24.150  48.612  49.749  1.00  0.00    -0.273 OA
HETATM    4  H   UNL     1      23.118  45.581  49.697  1.00  0.00     0.169 HD
ENDROOT
BRANCH   1   5
HETATM    5  C   UNL     1      24.744  45.938  50.905  1.00  0.00     0.037 A 
HETATM    6  C   UNL     1      25.236  44.628  51.006  1.00  0.00     0.069 A 
HETATM    7  C   UNL     1      26.189  44.407  51.997  1.00  0.00     0.110 A 
HETATM    8  O   UNL     1      26.797  43.228  52.310  1.00  0.00    -0.276 OA
HETATM    9  C   UNL     1      26.678  45.371  52.857  1.00  0.00     0.095 A 
HETATM   10  C   UNL     1      27.623  43.542  53.363  1.00  0.00     0.249 A 
HETATM   11  N   UNL     1      27.590  44.813  53.711  1.00  0.00    -0.206 NA
HETATM   12  C   UNL     1      26.201  46.679  52.745  1.00  0.00     0.037 A 
HETATM   13  C   UNL     1      25.228  46.944  51.765  1.00  0.00     0.032 A 
BRANCH  10  14
HETATM   14  N   UNL     1      28.336  42.535  53.921  1.00  0.00    -0.354 N 
HETATM   15  C   UNL     1      28.341  41.237  53.267  1.00  0.00     0.152 C 
HETATM   16  C   UNL     1      29.550  42.914  54.625  1.00  0.00     0.152 C 
ENDBRANCH  10  14
ENDBRANCH   1   5
BRANCH   2  17
HETATM   17  C   UNL     1      22.428  47.604  48.411  1.00  0.00     0.161 C 
BRANCH  17  18
HETATM   18  C   UNL     1      21.365  48.597  48.695  1.00  0.00     0.035 A 
HETATM   19  N   UNL     1      21.394  49.922  48.273  1.00  0.00    -0.344 N 
HETATM   20  H   UNL     1      22.165  50.315  47.720  1.00  0.00     0.167 HD
HETATM   21  C   UNL     1      20.318  50.583  48.679  1.00  0.00     0.111 A 
HETATM   22  N   UNL     1      19.551  49.712  49.360  1.00  0.00    -0.317 N 
HETATM   23  C   UNL     1      19.910  51.996  48.496  1.00  0.00     0.049 A 
HETATM   24  C   UNL     1      20.172  48.475  49.381  1.00  0.00     0.123 A 
HETATM   25  C   UNL     1      18.343  50.071  49.925  1.00  0.00     0.098 A 
HETATM   26  C   UNL     1      17.947  51.350  49.775  1.00  0.00     0.018 A 
HETATM   27  C   UNL     1      18.734  52.346  49.050  1.00  0.00     0.005 A 
ENDBRANCH  17  18
ENDBRANCH   2  17
TORSDOF 4
ENDMDL
MODEL 7
REMARK VINA RESULT:      -7.7      4.481      6.738
REMARK  4 active torsions:
REMARK  status: ('A' for Active; 'I' for Inactive)
REMARK    1  A    between atoms: N_2  and  C_3 
REMARK    2  A    between atoms: C_9  and  N_10 
REMARK       I    between atoms: N_10  and  C_11 
REMARK    3  A    between atoms: C_11  and  C_12 
REMARK    4  A    between atoms: C_12  and  C_13 
ROOT
HETATM    1  N   UNL     1      26.117  44.178  51.492  1.00  0.00    -0.327 N 
HETATM    2  C   UNL     1      26.440  44.256  50.147  1.00  0.00     0.227 C 
HETATM    3  O   UNL     1      27.378  44.888  49.662  1.00  0.00    -0.273 OA
HETATM    4  H   UNL     1      25.274  43.674  51.748  1.00  0.00     0.169 HD
ENDROOT
BRANCH   1   5
HETATM    5  C   UNL     1      26.826  44.738  52.580  1.00  0.00     0.037 A 
HETATM    6  C   UNL     1      27.918  44.109  53.197  1.00  0.00     0.069 A 
HETATM    7  C   UNL     1      28.477  44.779  54.282  1.00  0.00     0.110 A 
HETATM    8  O   UNL     1      29.519  44.368  55.058  1.00  0.00    -0.276 OA
HETATM    9  C   UNL     1      28.045  45.997  54.771  1.00  0.00     0.095 A 
HETATM   10  C   UNL     1      29.657  45.365  55.994  1.00  0.00     0.249 A 
HETATM   11  N   UNL     1      28.805  46.360  55.849  1.00  0.00    -0.206 NA
HETATM   12  C   UNL     1      26.969  46.631  54.146  1.00  0.00     0.037 A 
HETATM   13  C   UNL     1      26.367  45.983  53.053  1.00  0.00     0.032 A 
BRANCH  10  14
HETATM   14  N   UNL     1      30.609  45.204  56.944  1.00  0.00    -0.354 N 
HETATM   15  C   UNL     1      30.441  45.873  58.222  1.00  0.00     0.152 C 
HETATM   16  C   UNL     1      31.291  43.919  56.966  1.00  0.00     0.152 C 
ENDBRANCH  10  14
ENDBRANCH   1   5
BRANCH   2  17
HETATM   17  C   UNL     1      25.498  43.444  49.275  1.00  0.00     0.161 C 
BRANCH  17  18
HETATM   18  C   UNL     1      26.032  42.109  48.912  1.00  0.00     0.035 A 
HETATM   19  N   UNL     1      27.365  41.735  49.042  1.00  0.00    -0.344 N 
HETATM   20  H   UNL     1      28.088  42.364  49.408  1.00  0.00     0.167 HD
HETATM   21  C   UNL     1      27.559  40.488  48.632  1.00  0.00     0.111 A 
HETATM   22  N   UNL     1      26.364  40.009  48.239  1.00  0.00    -0.317 N 
HETATM   23  C   UNL     1      28.787  39.661  48.559  1.00  0.00     0.049 A 
HETATM   24  C   UNL     1      25.401  40.989  48.407  1.00  0.00     0.123 A 
HETATM   25  C   UNL     1      26.202  38.726  47.753  1.00  0.00     0.098 A 
HETATM   26  C   UNL     1      27.302  37.953  47.676  1.00  0.00     0.018 A 
HETATM   27  C   UNL     1      28.629  38.413  48.082  1.00  0.00     0.005 A 
ENDBRANCH  17  18
ENDBRANCH   2  17
TORSDOF 4
ENDMDL
MODEL 8
REMARK VINA RESULT:      -7.6      5.693     11.472
REMARK  4 active torsions:
REMARK  status: ('A' for Active; 'I' for Inactive)
REMARK    1  A    between atoms: N_2  and  C_3 
REMARK    2  A    between atoms: C_9  and  N_10 
REMARK       I    between atoms: N_10  and  C_11 
REMARK    3  A    between atoms: C_11  and  C_12 
REMARK    4  A    between atoms: C_12  and  C_13 
ROOT
HETATM    1  N   UNL     1      19.062  48.932  49.096  1.00  0.00    -0.327 N 
HETATM    2  C   UNL     1      20.184  48.805  48.294  1.00  0.00     0.227 C 
HETATM    3  O   UNL     1      20.473  49.517  47.333  1.00  0.00    -0.273 OA
HETATM    4  H   UNL     1      18.912  48.232  49.815  1.00  0.00     0.169 HD
ENDROOT
BRANCH   1   5
HETATM    5  C   UNL     1      18.065  49.933  49.027  1.00  0.00     0.037 A 
HETATM    6  C   UNL     1      18.111  51.121  49.772  1.00  0.00     0.069 A 
HETATM    7  C   UNL     1      17.028  51.982  49.617  1.00  0.00     0.110 A 
HETATM    8  O   UNL     1      16.826  53.176  50.243  1.00  0.00    -0.276 OA
HETATM    9  C   UNL     1      15.944  51.754  48.791  1.00  0.00     0.095 A 
HETATM   10  C   UNL     1      15.611  53.607  49.766  1.00  0.00     0.249 A 
HETATM   11  N   UNL     1      15.059  52.793  48.888  1.00  0.00    -0.206 NA
HETATM   12  C   UNL     1      15.907  50.579  48.036  1.00  0.00     0.037 A 
HETATM   13  C   UNL     1      16.976  49.676  48.172  1.00  0.00     0.032 A 
BRANCH  10  14
HETATM   14  N   UNL     1      15.124  54.772  50.255  1.00  0.00    -0.354 N 
HETATM   15  C   UNL     1      14.352  55.632  49.374  1.00  0.00     0.152 C 
HETATM   16  C   UNL     1      14.752  54.778  51.661  1.00  0.00     0.152 C 
ENDBRANCH  10  14
ENDBRANCH   1   5
BRANCH   2  17
HETATM   17  C   UNL     1      21.083  47.660  48.729  1.00  0.00     0.161 C 
BRANCH  17  18
HETATM   18  C   UNL     1      22.515  48.034  48.815  1.00  0.00     0.035 A 
HETATM   19  N   UNL     1      23.087  49.113  48.149  1.00  0.00    -0.344 N 
HETATM   20  H   UNL     1      22.549  49.743  47.544  1.00  0.00     0.167 HD
HETATM   21  C   UNL     1      24.386  49.203  48.401  1.00  0.00     0.111 A 
HETATM   22  N   UNL     1      24.697  48.201  49.244  1.00  0.00    -0.317 N 
HETATM   23  C   UNL     1      25.413  50.157  47.919  1.00  0.00     0.049 A 
HETATM   24  C   UNL     1      23.558  47.466  49.521  1.00  0.00     0.123 A 
HETATM   25  C   UNL     1      25.979  48.000  49.717  1.00  0.00     0.098 A 
HETATM   26  C   UNL     1      26.933  48.853  49.295  1.00  0.00     0.018 A 
HETATM   27  C   UNL     1      26.663  49.958  48.377  1.00  0.00     0.005 A 
ENDBRANCH  17  18
ENDBRANCH   2  17
TORSDOF 4
ENDMDL
MODEL 9
REMARK VINA RESULT:      -7.5      2.991      9.848
REMARK  4 active torsions:
REMARK  status: ('A' for Active; 'I' for Inactive)
REMARK    1  A    between atoms: N_2  and  C_3 
REMARK    2  A    between atoms: C_9  and  N_10 
REMARK       I    between atoms: N_10  and  C_11 
REMARK    3  A    between atoms: C_11  and  C_12 
REMARK    4  A    between atoms: C_12  and  C_13 
ROOT
HETATM    1  N   UNL     1      24.758  48.193  49.008  1.00  0.00    -0.327 N 
HETATM    2  C   UNL     1      25.277  47.489  50.083  1.00  0.00     0.227 C 
HETATM    3  O   UNL     1      24.844  47.502  51.235  1.00  0.00    -0.273 OA
HETATM    4  H   UNL     1      25.257  48.144  48.125  1.00  0.00     0.169 HD
ENDROOT
BRANCH   1   5
HETATM    5  C   UNL     1      23.599  49.002  48.990  1.00  0.00     0.037 A 
HETATM    6  C   UNL     1      22.302  48.498  49.170  1.00  0.00     0.069 A 
HETATM    7  C   UNL     1      21.267  49.426  49.082  1.00  0.00     0.110 A 
HETATM    8  O   UNL     1      19.931  49.186  49.195  1.00  0.00    -0.276 OA
HETATM    9  C   UNL     1      21.431  50.778  48.846  1.00  0.00     0.095 A 
HETATM   10  C   UNL     1      19.349  50.417  49.008  1.00  0.00     0.249 A 
HETATM   11  N   UNL     1      20.210  51.394  48.809  1.00  0.00    -0.206 NA
HETATM   12  C   UNL     1      22.723  51.282  48.684  1.00  0.00     0.037 A 
HETATM   13  C   UNL     1      23.797  50.377  48.753  1.00  0.00     0.032 A 
BRANCH  10  14
HETATM   14  N   UNL     1      17.996  50.478  49.024  1.00  0.00    -0.354 N 
HETATM   15  C   UNL     1      17.353  51.519  49.808  1.00  0.00     0.152 C 
HETATM   16  C   UNL     1      17.314  50.064  47.808  1.00  0.00     0.152 C 
ENDBRANCH  10  14
ENDBRANCH   1   5
BRANCH   2  17
HETATM   17  C   UNL     1      26.482  46.647  49.699  1.00  0.00     0.161 C 
BRANCH  17  18
HETATM   18  C   UNL     1      26.764  45.550  50.656  1.00  0.00     0.035 A 
HETATM   19  N   UNL     1      26.647  45.663  52.038  1.00  0.00    -0.344 N 
HETATM   20  H   UNL     1      26.347  46.527  52.503  1.00  0.00     0.167 HD
HETATM   21  C   UNL     1      26.972  44.530  52.644  1.00  0.00     0.111 A 
HETATM   22  N   UNL     1      27.295  43.644  51.683  1.00  0.00    -0.317 N 
HETATM   23  C   UNL     1      27.021  44.166  54.080  1.00  0.00     0.049 A 
HETATM   24  C   UNL     1      27.170  44.247  50.445  1.00  0.00     0.123 A 
HETATM   25  C   UNL     1      27.684  42.349  51.968  1.00  0.00     0.098 A 
HETATM   26  C   UNL     1      27.737  41.992  53.266  1.00  0.00     0.018 A 
HETATM   27  C   UNL     1      27.404  42.906  54.357  1.00  0.00     0.005 A 
ENDBRANCH  17  18
ENDBRANCH   2  17
TORSDOF 4
ENDMDL
MODEL 10
REMARK VINA RESULT:      -7.5      5.905      9.940
REMARK  4 active torsions:
REMARK  status: ('A' for Active; 'I' for Inactive)
REMARK    1  A    between atoms: N_2  and  C_3 
REMARK    2  A    between atoms: C_9  and  N_10 
REMARK       I    between atoms: N_10  and  C_11 
REMARK    3  A    between atoms: C_11  and  C_12 
REMARK    4  A    between atoms: C_12  and  C_13 
ROOT
HETATM    1  N   UNL     1      25.821  42.344  51.444  1.00  0.00    -0.327 N 
HETATM    2  C   UNL     1      26.501  43.549  51.495  1.00  0.00     0.227 C 
HETATM    3  O   UNL     1      27.306  43.964  50.661  1.00  0.00    -0.273 OA
HETATM    4  H   UNL     1      25.236  42.096  52.236  1.00  0.00     0.169 HD
ENDROOT
BRANCH   1   5
HETATM    5  C   UNL     1      25.850  41.384  50.405  1.00  0.00     0.037 A 
HETATM    6  C   UNL     1      26.682  40.255  50.421  1.00  0.00     0.069 A 
HETATM    7  C   UNL     1      26.617  39.432  49.299  1.00  0.00     0.110 A 
HETATM    8  O   UNL     1      27.337  38.299  49.064  1.00  0.00    -0.276 OA
HETATM    9  C   UNL     1      25.800  39.644  48.206  1.00  0.00     0.095 A 
HETATM   10  C   UNL     1      26.921  37.886  47.821  1.00  0.00     0.249 A 
HETATM   11  N   UNL     1      25.996  38.655  47.281  1.00  0.00    -0.206 NA
HETATM   12  C   UNL     1      24.959  40.759  48.199  1.00  0.00     0.037 A 
HETATM   13  C   UNL     1      25.002  41.623  49.307  1.00  0.00     0.032 A 
BRANCH  10  14
HETATM   14  N   UNL     1      27.508  36.784  47.298  1.00  0.00    -0.354 N 
HETATM   15  C   UNL     1      26.684  35.621  47.013  1.00  0.00     0.152 C 
HETATM   16  C   UNL     1      28.642  37.010  46.416  1.00  0.00     0.152 C 
ENDBRANCH  10  14
ENDBRANCH   1   5
BRANCH   2  17
HETATM   17  C   UNL     1      26.144  44.367  52.725  1.00  0.00     0.161 C 
BRANCH  17  18
HETATM   18  C   UNL     1      27.269  44.518  53.679  1.00  0.00     0.035 A 
HETATM   19  N   UNL     1      28.349  43.645  53.766  1.00  0.00    -0.344 N 
HETATM   20  H   UNL     1      28.450  42.821  53.163  1.00  0.00     0.167 HD
HETATM   21  C   UNL     1      29.197  44.019  54.714  1.00  0.00     0.111 A 
HETATM   22  N   UNL     1      28.709  45.148  55.261  1.00  0.00    -0.317 N 
HETATM   23  C   UNL     1      30.464  43.414  55.189  1.00  0.00     0.049 A 
HETATM   24  C   UNL     1      27.520  45.482  54.637  1.00  0.00     0.123 A 
HETATM   25  C   UNL     1      29.352  45.814  56.287  1.00  0.00     0.098 A 
HETATM   26  C   UNL     1      30.505  45.286  56.738  1.00  0.00     0.018 A 
HETATM   27  C   UNL     1      31.088  44.062  56.191  1.00  0.00     0.005 A 
ENDBRANCH  17  18
ENDBRANCH   2  17
TORSDOF 4
ENDMDL
