MODEL 1
REMARK VINA RESULT:      -9.1      0.000      0.000
REMARK  3 active torsions:
REMARK  status: ('A' for Active; 'I' for Inactive)
REMARK    1  A    between atoms: C_6  and  N_7 
REMARK       I    between atoms: N_7  and  C_8 
REMARK    2  A    between atoms: C_8  and  C_9 
REMARK    3  A    between atoms: C_9  and  C_10 
ROOT
HETATM    1  C   UNL     1      26.450  46.361  54.092  1.00  0.00     0.286 C 
HETATM    2  N   UNL     1      27.457  45.428  53.420  1.00  0.00    -0.056 N 
HETATM    3  H   UNL     1      26.902  44.750  52.857  1.00  0.00     0.278 HD
HETATM    4  H   UNL     1      28.041  45.948  52.753  1.00  0.00     0.278 HD
HETATM    5  C   UNL     1      28.287  44.724  54.449  1.00  0.00     0.209 C 
HETATM    6  C   UNL     1      29.072  45.790  55.248  1.00  0.00     0.115 C 
HETATM    7  N   UNL     1      28.204  46.837  55.784  1.00  0.00    -0.353 N 
HETATM    8  C   UNL     1      27.135  47.340  55.069  1.00  0.00     0.249 C 
HETATM    9  O   UNL     1      26.725  48.473  55.282  1.00  0.00    -0.271 OA
HETATM   10  C   UNL     1      29.231  43.729  53.788  1.00  0.00     0.035 C 
HETATM   11  C   UNL     1      30.092  43.046  54.854  1.00  0.00     0.002 C 
HETATM   12  C   UNL     1      30.829  44.051  55.741  1.00  0.00     0.002 C 
HETATM   13  C   UNL     1      29.897  45.109  56.340  1.00  0.00     0.027 C 
HETATM   14  H   UNL     1      28.626  47.537  56.392  1.00  0.00     0.163 HD
ENDROOT
BRANCH   1  15
HETATM   15  C   UNL     1      25.590  47.090  53.053  1.00  0.00     0.146 C 
BRANCH  15  16
HETATM   16  C   UNL     1      25.084  46.102  52.034  1.00  0.00     0.224 C 
HETATM   17  N   UNL     1      24.950  46.411  50.719  1.00  0.00    -0.327 N 
HETATM   18  H   UNL     1      24.457  45.685  50.207  1.00  0.00     0.169 HD
HETATM   19  O   UNL     1      24.763  44.969  52.420  1.00  0.00    -0.273 OA
BRANCH  17  20
HETATM   20  C   UNL     1      25.323  47.531  49.950  1.00  0.00     0.036 A 
HETATM   21  C   UNL     1      24.435  48.430  49.359  1.00  0.00     0.053 A 
HETATM   22  C   UNL     1      24.921  49.510  48.615  1.00  0.00     0.036 A 
HETATM   23  C   UNL     1      26.289  49.715  48.458  1.00  0.00     0.024 A 
HETATM   24 CL   UNL     1      23.808  50.610  47.896  1.00  0.00    -0.084 Cl
HETATM   25  C   UNL     1      27.182  48.839  49.066  1.00  0.00     0.004 A 
HETATM   26  C   UNL     1      26.701  47.762  49.816  1.00  0.00     0.029 A 
ENDBRANCH  17  20
ENDBRANCH  15  16
ENDBRANCH   1  15
TORSDOF 3
ENDMDL
MODEL 2
REMARK VINA RESULT:      -8.5      1.445      1.897
REMARK  3 active torsions:
REMARK  status: ('A' for Active; 'I' for Inactive)
REMARK    1  A    between atoms: C_6  and  N_7 
REMARK       I    between atoms: N_7  and  C_8 
REMARK    2  A    between atoms: C_8  and  C_9 
REMARK    3  A    between atoms: C_9  and  C_10 
ROOT
HETATM    1  C   UNL     1      27.190  44.890  53.326  1.00  0.00     0.286 C 
HETATM    2  N   UNL     1      28.550  44.192  53.336  1.00  0.00    -0.056 N 
HETATM    3  H   UNL     1      28.405  43.257  52.901  1.00  0.00     0.278 HD
HETATM    4  H   UNL     1      29.216  44.691  52.734  1.00  0.00     0.278 HD
HETATM    5  C   UNL     1      29.064  44.064  54.738  1.00  0.00     0.209 C 
HETATM    6  C   UNL     1      29.244  45.486  55.318  1.00  0.00     0.115 C 
HETATM    7  N   UNL     1      28.036  46.299  55.188  1.00  0.00    -0.353 N 
HETATM    8  C   UNL     1      27.232  46.244  54.066  1.00  0.00     0.249 C 
HETATM    9  O   UNL     1      26.541  47.204  53.752  1.00  0.00    -0.271 OA
HETATM   10  C   UNL     1      30.376  43.292  54.760  1.00  0.00     0.035 C 
HETATM   11  C   UNL     1      30.898  43.202  56.196  1.00  0.00     0.002 C 
HETATM   12  C   UNL     1      31.015  44.574  56.861  1.00  0.00     0.002 C 
HETATM   13  C   UNL     1      29.723  45.392  56.766  1.00  0.00     0.027 C 
HETATM   14  H   UNL     1      28.039  47.224  55.616  1.00  0.00     0.163 HD
ENDROOT
BRANCH   1  15
HETATM   15  C   UNL     1      26.648  45.030  51.899  1.00  0.00     0.146 C 
BRANCH  15  16
HETATM   16  C   UNL     1      25.145  45.130  51.937  1.00  0.00     0.224 C 
HETATM   17  N   UNL     1      24.464  46.140  51.339  1.00  0.00    -0.327 N 
HETATM   18  H   UNL     1      23.479  46.134  51.592  1.00  0.00     0.169 HD
HETATM   19  O   UNL     1      24.512  44.261  52.554  1.00  0.00    -0.273 OA
BRANCH  17  20
HETATM   20  C   UNL     1      24.851  47.190  50.484  1.00  0.00     0.036 A 
HETATM   21  C   UNL     1      26.162  47.622  50.288  1.00  0.00     0.053 A 
HETATM   22  C   UNL     1      26.430  48.678  49.409  1.00  0.00     0.036 A 
HETATM   23  C   UNL     1      25.403  49.306  48.710  1.00  0.00     0.024 A 
HETATM   24 CL   UNL     1      28.056  49.196  49.180  1.00  0.00    -0.084 Cl
HETATM   25  C   UNL     1      24.095  48.864  48.879  1.00  0.00     0.004 A 
HETATM   26  C   UNL     1      23.824  47.805  49.750  1.00  0.00     0.029 A 
ENDBRANCH  17  20
ENDBRANCH  15  16
ENDBRANCH   1  15
TORSDOF 3
ENDMDL
MODEL 3
REMARK VINA RESULT:      -8.4      2.080      3.320
REMARK  3 active torsions:
REMARK  status: ('A' for Active; 'I' for Inactive)
REMARK    1  A    between atoms: C_6  and  N_7 
REMARK       I    between atoms: N_7  and  C_8 
REMARK    2  A    between atoms: C_8  and  C_9 
REMARK    3  A    between atoms: C_9  and  C_10 
ROOT
HETATM    1  C   UNL     1      26.890  44.200  50.648  1.00  0.00     0.286 C 
HETATM    2  N   UNL     1      26.862  44.604  52.122  1.00  0.00    -0.056 N 
HETATM    3  H   UNL     1      26.698  45.632  52.144  1.00  0.00     0.278 HD
HETATM    4  H   UNL     1      26.061  44.173  52.599  1.00  0.00     0.278 HD
HETATM    5  C   UNL     1      28.157  44.249  52.788  1.00  0.00     0.209 C 
HETATM    6  C   UNL     1      28.335  42.715  52.709  1.00  0.00     0.115 C 
HETATM    7  N   UNL     1      28.197  42.207  51.345  1.00  0.00    -0.353 N 
HETATM    8  C   UNL     1      27.260  42.713  50.466  1.00  0.00     0.249 C 
HETATM    9  O   UNL     1      26.830  42.021  49.552  1.00  0.00    -0.271 OA
HETATM   10  C   UNL     1      28.165  44.728  54.233  1.00  0.00     0.035 C 
HETATM   11  C   UNL     1      29.482  44.325  54.903  1.00  0.00     0.002 C 
HETATM   12  C   UNL     1      29.764  42.827  54.782  1.00  0.00     0.002 C 
HETATM   13  C   UNL     1      29.670  42.320  53.339  1.00  0.00     0.027 C 
HETATM   14  H   UNL     1      28.379  41.217  51.188  1.00  0.00     0.163 HD
ENDROOT
BRANCH   1  15
HETATM   15  C   UNL     1      25.574  44.558  49.950  1.00  0.00     0.146 C 
BRANCH  15  16
HETATM   16  C   UNL     1      24.656  45.250  50.924  1.00  0.00     0.224 C 
HETATM   17  N   UNL     1      24.481  46.596  50.934  1.00  0.00    -0.327 N 
HETATM   18  H   UNL     1      23.952  46.903  51.746  1.00  0.00     0.169 HD
HETATM   19  O   UNL     1      24.052  44.560  51.758  1.00  0.00    -0.273 OA
BRANCH  17  20
HETATM   20  C   UNL     1      24.907  47.630  50.078  1.00  0.00     0.036 A 
HETATM   21  C   UNL     1      24.063  48.467  49.349  1.00  0.00     0.053 A 
HETATM   22  C   UNL     1      24.600  49.464  48.528  1.00  0.00     0.036 A 
HETATM   23  C   UNL     1      25.976  49.647  48.430  1.00  0.00     0.024 A 
HETATM   24 CL   UNL     1      23.540  50.489  47.638  1.00  0.00    -0.084 Cl
HETATM   25  C   UNL     1      26.826  48.834  49.173  1.00  0.00     0.004 A 
HETATM   26  C   UNL     1      26.293  47.841  50.000  1.00  0.00     0.029 A 
ENDBRANCH  17  20
ENDBRANCH  15  16
ENDBRANCH   1  15
TORSDOF 3
ENDMDL
MODEL 4
REMARK VINA RESULT:      -8.4      2.115      3.336
REMARK  3 active torsions:
REMARK  status: ('A' for Active; 'I' for Inactive)
REMARK    1  A    between atoms: C_6  and  N_7 
REMARK       I    between atoms: N_7  and  C_8 
REMARK    2  A    between atoms: C_8  and  C_9 
REMARK    3  A    between atoms: C_9  and  C_10 
ROOT
HETATM    1  C   UNL     1      27.299  44.157  51.437  1.00  0.00     0.286 C 
HETATM    2  N   UNL     1      27.216  44.598  52.899  1.00  0.00    -0.056 N 
HETATM    3  H   UNL     1      26.877  45.582  52.891  1.00  0.00     0.278 HD
HETATM    4  H   UNL     1      26.505  44.051  53.400  1.00  0.00     0.278 HD
HETATM    5  C   UNL     1      28.559  44.492  53.555  1.00  0.00     0.209 C 
HETATM    6  C   UNL     1      28.998  43.010  53.519  1.00  0.00     0.115 C 
HETATM    7  N   UNL     1      28.936  42.441  52.174  1.00  0.00    -0.353 N 
HETATM    8  C   UNL     1      27.918  42.750  51.294  1.00  0.00     0.249 C 
HETATM    9  O   UNL     1      27.604  41.966  50.409  1.00  0.00    -0.271 OA
HETATM   10  C   UNL     1      28.499  45.012  54.985  1.00  0.00     0.035 C 
HETATM   11  C   UNL     1      29.871  44.863  55.647  1.00  0.00     0.002 C 
HETATM   12  C   UNL     1      30.406  43.432  55.566  1.00  0.00     0.002 C 
HETATM   13  C   UNL     1      30.387  42.871  54.141  1.00  0.00     0.027 C 
HETATM   14  H   UNL     1      29.284  41.493  52.044  1.00  0.00     0.163 HD
ENDROOT
BRANCH   1  15
HETATM   15  C   UNL     1      25.934  44.260  50.748  1.00  0.00     0.146 C 
BRANCH  15  16
HETATM   16  C   UNL     1      24.954  44.945  51.666  1.00  0.00     0.224 C 
HETATM   17  N   UNL     1      24.665  46.268  51.573  1.00  0.00    -0.327 N 
HETATM   18  H   UNL     1      24.107  46.589  52.360  1.00  0.00     0.169 HD
HETATM   19  O   UNL     1      24.406  44.271  52.550  1.00  0.00    -0.273 OA
BRANCH  17  20
HETATM   20  C   UNL     1      25.008  47.265  50.640  1.00  0.00     0.036 A 
HETATM   21  C   UNL     1      26.302  47.724  50.394  1.00  0.00     0.053 A 
HETATM   22  C   UNL     1      26.524  48.722  49.440  1.00  0.00     0.036 A 
HETATM   23  C   UNL     1      25.468  49.267  48.714  1.00  0.00     0.024 A 
HETATM   24 CL   UNL     1      28.129  49.272  49.150  1.00  0.00    -0.084 Cl
HETATM   25  C   UNL     1      24.177  48.797  48.933  1.00  0.00     0.004 A 
HETATM   26  C   UNL     1      23.952  47.795  49.881  1.00  0.00     0.029 A 
ENDBRANCH  17  20
ENDBRANCH  15  16
ENDBRANCH   1  15
TORSDOF 3
ENDMDL
MODEL 5
REMARK VINA RESULT:      -8.1      3.689      4.915
REMARK  3 active torsions:
REMARK  status: ('A' for Active; 'I' for Inactive)
REMARK    1  A    between atoms: C_6  and  N_7 
REMARK       I    between atoms: N_7  and  C_8 
REMARK    2  A    between atoms: C_8  and  C_9 
REMARK    3  A    between atoms: C_9  and  C_10 
ROOT
HETATM    1  C   UNL     1      27.166  44.684  53.392  1.00  0.00     0.286 C 
HETATM    2  N   UNL     1      28.562  44.061  53.387  1.00  0.00    -0.056 N 
HETATM    3  H   UNL     1      28.458  43.107  52.984  1.00  0.00     0.278 HD
HETATM    4  H   UNL     1      29.184  44.577  52.753  1.00  0.00     0.278 HD
HETATM    5  C   UNL     1      29.115  44.003  54.778  1.00  0.00     0.209 C 
HETATM    6  C   UNL     1      29.231  45.449  55.312  1.00  0.00     0.115 C 
HETATM    7  N   UNL     1      27.979  46.192  55.191  1.00  0.00    -0.353 N 
HETATM    8  C   UNL     1      27.152  46.060  54.092  1.00  0.00     0.249 C 
HETATM    9  O   UNL     1      26.401  46.971  53.768  1.00  0.00    -0.271 OA
HETATM   10  C   UNL     1      30.468  43.304  54.788  1.00  0.00     0.035 C 
HETATM   11  C   UNL     1      31.029  43.285  56.213  1.00  0.00     0.002 C 
HETATM   12  C   UNL     1      31.087  44.682  56.835  1.00  0.00     0.002 C 
HETATM   13  C   UNL     1      29.751  45.426  56.749  1.00  0.00     0.027 C 
HETATM   14  H   UNL     1      27.942  47.128  55.592  1.00  0.00     0.163 HD
ENDROOT
BRANCH   1  15
HETATM   15  C   UNL     1      26.582  44.751  51.977  1.00  0.00     0.146 C 
BRANCH  15  16
HETATM   16  C   UNL     1      25.351  43.886  51.897  1.00  0.00     0.224 C 
HETATM   17  N   UNL     1      25.324  42.712  51.216  1.00  0.00    -0.327 N 
HETATM   18  H   UNL     1      24.381  42.340  51.140  1.00  0.00     0.169 HD
HETATM   19  O   UNL     1      24.320  44.275  52.464  1.00  0.00    -0.273 OA
BRANCH  17  20
HETATM   20  C   UNL     1      26.318  41.944  50.580  1.00  0.00     0.036 A 
HETATM   21  C   UNL     1      26.539  41.898  49.204  1.00  0.00     0.053 A 
HETATM   22  C   UNL     1      27.561  41.097  48.683  1.00  0.00     0.036 A 
HETATM   23  C   UNL     1      28.378  40.343  49.520  1.00  0.00     0.024 A 
HETATM   24 CL   UNL     1      27.818  41.056  46.981  1.00  0.00    -0.084 Cl
HETATM   25  C   UNL     1      28.183  40.404  50.896  1.00  0.00     0.004 A 
HETATM   26  C   UNL     1      27.168  41.207  51.421  1.00  0.00     0.029 A 
ENDBRANCH  17  20
ENDBRANCH  15  16
ENDBRANCH   1  15
TORSDOF 3
ENDMDL
MODEL 6
REMARK VINA RESULT:      -7.9      1.901      2.320
REMARK  3 active torsions:
REMARK  status: ('A' for Active; 'I' for Inactive)
REMARK    1  A    between atoms: C_6  and  N_7 
REMARK       I    between atoms: N_7  and  C_8 
REMARK    2  A    between atoms: C_8  and  C_9 
REMARK    3  A    between atoms: C_9  and  C_10 
ROOT
HETATM    1  C   UNL     1      26.382  43.910  53.192  1.00  0.00     0.286 C 
HETATM    2  N   UNL     1      27.795  43.332  53.119  1.00  0.00    -0.056 N 
HETATM    3  H   UNL     1      27.687  42.308  52.962  1.00  0.00     0.278 HD
HETATM    4  H   UNL     1      28.293  43.699  52.299  1.00  0.00     0.278 HD
HETATM    5  C   UNL     1      28.542  43.609  54.388  1.00  0.00     0.209 C 
HETATM    6  C   UNL     1      28.654  45.142  54.557  1.00  0.00     0.115 C 
HETATM    7  N   UNL     1      27.358  45.810  54.460  1.00  0.00    -0.353 N 
HETATM    8  C   UNL     1      26.392  45.410  53.556  1.00  0.00     0.249 C 
HETATM    9  O   UNL     1      25.555  46.206  53.151  1.00  0.00    -0.271 OA
HETATM   10  C   UNL     1      29.919  42.960  54.353  1.00  0.00     0.035 C 
HETATM   11  C   UNL     1      30.676  43.283  55.643  1.00  0.00     0.002 C 
HETATM   12  C   UNL     1      30.745  44.787  55.917  1.00  0.00     0.002 C 
HETATM   13  C   UNL     1      29.372  45.463  55.867  1.00  0.00     0.027 C 
HETATM   14  H   UNL     1      27.327  46.813  54.639  1.00  0.00     0.163 HD
ENDROOT
BRANCH   1  15
HETATM   15  C   UNL     1      25.602  43.635  51.903  1.00  0.00     0.146 C 
BRANCH  15  16
HETATM   16  C   UNL     1      26.557  43.566  50.739  1.00  0.00     0.224 C 
HETATM   17  N   UNL     1      26.622  44.532  49.787  1.00  0.00    -0.327 N 
HETATM   18  H   UNL     1      27.206  44.253  49.004  1.00  0.00     0.169 HD
HETATM   19  O   UNL     1      27.300  42.579  50.644  1.00  0.00    -0.273 OA
BRANCH  17  20
HETATM   20  C   UNL     1      26.025  45.801  49.660  1.00  0.00     0.036 A 
HETATM   21  C   UNL     1      24.662  46.032  49.477  1.00  0.00     0.053 A 
HETATM   22  C   UNL     1      24.179  47.340  49.365  1.00  0.00     0.036 A 
HETATM   23  C   UNL     1      25.041  48.430  49.442  1.00  0.00     0.024 A 
HETATM   24 CL   UNL     1      22.493  47.603  49.141  1.00  0.00    -0.084 Cl
HETATM   25  C   UNL     1      26.399  48.211  49.652  1.00  0.00     0.004 A 
HETATM   26  C   UNL     1      26.884  46.906  49.771  1.00  0.00     0.029 A 
ENDBRANCH  17  20
ENDBRANCH  15  16
ENDBRANCH   1  15
TORSDOF 3
ENDMDL
MODEL 7
REMARK VINA RESULT:      -7.9      3.535      8.040
REMARK  3 active torsions:
REMARK  status: ('A' for Active; 'I' for Inactive)
REMARK    1  A    between atoms: C_6  and  N_7 
REMARK       I    between atoms: N_7  and  C_8 
REMARK    2  A    between atoms: C_8  and  C_9 
REMARK    3  A    between atoms: C_9  and  C_10 
ROOT
HETATM    1  C   UNL     1      24.930  47.244  49.622  1.00  0.00     0.286 C 
HETATM    2  N   UNL     1      23.472  47.552  49.959  1.00  0.00    -0.056 N 
HETATM    3  H   UNL     1      22.985  46.634  50.033  1.00  0.00     0.278 HD
HETATM    4  H   UNL     1      23.400  47.992  50.884  1.00  0.00     0.278 HD
HETATM    5  C   UNL     1      22.856  48.406  48.892  1.00  0.00     0.209 C 
HETATM    6  C   UNL     1      23.633  49.741  48.835  1.00  0.00     0.115 C 
HETATM    7  N   UNL     1      25.074  49.543  48.694  1.00  0.00    -0.353 N 
HETATM    8  C   UNL     1      25.742  48.528  49.351  1.00  0.00     0.249 C 
HETATM    9  O   UNL     1      26.932  48.639  49.614  1.00  0.00    -0.271 OA
HETATM   10  C   UNL     1      21.380  48.642  49.180  1.00  0.00     0.035 C 
HETATM   11  C   UNL     1      20.780  49.542  48.097  1.00  0.00     0.002 C 
HETATM   12  C   UNL     1      21.559  50.848  47.927  1.00  0.00     0.002 C 
HETATM   13  C   UNL     1      23.060  50.621  47.724  1.00  0.00     0.027 C 
HETATM   14  H   UNL     1      25.656  50.370  48.567  1.00  0.00     0.163 HD
ENDROOT
BRANCH   1  15
HETATM   15  C   UNL     1      25.577  46.369  50.702  1.00  0.00     0.146 C 
BRANCH  15  16
HETATM   16  C   UNL     1      24.964  44.993  50.671  1.00  0.00     0.224 C 
HETATM   17  N   UNL     1      25.450  43.959  51.403  1.00  0.00    -0.327 N 
HETATM   18  H   UNL     1      25.016  43.076  51.147  1.00  0.00     0.169 HD
HETATM   19  O   UNL     1      23.987  44.799  49.934  1.00  0.00    -0.273 OA
BRANCH  17  20
HETATM   20  C   UNL     1      26.440  43.866  52.401  1.00  0.00     0.036 A 
HETATM   21  C   UNL     1      27.762  43.476  52.186  1.00  0.00     0.053 A 
HETATM   22  C   UNL     1      28.661  43.421  53.256  1.00  0.00     0.036 A 
HETATM   23  C   UNL     1      28.262  43.762  54.545  1.00  0.00     0.024 A 
HETATM   24 CL   UNL     1      30.289  42.938  52.969  1.00  0.00    -0.084 Cl
HETATM   25  C   UNL     1      26.953  44.179  54.765  1.00  0.00     0.004 A 
HETATM   26  C   UNL     1      26.054  44.241  53.697  1.00  0.00     0.029 A 
ENDBRANCH  17  20
ENDBRANCH  15  16
ENDBRANCH   1  15
TORSDOF 3
ENDMDL
MODEL 8
REMARK VINA RESULT:      -7.9      2.643      3.866
REMARK  3 active torsions:
REMARK  status: ('A' for Active; 'I' for Inactive)
REMARK    1  A    between atoms: C_6  and  N_7 
REMARK       I    between atoms: N_7  and  C_8 
REMARK    2  A    between atoms: C_8  and  C_9 
REMARK    3  A    between atoms: C_9  and  C_10 
ROOT
HETATM    1  C   UNL     1      28.923  44.211  53.559  1.00  0.00     0.286 C 
HETATM    2  N   UNL     1      28.482  44.866  54.868  1.00  0.00    -0.056 N 
HETATM    3  H   UNL     1      28.012  45.757  54.607  1.00  0.00     0.278 HD
HETATM    4  H   UNL     1      27.773  44.290  55.338  1.00  0.00     0.278 HD
HETATM    5  C   UNL     1      29.665  45.116  55.754  1.00  0.00     0.209 C 
HETATM    6  C   UNL     1      30.314  43.754  56.088  1.00  0.00     0.115 C 
HETATM    7  N   UNL     1      30.610  42.968  54.892  1.00  0.00    -0.353 N 
HETATM    8  C   UNL     1      29.758  42.936  53.806  1.00  0.00     0.249 C 
HETATM    9  O   UNL     1      29.749  41.971  53.053  1.00  0.00    -0.271 OA
HETATM   10  C   UNL     1      29.240  45.848  57.020  1.00  0.00     0.035 C 
HETATM   11  C   UNL     1      30.457  46.063  57.924  1.00  0.00     0.002 C 
HETATM   12  C   UNL     1      31.200  44.760  58.222  1.00  0.00     0.002 C 
HETATM   13  C   UNL     1      31.553  43.975  56.955  1.00  0.00     0.027 C 
HETATM   14  H   UNL     1      31.113  42.090  55.015  1.00  0.00     0.163 HD
ENDROOT
BRANCH   1  15
HETATM   15  C   UNL     1      27.727  43.948  52.639  1.00  0.00     0.146 C 
BRANCH  15  16
HETATM   16  C   UNL     1      26.462  43.893  53.457  1.00  0.00     0.224 C 
HETATM   17  N   UNL     1      25.325  44.536  53.091  1.00  0.00    -0.327 N 
HETATM   18  H   UNL     1      24.625  44.516  53.828  1.00  0.00     0.169 HD
HETATM   19  O   UNL     1      26.472  43.245  54.514  1.00  0.00    -0.273 OA
BRANCH  17  20
HETATM   20  C   UNL     1      24.946  45.238  51.930  1.00  0.00     0.036 A 
HETATM   21  C   UNL     1      24.262  44.687  50.847  1.00  0.00     0.053 A 
HETATM   22  C   UNL     1      23.935  45.483  49.744  1.00  0.00     0.036 A 
HETATM   23  C   UNL     1      24.275  46.832  49.708  1.00  0.00     0.024 A 
HETATM   24 CL   UNL     1      23.088  44.784  48.418  1.00  0.00    -0.084 Cl
HETATM   25  C   UNL     1      24.933  47.397  50.796  1.00  0.00     0.004 A 
HETATM   26  C   UNL     1      25.255  46.607  51.903  1.00  0.00     0.029 A 
ENDBRANCH  17  20
ENDBRANCH  15  16
ENDBRANCH   1  15
TORSDOF 3
ENDMDL
MODEL 9
REMARK VINA RESULT:      -7.9      4.765      8.926
REMARK  3 active torsions:
REMARK  status: ('A' for Active; 'I' for Inactive)
REMARK    1  A    between atoms: C_6  and  N_7 
REMARK       I    between atoms: N_7  and  C_8 
REMARK    2  A    between atoms: C_8  and  C_9 
REMARK    3  A    between atoms: C_9  and  C_10 
ROOT
HETATM    1  C   UNL     1      22.162  48.445  48.408  1.00  0.00     0.286 C 
HETATM    2  N   UNL     1      21.206  48.628  49.587  1.00  0.00    -0.056 N 
HETATM    3  H   UNL     1      20.806  47.688  49.791  1.00  0.00     0.278 HD
HETATM    4  H   UNL     1      21.722  48.912  50.429  1.00  0.00     0.278 HD
HETATM    5  C   UNL     1      20.129  49.611  49.242  1.00  0.00     0.209 C 
HETATM    6  C   UNL     1      20.797  50.973  48.944  1.00  0.00     0.115 C 
HETATM    7  N   UNL     1      21.861  50.867  47.948  1.00  0.00    -0.353 N 
HETATM    8  C   UNL     1      22.729  49.793  47.913  1.00  0.00     0.249 C 
HETATM    9  O   UNL     1      23.848  49.915  47.433  1.00  0.00    -0.271 OA
HETATM   10  C   UNL     1      19.126  49.729  50.381  1.00  0.00     0.035 C 
HETATM   11  C   UNL     1      18.055  50.762  50.021  1.00  0.00     0.002 C 
HETATM   12  C   UNL     1      18.656  52.113  49.627  1.00  0.00     0.002 C 
HETATM   13  C   UNL     1      19.730  51.991  48.542  1.00  0.00     0.027 C 
HETATM   14  H   UNL     1      22.302  51.730  47.631  1.00  0.00     0.163 HD
ENDROOT
BRANCH   1  15
HETATM   15  C   UNL     1      23.271  47.441  48.743  1.00  0.00     0.146 C 
BRANCH  15  16
HETATM   16  C   UNL     1      22.696  46.049  48.782  1.00  0.00     0.224 C 
HETATM   17  N   UNL     1      23.337  45.009  49.373  1.00  0.00    -0.327 N 
HETATM   18  H   UNL     1      22.882  44.121  49.174  1.00  0.00     0.169 HD
HETATM   19  O   UNL     1      21.600  45.848  48.238  1.00  0.00    -0.273 OA
BRANCH  17  20
HETATM   20  C   UNL     1      24.501  44.916  50.160  1.00  0.00     0.036 A 
HETATM   21  C   UNL     1      24.524  44.815  51.550  1.00  0.00     0.053 A 
HETATM   22  C   UNL     1      25.744  44.727  52.229  1.00  0.00     0.036 A 
HETATM   23  C   UNL     1      26.951  44.729  51.535  1.00  0.00     0.024 A 
HETATM   24 CL   UNL     1      25.750  44.601  53.946  1.00  0.00    -0.084 Cl
HETATM   25  C   UNL     1      26.938  44.802  50.146  1.00  0.00     0.004 A 
HETATM   26  C   UNL     1      25.721  44.884  49.464  1.00  0.00     0.029 A 
ENDBRANCH  17  20
ENDBRANCH  15  16
ENDBRANCH   1  15
TORSDOF 3
ENDMDL
MODEL 10
REMARK VINA RESULT:      -7.9      2.916      7.504
REMARK  3 active torsions:
REMARK  status: ('A' for Active; 'I' for Inactive)
REMARK    1  A    between atoms: C_6  and  N_7 
REMARK       I    between atoms: N_7  and  C_8 
REMARK    2  A    between atoms: C_8  and  C_9 
REMARK    3  A    between atoms: C_9  and  C_10 
ROOT
HETATM    1  C   UNL     1      25.626  47.321  49.422  1.00  0.00     0.286 C 
HETATM    2  N   UNL     1      24.207  47.622  49.904  1.00  0.00    -0.056 N 
HETATM    3  H   UNL     1      23.725  46.703  49.996  1.00  0.00     0.278 HD
HETATM    4  H   UNL     1      24.226  48.035  50.845  1.00  0.00     0.278 HD
HETATM    5  C   UNL     1      23.497  48.509  48.927  1.00  0.00     0.209 C 
HETATM    6  C   UNL     1      24.272  49.844  48.836  1.00  0.00     0.115 C 
HETATM    7  N   UNL     1      25.692  49.647  48.553  1.00  0.00    -0.353 N 
HETATM    8  C   UNL     1      26.415  48.612  49.113  1.00  0.00     0.249 C 
HETATM    9  O   UNL     1      27.625  48.711  49.266  1.00  0.00    -0.271 OA
HETATM   10  C   UNL     1      22.056  48.739  49.360  1.00  0.00     0.035 C 
HETATM   11  C   UNL     1      21.361  49.674  48.367  1.00  0.00     0.002 C 
HETATM   12  C   UNL     1      22.127  50.982  48.162  1.00  0.00     0.002 C 
HETATM   13  C   UNL     1      23.601  50.758  47.811  1.00  0.00     0.027 C 
HETATM   14  H   UNL     1      26.264  50.476  48.397  1.00  0.00     0.163 HD
ENDROOT
BRANCH   1  15
HETATM   15  C   UNL     1      26.367  46.413  50.408  1.00  0.00     0.146 C 
BRANCH  15  16
HETATM   16  C   UNL     1      25.374  45.559  51.153  1.00  0.00     0.224 C 
HETATM   17  N   UNL     1      25.428  45.376  52.497  1.00  0.00    -0.327 N 
HETATM   18  H   UNL     1      24.781  44.656  52.808  1.00  0.00     0.169 HD
HETATM   19  O   UNL     1      24.483  44.990  50.505  1.00  0.00    -0.273 OA
BRANCH  17  20
HETATM   20  C   UNL     1      26.211  45.951  53.517  1.00  0.00     0.036 A 
HETATM   21  C   UNL     1      25.910  47.135  54.189  1.00  0.00     0.053 A 
HETATM   22  C   UNL     1      26.763  47.612  55.189  1.00  0.00     0.036 A 
HETATM   23  C   UNL     1      27.917  46.916  55.539  1.00  0.00     0.024 A 
HETATM   24 CL   UNL     1      26.372  49.075  56.008  1.00  0.00    -0.084 Cl
HETATM   25  C   UNL     1      28.211  45.719  54.893  1.00  0.00     0.004 A 
HETATM   26  C   UNL     1      27.358  45.236  53.898  1.00  0.00     0.029 A 
ENDBRANCH  17  20
ENDBRANCH  15  16
ENDBRANCH   1  15
TORSDOF 3
ENDMDL
