MODEL 1
REMARK VINA RESULT:      -8.9      0.000      0.000
REMARK  6 active torsions:
REMARK  status: ('A' for Active; 'I' for Inactive)
REMARK    1  A    between atoms: C_2  and  O_3 
REMARK    2  A    between atoms: O_3  and  C_4 
REMARK    3  A    between atoms: C_4  and  C_5 
REMARK    4  A    between atoms: C_8  and  C_9 
REMARK    5  A    between atoms: C_9  and  N_10 
REMARK    6  A    between atoms: N_10  and  C_11 
ROOT
HETATM    1  N   UNL     1      26.135  46.532  50.843  1.00  0.00    -0.220 N 
HETATM    2  H   UNL     1      26.743  45.885  50.361  1.00  0.00     0.178 HD
ENDROOT
BRANCH   1   3
HETATM    3  C   UNL     1      25.536  46.005  52.052  1.00  0.00     0.176 C 
BRANCH   3   4
HETATM    4  C   UNL     1      26.558  45.989  53.161  1.00  0.00    -0.040 A 
HETATM    5  C   UNL     1      27.277  44.820  53.445  1.00  0.00     0.009 A 
HETATM    6  C   UNL     1      28.238  44.807  54.457  1.00  0.00     0.010 A 
HETATM    7  C   UNL     1      28.491  45.958  55.215  1.00  0.00    -0.035 A 
HETATM    8  C   UNL     1      27.763  47.122  54.942  1.00  0.00     0.010 A 
HETATM    9  C   UNL     1      26.800  47.136  53.929  1.00  0.00     0.009 A 
BRANCH   7  10
HETATM   10  C   UNL     1      29.562  45.947  56.275  1.00  0.00     0.206 C 
BRANCH  10  11
HETATM   11  O   UNL     1      30.436  44.856  56.005  1.00  0.00    -0.382 OA
BRANCH  11  12
HETATM   12  C   UNL     1      31.296  44.523  57.096  1.00  0.00     0.113 C 
HETATM   13  C   UNL     1      31.467  43.011  57.209  1.00  0.00     0.039 C 
HETATM   14  C   UNL     1      30.643  45.074  58.359  1.00  0.00     0.039 C 
ENDBRANCH  11  12
ENDBRANCH  10  11
ENDBRANCH   7  10
ENDBRANCH   3   4
ENDBRANCH   1   3
BRANCH   1  15
HETATM   15  C   UNL     1      25.512  47.495  50.108  1.00  0.00     0.704 A 
HETATM   16  N   UNL     1      24.223  47.601  50.047  1.00  0.00    -0.064 NA
HETATM   17  C   UNL     1      23.664  48.621  49.260  1.00  0.00     0.091 A 
HETATM   18  C   UNL     1      24.444  49.530  48.544  1.00  0.00     0.062 A 
HETATM   19  C   UNL     1      22.274  48.733  49.188  1.00  0.00     0.033 A 
HETATM   20  C   UNL     1      25.903  49.384  48.645  1.00  0.00     0.272 A 
HETATM   21  C   UNL     1      23.863  50.536  47.765  1.00  0.00     0.019 A 
HETATM   22  O   UNL     1      26.677  50.138  48.067  1.00  0.00    -0.267 OA
HETATM   23  N   UNL     1      26.341  48.348  49.431  1.00  0.00    -0.154 N 
HETATM   24  H   UNL     1      27.339  48.264  49.526  1.00  0.00     0.187 HD
HETATM   25  C   UNL     1      22.474  50.634  47.702  1.00  0.00     0.001 A 
HETATM   26  C   UNL     1      21.680  49.734  48.413  1.00  0.00     0.002 A 
ENDBRANCH   1  15
TORSDOF 6
ENDMDL
MODEL 2
REMARK VINA RESULT:      -8.6      2.270      9.290
REMARK  6 active torsions:
REMARK  status: ('A' for Active; 'I' for Inactive)
REMARK    1  A    between atoms: C_2  and  O_3 
REMARK    2  A    between atoms: O_3  and  C_4 
REMARK    3  A    between atoms: C_4  and  C_5 
REMARK    4  A    between atoms: C_8  and  C_9 
REMARK    5  A    between atoms: C_9  and  N_10 
REMARK    6  A    between atoms: N_10  and  C_11 
ROOT
HETATM    1  N   UNL     1      27.954  44.181  52.735  1.00  0.00    -0.220 N 
HETATM    2  H   UNL     1      28.310  44.636  51.906  1.00  0.00     0.178 HD
ENDROOT
BRANCH   1   3
HETATM    3  C   UNL     1      26.548  43.835  52.671  1.00  0.00     0.176 C 
BRANCH   3   4
HETATM    4  C   UNL     1      25.813  44.845  51.825  1.00  0.00    -0.040 A 
HETATM    5  C   UNL     1      24.732  44.448  51.027  1.00  0.00     0.009 A 
HETATM    6  C   UNL     1      24.038  45.383  50.258  1.00  0.00     0.010 A 
HETATM    7  C   UNL     1      24.417  46.732  50.261  1.00  0.00    -0.035 A 
HETATM    8  C   UNL     1      25.507  47.127  51.047  1.00  0.00     0.010 A 
HETATM    9  C   UNL     1      26.203  46.191  51.817  1.00  0.00     0.009 A 
BRANCH   7  10
HETATM   10  C   UNL     1      23.633  47.742  49.464  1.00  0.00     0.206 C 
BRANCH  10  11
HETATM   11  O   UNL     1      24.341  48.977  49.502  1.00  0.00    -0.382 OA
BRANCH  11  12
HETATM   12  C   UNL     1      24.575  49.547  48.213  1.00  0.00     0.113 C 
HETATM   13  C   UNL     1      26.021  50.017  48.083  1.00  0.00     0.039 C 
HETATM   14  C   UNL     1      23.622  50.729  48.071  1.00  0.00     0.039 C 
ENDBRANCH  11  12
ENDBRANCH  10  11
ENDBRANCH   7  10
ENDBRANCH   3   4
ENDBRANCH   1   3
BRANCH   1  15
HETATM   15  C   UNL     1      28.561  44.449  53.924  1.00  0.00     0.704 A 
HETATM   16  N   UNL     1      29.543  43.739  54.381  1.00  0.00    -0.064 NA
HETATM   17  C   UNL     1      30.109  44.082  55.620  1.00  0.00     0.091 A 
HETATM   18  C   UNL     1      29.657  45.164  56.377  1.00  0.00     0.062 A 
HETATM   19  C   UNL     1      31.163  43.314  56.117  1.00  0.00     0.033 A 
HETATM   20  C   UNL     1      28.547  45.952  55.821  1.00  0.00     0.272 A 
HETATM   21  C   UNL     1      30.235  45.485  57.610  1.00  0.00     0.019 A 
HETATM   22  O   UNL     1      28.086  46.929  56.399  1.00  0.00    -0.267 OA
HETATM   23  N   UNL     1      28.064  45.522  54.611  1.00  0.00    -0.154 N 
HETATM   24  H   UNL     1      27.325  46.077  54.215  1.00  0.00     0.187 HD
HETATM   25  C   UNL     1      31.285  44.708  58.094  1.00  0.00     0.001 A 
HETATM   26  C   UNL     1      31.750  43.624  57.349  1.00  0.00     0.002 A 
ENDBRANCH   1  15
TORSDOF 6
ENDMDL
MODEL 3
REMARK VINA RESULT:      -8.5      1.927      2.942
REMARK  6 active torsions:
REMARK  status: ('A' for Active; 'I' for Inactive)
REMARK    1  A    between atoms: C_2  and  O_3 
REMARK    2  A    between atoms: O_3  and  C_4 
REMARK    3  A    between atoms: C_4  and  C_5 
REMARK    4  A    between atoms: C_8  and  C_9 
REMARK    5  A    between atoms: C_9  and  N_10 
REMARK    6  A    between atoms: N_10  and  C_11 
ROOT
HETATM    1  N   UNL     1      24.373  45.182  51.415  1.00  0.00    -0.220 N 
HETATM    2  H   UNL     1      24.031  45.299  52.358  1.00  0.00     0.178 HD
ENDROOT
BRANCH   1   3
HETATM    3  C   UNL     1      25.090  43.944  51.186  1.00  0.00     0.176 C 
BRANCH   3   4
HETATM    4  C   UNL     1      26.304  43.886  52.080  1.00  0.00    -0.040 A 
HETATM    5  C   UNL     1      26.179  44.107  53.458  1.00  0.00     0.009 A 
HETATM    6  C   UNL     1      27.297  44.034  54.291  1.00  0.00     0.010 A 
HETATM    7  C   UNL     1      28.564  43.753  53.762  1.00  0.00    -0.035 A 
HETATM    8  C   UNL     1      28.691  43.547  52.383  1.00  0.00     0.010 A 
HETATM    9  C   UNL     1      27.572  43.619  51.548  1.00  0.00     0.009 A 
BRANCH   7  10
HETATM   10  C   UNL     1      29.756  43.632  54.674  1.00  0.00     0.206 C 
BRANCH  10  11
HETATM   11  O   UNL     1      29.557  44.510  55.777  1.00  0.00    -0.382 OA
BRANCH  11  12
HETATM   12  C   UNL     1      30.758  44.838  56.478  1.00  0.00     0.113 C 
HETATM   13  C   UNL     1      31.468  43.575  56.956  1.00  0.00     0.039 C 
HETATM   14  C   UNL     1      30.354  45.699  57.670  1.00  0.00     0.039 C 
ENDBRANCH  11  12
ENDBRANCH  10  11
ENDBRANCH   7  10
ENDBRANCH   3   4
ENDBRANCH   1   3
BRANCH   1  15
HETATM   15  C   UNL     1      24.649  46.302  50.690  1.00  0.00     0.704 A 
HETATM   16  N   UNL     1      25.854  46.747  50.524  1.00  0.00    -0.064 NA
HETATM   17  C   UNL     1      26.047  47.912  49.765  1.00  0.00     0.091 A 
HETATM   18  C   UNL     1      24.991  48.608  49.177  1.00  0.00     0.062 A 
HETATM   19  C   UNL     1      27.345  48.397  49.591  1.00  0.00     0.033 A 
HETATM   20  C   UNL     1      23.639  48.068  49.378  1.00  0.00     0.272 A 
HETATM   21  C   UNL     1      25.209  49.769  48.427  1.00  0.00     0.019 A 
HETATM   22  O   UNL     1      22.645  48.596  48.893  1.00  0.00    -0.267 OA
HETATM   23  N   UNL     1      23.564  46.933  50.145  1.00  0.00    -0.154 N 
HETATM   24  H   UNL     1      22.643  46.544  50.260  1.00  0.00     0.187 HD
HETATM   25  C   UNL     1      26.510  50.242  48.263  1.00  0.00     0.001 A 
HETATM   26  C   UNL     1      27.578  49.556  48.844  1.00  0.00     0.002 A 
ENDBRANCH   1  15
TORSDOF 6
ENDMDL
MODEL 4
REMARK VINA RESULT:      -8.4      2.252      9.122
REMARK  6 active torsions:
REMARK  status: ('A' for Active; 'I' for Inactive)
REMARK    1  A    between atoms: C_2  and  O_3 
REMARK    2  A    between atoms: O_3  and  C_4 
REMARK    3  A    between atoms: C_4  and  C_5 
REMARK    4  A    between atoms: C_8  and  C_9 
REMARK    5  A    between atoms: C_9  and  N_10 
REMARK    6  A    between atoms: N_10  and  C_11 
ROOT
HETATM    1  N   UNL     1      26.747  43.800  51.403  1.00  0.00    -0.220 N 
HETATM    2  H   UNL     1      26.405  42.854  51.313  1.00  0.00     0.178 HD
ENDROOT
BRANCH   1   3
HETATM    3  C   UNL     1      26.975  44.478  50.143  1.00  0.00     0.176 C 
BRANCH   3   4
HETATM    4  C   UNL     1      25.893  45.504  49.914  1.00  0.00    -0.040 A 
HETATM    5  C   UNL     1      26.160  46.868  50.093  1.00  0.00     0.009 A 
HETATM    6  C   UNL     1      25.167  47.821  49.862  1.00  0.00     0.010 A 
HETATM    7  C   UNL     1      23.882  47.429  49.461  1.00  0.00    -0.035 A 
HETATM    8  C   UNL     1      23.611  46.066  49.296  1.00  0.00     0.010 A 
HETATM    9  C   UNL     1      24.605  45.111  49.526  1.00  0.00     0.009 A 
BRANCH   7  10
HETATM   10  C   UNL     1      22.830  48.468  49.171  1.00  0.00     0.206 C 
BRANCH  10  11
HETATM   11  O   UNL     1      23.217  49.677  49.814  1.00  0.00    -0.382 OA
BRANCH  11  12
HETATM   12  C   UNL     1      22.950  50.851  49.045  1.00  0.00     0.113 C 
HETATM   13  C   UNL     1      21.451  51.017  48.812  1.00  0.00     0.039 C 
HETATM   14  C   UNL     1      23.674  50.681  47.714  1.00  0.00     0.039 C 
ENDBRANCH  11  12
ENDBRANCH  10  11
ENDBRANCH   7  10
ENDBRANCH   3   4
ENDBRANCH   1   3
BRANCH   1  15
HETATM   15  C   UNL     1      27.466  44.119  52.515  1.00  0.00     0.704 A 
HETATM   16  N   UNL     1      28.489  43.429  52.907  1.00  0.00    -0.064 NA
HETATM   17  C   UNL     1      29.170  43.826  54.069  1.00  0.00     0.091 A 
HETATM   18  C   UNL     1      28.790  44.941  54.817  1.00  0.00     0.062 A 
HETATM   19  C   UNL     1      30.269  43.078  54.497  1.00  0.00     0.033 A 
HETATM   20  C   UNL     1      27.631  45.706  54.336  1.00  0.00     0.272 A 
HETATM   21  C   UNL     1      29.483  45.315  55.974  1.00  0.00     0.019 A 
HETATM   22  O   UNL     1      27.224  46.709  54.912  1.00  0.00    -0.267 OA
HETATM   23  N   UNL     1      27.034  45.223  53.199  1.00  0.00    -0.154 N 
HETATM   24  H   UNL     1      26.259  45.762  52.851  1.00  0.00     0.187 HD
HETATM   25  C   UNL     1      30.577  44.559  56.389  1.00  0.00     0.001 A 
HETATM   26  C   UNL     1      30.970  43.441  55.652  1.00  0.00     0.002 A 
ENDBRANCH   1  15
TORSDOF 6
ENDMDL
MODEL 5
REMARK VINA RESULT:      -8.4      2.114      9.423
REMARK  6 active torsions:
REMARK  status: ('A' for Active; 'I' for Inactive)
REMARK    1  A    between atoms: C_2  and  O_3 
REMARK    2  A    between atoms: O_3  and  C_4 
REMARK    3  A    between atoms: C_4  and  C_5 
REMARK    4  A    between atoms: C_8  and  C_9 
REMARK    5  A    between atoms: C_9  and  N_10 
REMARK    6  A    between atoms: N_10  and  C_11 
ROOT
HETATM    1  N   UNL     1      26.155  44.992  52.455  1.00  0.00    -0.220 N 
HETATM    2  H   UNL     1      25.248  44.925  52.896  1.00  0.00     0.178 HD
ENDROOT
BRANCH   1   3
HETATM    3  C   UNL     1      26.133  44.844  51.013  1.00  0.00     0.176 C 
BRANCH   3   4
HETATM    4  C   UNL     1      25.672  46.132  50.377  1.00  0.00    -0.040 A 
HETATM    5  C   UNL     1      24.313  46.338  50.101  1.00  0.00     0.009 A 
HETATM    6  C   UNL     1      23.881  47.537  49.531  1.00  0.00     0.010 A 
HETATM    7  C   UNL     1      24.798  48.548  49.213  1.00  0.00    -0.035 A 
HETATM    8  C   UNL     1      26.157  48.336  49.475  1.00  0.00     0.010 A 
HETATM    9  C   UNL     1      26.591  47.136  50.046  1.00  0.00     0.009 A 
BRANCH   7  10
HETATM   10  C   UNL     1      24.316  49.855  48.640  1.00  0.00     0.206 C 
BRANCH  10  11
HETATM   11  O   UNL     1      23.448  49.564  47.549  1.00  0.00    -0.382 OA
BRANCH  11  12
HETATM   12  C   UNL     1      22.177  50.210  47.635  1.00  0.00     0.113 C 
HETATM   13  C   UNL     1      22.141  51.182  48.811  1.00  0.00     0.039 C 
HETATM   14  C   UNL     1      21.135  49.114  47.826  1.00  0.00     0.039 C 
ENDBRANCH  11  12
ENDBRANCH  10  11
ENDBRANCH   7  10
ENDBRANCH   3   4
ENDBRANCH   1   3
BRANCH   1  15
HETATM   15  C   UNL     1      27.249  44.638  53.184  1.00  0.00     0.704 A 
HETATM   16  N   UNL     1      27.662  45.325  54.201  1.00  0.00    -0.064 NA
HETATM   17  C   UNL     1      28.804  44.891  54.894  1.00  0.00     0.091 A 
HETATM   18  C   UNL     1      29.510  43.743  54.532  1.00  0.00     0.062 A 
HETATM   19  C   UNL     1      29.254  45.634  55.987  1.00  0.00     0.033 A 
HETATM   20  C   UNL     1      29.006  42.984  53.378  1.00  0.00     0.272 A 
HETATM   21  C   UNL     1      30.647  43.332  55.236  1.00  0.00     0.019 A 
HETATM   22  O   UNL     1      29.545  41.955  52.987  1.00  0.00    -0.267 OA
HETATM   23  N   UNL     1      27.892  43.504  52.769  1.00  0.00    -0.154 N 
HETATM   24  H   UNL     1      27.528  42.970  51.998  1.00  0.00     0.187 HD
HETATM   25  C   UNL     1      31.085  44.085  56.324  1.00  0.00     0.001 A 
HETATM   26  C   UNL     1      30.390  45.235  56.700  1.00  0.00     0.002 A 
ENDBRANCH   1  15
TORSDOF 6
ENDMDL
MODEL 6
REMARK VINA RESULT:      -8.3      6.361      8.127
REMARK  6 active torsions:
REMARK  status: ('A' for Active; 'I' for Inactive)
REMARK    1  A    between atoms: C_2  and  O_3 
REMARK    2  A    between atoms: O_3  and  C_4 
REMARK    3  A    between atoms: C_4  and  C_5 
REMARK    4  A    between atoms: C_8  and  C_9 
REMARK    5  A    between atoms: C_9  and  N_10 
REMARK    6  A    between atoms: N_10  and  C_11 
ROOT
HETATM    1  N   UNL     1      27.852  40.854  51.945  1.00  0.00    -0.220 N 
HETATM    2  H   UNL     1      27.402  41.752  51.834  1.00  0.00     0.178 HD
ENDROOT
BRANCH   1   3
HETATM    3  C   UNL     1      28.709  40.752  53.109  1.00  0.00     0.176 C 
BRANCH   3   4
HETATM    4  C   UNL     1      28.817  42.099  53.781  1.00  0.00    -0.040 A 
HETATM    5  C   UNL     1      30.070  42.607  54.150  1.00  0.00     0.009 A 
HETATM    6  C   UNL     1      30.175  43.861  54.754  1.00  0.00     0.010 A 
HETATM    7  C   UNL     1      29.030  44.627  55.012  1.00  0.00    -0.035 A 
HETATM    8  C   UNL     1      27.778  44.113  54.656  1.00  0.00     0.010 A 
HETATM    9  C   UNL     1      27.671  42.858  54.052  1.00  0.00     0.009 A 
BRANCH   7  10
HETATM   10  C   UNL     1      29.158  45.999  55.622  1.00  0.00     0.206 C 
BRANCH  10  11
HETATM   11  O   UNL     1      30.417  46.071  56.283  1.00  0.00    -0.382 OA
BRANCH  11  12
HETATM   12  C   UNL     1      30.321  46.095  57.707  1.00  0.00     0.113 C 
HETATM   13  C   UNL     1      30.940  44.840  58.314  1.00  0.00     0.039 C 
HETATM   14  C   UNL     1      28.836  46.168  58.049  1.00  0.00     0.039 C 
ENDBRANCH  11  12
ENDBRANCH  10  11
ENDBRANCH   7  10
ENDBRANCH   3   4
ENDBRANCH   1   3
BRANCH   1  15
HETATM   15  C   UNL     1      28.091  40.116  50.826  1.00  0.00     0.704 A 
HETATM   16  N   UNL     1      27.443  40.295  49.720  1.00  0.00    -0.064 NA
HETATM   17  C   UNL     1      27.750  39.484  48.615  1.00  0.00     0.091 A 
HETATM   18  C   UNL     1      28.733  38.494  48.661  1.00  0.00     0.062 A 
HETATM   19  C   UNL     1      27.047  39.671  47.423  1.00  0.00     0.033 A 
HETATM   20  C   UNL     1      29.454  38.327  49.930  1.00  0.00     0.272 A 
HETATM   21  C   UNL     1      29.019  37.697  47.547  1.00  0.00     0.019 A 
HETATM   22  O   UNL     1      30.344  37.496  50.072  1.00  0.00    -0.267 OA
HETATM   23  N   UNL     1      29.066  39.163  50.946  1.00  0.00    -0.154 N 
HETATM   24  H   UNL     1      29.579  39.071  51.807  1.00  0.00     0.187 HD
HETATM   25  C   UNL     1      28.308  37.895  46.365  1.00  0.00     0.001 A 
HETATM   26  C   UNL     1      27.323  38.881  46.302  1.00  0.00     0.002 A 
ENDBRANCH   1  15
TORSDOF 6
ENDMDL
MODEL 7
REMARK VINA RESULT:      -8.3      1.416      1.758
REMARK  6 active torsions:
REMARK  status: ('A' for Active; 'I' for Inactive)
REMARK    1  A    between atoms: C_2  and  O_3 
REMARK    2  A    between atoms: O_3  and  C_4 
REMARK    3  A    between atoms: C_4  and  C_5 
REMARK    4  A    between atoms: C_8  and  C_9 
REMARK    5  A    between atoms: C_9  and  N_10 
REMARK    6  A    between atoms: N_10  and  C_11 
ROOT
HETATM    1  N   UNL     1      25.345  45.371  50.478  1.00  0.00    -0.220 N 
HETATM    2  H   UNL     1      25.222  44.554  49.897  1.00  0.00     0.178 HD
ENDROOT
BRANCH   1   3
HETATM    3  C   UNL     1      25.174  45.131  51.897  1.00  0.00     0.176 C 
BRANCH   3   4
HETATM    4  C   UNL     1      26.443  44.550  52.470  1.00  0.00    -0.040 A 
HETATM    5  C   UNL     1      27.492  44.166  51.624  1.00  0.00     0.009 A 
HETATM    6  C   UNL     1      28.675  43.647  52.153  1.00  0.00     0.010 A 
HETATM    7  C   UNL     1      28.829  43.489  53.537  1.00  0.00    -0.035 A 
HETATM    8  C   UNL     1      27.776  43.859  54.382  1.00  0.00     0.010 A 
HETATM    9  C   UNL     1      26.591  44.379  53.853  1.00  0.00     0.009 A 
BRANCH   7  10
HETATM   10  C   UNL     1      30.127  42.970  54.100  1.00  0.00     0.206 C 
BRANCH  10  11
HETATM   11  O   UNL     1      30.093  43.144  55.513  1.00  0.00    -0.382 OA
BRANCH  11  12
HETATM   12  C   UNL     1      31.112  44.011  56.012  1.00  0.00     0.113 C 
HETATM   13  C   UNL     1      31.854  43.362  57.176  1.00  0.00     0.039 C 
HETATM   14  C   UNL     1      30.419  45.288  56.477  1.00  0.00     0.039 C 
ENDBRANCH  11  12
ENDBRANCH  10  11
ENDBRANCH   7  10
ENDBRANCH   3   4
ENDBRANCH   1   3
BRANCH   1  15
HETATM   15  C   UNL     1      25.081  46.591  49.933  1.00  0.00     0.704 A 
HETATM   16  N   UNL     1      23.879  46.985  49.653  1.00  0.00    -0.064 NA
HETATM   17  C   UNL     1      23.698  48.257  49.087  1.00  0.00     0.091 A 
HETATM   18  C   UNL     1      24.763  49.118  48.818  1.00  0.00     0.062 A 
HETATM   19  C   UNL     1      22.404  48.681  48.779  1.00  0.00     0.033 A 
HETATM   20  C   UNL     1      26.111  48.640  49.158  1.00  0.00     0.272 A 
HETATM   21  C   UNL     1      24.557  50.380  48.252  1.00  0.00     0.019 A 
HETATM   22  O   UNL     1      27.112  49.323  48.976  1.00  0.00    -0.267 OA
HETATM   23  N   UNL     1      26.174  47.379  49.695  1.00  0.00    -0.154 N 
HETATM   24  H   UNL     1      27.092  47.062  49.956  1.00  0.00     0.187 HD
HETATM   25  C   UNL     1      23.260  50.789  47.948  1.00  0.00     0.001 A 
HETATM   26  C   UNL     1      22.184  49.941  48.211  1.00  0.00     0.002 A 
ENDBRANCH   1  15
TORSDOF 6
ENDMDL
MODEL 8
REMARK VINA RESULT:      -8.0      5.843      8.468
REMARK  6 active torsions:
REMARK  status: ('A' for Active; 'I' for Inactive)
REMARK    1  A    between atoms: C_2  and  O_3 
REMARK    2  A    between atoms: O_3  and  C_4 
REMARK    3  A    between atoms: C_4  and  C_5 
REMARK    4  A    between atoms: C_8  and  C_9 
REMARK    5  A    between atoms: C_9  and  N_10 
REMARK    6  A    between atoms: N_10  and  C_11 
ROOT
HETATM    1  N   UNL     1      27.980  40.896  52.068  1.00  0.00    -0.220 N 
HETATM    2  H   UNL     1      27.361  41.692  52.002  1.00  0.00     0.178 HD
ENDROOT
BRANCH   1   3
HETATM    3  C   UNL     1      28.992  41.007  53.099  1.00  0.00     0.176 C 
BRANCH   3   4
HETATM    4  C   UNL     1      28.892  42.356  53.767  1.00  0.00    -0.040 A 
HETATM    5  C   UNL     1      27.664  43.031  53.820  1.00  0.00     0.009 A 
HETATM    6  C   UNL     1      27.564  44.270  54.455  1.00  0.00     0.010 A 
HETATM    7  C   UNL     1      28.690  44.867  55.036  1.00  0.00    -0.035 A 
HETATM    8  C   UNL     1      29.920  44.201  54.970  1.00  0.00     0.010 A 
HETATM    9  C   UNL     1      30.021  42.959  54.336  1.00  0.00     0.009 A 
BRANCH   7  10
HETATM   10  C   UNL     1      28.562  46.183  55.758  1.00  0.00     0.206 C 
BRANCH  10  11
HETATM   11  O   UNL     1      27.195  46.579  55.712  1.00  0.00    -0.382 OA
BRANCH  11  12
HETATM   12  C   UNL     1      26.976  47.819  55.038  1.00  0.00     0.113 C 
HETATM   13  C   UNL     1      26.297  48.826  55.961  1.00  0.00     0.039 C 
HETATM   14  C   UNL     1      26.083  47.519  53.839  1.00  0.00     0.039 C 
ENDBRANCH  11  12
ENDBRANCH  10  11
ENDBRANCH   7  10
ENDBRANCH   3   4
ENDBRANCH   1   3
BRANCH   1  15
HETATM   15  C   UNL     1      28.195  40.157  50.945  1.00  0.00     0.704 A 
HETATM   16  N   UNL     1      27.580  40.387  49.829  1.00  0.00    -0.064 NA
HETATM   17  C   UNL     1      27.859  39.572  48.721  1.00  0.00     0.091 A 
HETATM   18  C   UNL     1      28.781  38.525  48.772  1.00  0.00     0.062 A 
HETATM   19  C   UNL     1      27.191  39.814  47.518  1.00  0.00     0.033 A 
HETATM   20  C   UNL     1      29.467  38.300  50.052  1.00  0.00     0.272 A 
HETATM   21  C   UNL     1      29.041  37.725  47.654  1.00  0.00     0.019 A 
HETATM   22  O   UNL     1      30.303  37.417  50.199  1.00  0.00    -0.267 OA
HETATM   23  N   UNL     1      29.110  39.147  51.071  1.00  0.00    -0.154 N 
HETATM   24  H   UNL     1      29.600  39.014  51.940  1.00  0.00     0.187 HD
HETATM   25  C   UNL     1      28.365  37.978  46.461  1.00  0.00     0.001 A 
HETATM   26  C   UNL     1      27.441  39.022  46.393  1.00  0.00     0.002 A 
ENDBRANCH   1  15
TORSDOF 6
ENDMDL
MODEL 9
REMARK VINA RESULT:      -7.8      3.469     10.296
REMARK  6 active torsions:
REMARK  status: ('A' for Active; 'I' for Inactive)
REMARK    1  A    between atoms: C_2  and  O_3 
REMARK    2  A    between atoms: O_3  and  C_4 
REMARK    3  A    between atoms: C_4  and  C_5 
REMARK    4  A    between atoms: C_8  and  C_9 
REMARK    5  A    between atoms: C_9  and  N_10 
REMARK    6  A    between atoms: N_10  and  C_11 
ROOT
HETATM    1  N   UNL     1      23.872  47.705  49.242  1.00  0.00    -0.220 N 
HETATM    2  H   UNL     1      24.166  48.669  49.176  1.00  0.00     0.178 HD
ENDROOT
BRANCH   1   3
HETATM    3  C   UNL     1      22.589  47.425  48.629  1.00  0.00     0.176 C 
BRANCH   3   4
HETATM    4  C   UNL     1      21.737  48.670  48.643  1.00  0.00    -0.040 A 
HETATM    5  C   UNL     1      22.306  49.921  48.367  1.00  0.00     0.009 A 
HETATM    6  C   UNL     1      21.516  51.072  48.359  1.00  0.00     0.010 A 
HETATM    7  C   UNL     1      20.145  50.999  48.639  1.00  0.00    -0.035 A 
HETATM    8  C   UNL     1      19.579  49.752  48.929  1.00  0.00     0.010 A 
HETATM    9  C   UNL     1      20.369  48.599  48.937  1.00  0.00     0.009 A 
BRANCH   7  10
HETATM   10  C   UNL     1      19.293  52.241  48.584  1.00  0.00     0.206 C 
BRANCH  10  11
HETATM   11  O   UNL     1      18.168  51.964  47.757  1.00  0.00    -0.382 OA
BRANCH  11  12
HETATM   12  C   UNL     1      16.913  52.248  48.377  1.00  0.00     0.113 C 
HETATM   13  C   UNL     1      17.112  52.703  49.819  1.00  0.00     0.039 C 
HETATM   14  C   UNL     1      16.099  50.959  48.340  1.00  0.00     0.039 C 
ENDBRANCH  11  12
ENDBRANCH  10  11
ENDBRANCH   7  10
ENDBRANCH   3   4
ENDBRANCH   1   3
BRANCH   1  15
HETATM   15  C   UNL     1      24.328  46.967  50.291  1.00  0.00     0.704 A 
HETATM   16  N   UNL     1      25.081  47.464  51.220  1.00  0.00    -0.064 NA
HETATM   17  C   UNL     1      25.511  46.630  52.264  1.00  0.00     0.091 A 
HETATM   18  C   UNL     1      25.153  45.283  52.344  1.00  0.00     0.062 A 
HETATM   19  C   UNL     1      26.329  47.163  53.262  1.00  0.00     0.033 A 
HETATM   20  C   UNL     1      24.288  44.757  51.278  1.00  0.00     0.272 A 
HETATM   21  C   UNL     1      25.595  44.471  53.394  1.00  0.00     0.019 A 
HETATM   22  O   UNL     1      23.905  43.592  51.262  1.00  0.00    -0.267 OA
HETATM   23  N   UNL     1      23.938  45.655  50.303  1.00  0.00    -0.154 N 
HETATM   24  H   UNL     1      23.322  45.305  49.588  1.00  0.00     0.187 HD
HETATM   25  C   UNL     1      26.412  45.017  54.382  1.00  0.00     0.001 A 
HETATM   26  C   UNL     1      26.779  46.362  54.317  1.00  0.00     0.002 A 
ENDBRANCH   1  15
TORSDOF 6
ENDMDL
MODEL 10
REMARK VINA RESULT:      -7.7      2.586      3.926
REMARK  6 active torsions:
REMARK  status: ('A' for Active; 'I' for Inactive)
REMARK    1  A    between atoms: C_2  and  O_3 
REMARK    2  A    between atoms: O_3  and  C_4 
REMARK    3  A    between atoms: C_4  and  C_5 
REMARK    4  A    between atoms: C_8  and  C_9 
REMARK    5  A    between atoms: C_9  and  N_10 
REMARK    6  A    between atoms: N_10  and  C_11 
ROOT
HETATM    1  N   UNL     1      23.090  47.147  49.235  1.00  0.00    -0.220 N 
HETATM    2  H   UNL     1      22.664  46.308  49.603  1.00  0.00     0.178 HD
ENDROOT
BRANCH   1   3
HETATM    3  C   UNL     1      24.509  47.266  49.503  1.00  0.00     0.176 C 
BRANCH   3   4
HETATM    4  C   UNL     1      24.860  46.483  50.744  1.00  0.00    -0.040 A 
HETATM    5  C   UNL     1      25.485  47.115  51.828  1.00  0.00     0.009 A 
HETATM    6  C   UNL     1      25.792  46.398  52.985  1.00  0.00     0.010 A 
HETATM    7  C   UNL     1      25.494  45.032  53.078  1.00  0.00    -0.035 A 
HETATM    8  C   UNL     1      24.883  44.397  51.991  1.00  0.00     0.010 A 
HETATM    9  C   UNL     1      24.574  45.114  50.831  1.00  0.00     0.009 A 
BRANCH   7  10
HETATM   10  C   UNL     1      25.788  44.278  54.349  1.00  0.00     0.206 C 
BRANCH  10  11
HETATM   11  O   UNL     1      27.114  44.602  54.756  1.00  0.00    -0.382 OA
BRANCH  11  12
HETATM   12  C   UNL     1      28.126  43.879  54.054  1.00  0.00     0.113 C 
HETATM   13  C   UNL     1      27.754  42.404  53.934  1.00  0.00     0.039 C 
HETATM   14  C   UNL     1      29.415  44.034  54.853  1.00  0.00     0.039 C 
ENDBRANCH  11  12
ENDBRANCH  10  11
ENDBRANCH   7  10
ENDBRANCH   3   4
ENDBRANCH   1   3
BRANCH   1  15
HETATM   15  C   UNL     1      22.306  48.250  49.083  1.00  0.00     0.704 A 
HETATM   16  N   UNL     1      21.385  48.332  48.176  1.00  0.00    -0.064 NA
HETATM   17  C   UNL     1      20.626  49.509  48.086  1.00  0.00     0.091 A 
HETATM   18  C   UNL     1      20.820  50.595  48.941  1.00  0.00     0.062 A 
HETATM   19  C   UNL     1      19.637  49.602  47.105  1.00  0.00     0.033 A 
HETATM   20  C   UNL     1      21.867  50.462  49.964  1.00  0.00     0.272 A 
HETATM   21  C   UNL     1      20.052  51.759  48.831  1.00  0.00     0.019 A 
HETATM   22  O   UNL     1      22.109  51.351  50.772  1.00  0.00    -0.267 OA
HETATM   23  N   UNL     1      22.555  49.275  49.955  1.00  0.00    -0.154 N 
HETATM   24  H   UNL     1      23.252  49.169  50.673  1.00  0.00     0.187 HD
HETATM   25  C   UNL     1      19.070  51.838  47.845  1.00  0.00     0.001 A 
HETATM   26  C   UNL     1      18.862  50.760  46.983  1.00  0.00     0.002 A 
ENDBRANCH   1  15
TORSDOF 6
ENDMDL
