MODEL 1
REMARK VINA RESULT:     -10.0      0.000      0.000
REMARK  4 active torsions:
REMARK  status: ('A' for Active; 'I' for Inactive)
REMARK    1  A    between atoms: C_6  and  C_7 
REMARK    2  A    between atoms: C_8  and  C_9 
REMARK       I    between atoms: C_9  and  N_10 
REMARK    3  A    between atoms: N_10  and  C_11 
REMARK    4  A    between atoms: C_18  and  C_19 
REMARK       I    between atoms: C_19  and  N_20 
ROOT
HETATM    1  C   UNL     1      25.772  47.559  50.234  1.00  0.00     0.035 A 
HETATM    2  C   UNL     1      24.472  47.855  49.803  1.00  0.00     0.046 A 
HETATM    3  C   UNL     1      24.266  48.872  48.846  1.00  0.00     0.030 A 
HETATM    4  C   UNL     1      25.367  49.558  48.351  1.00  0.00     0.063 A 
HETATM    5  N   UNL     1      24.859  50.454  47.452  1.00  0.00    -0.277 N 
HETATM    6  H   UNL     1      25.377  51.121  46.890  1.00  0.00     0.189 HD
HETATM    7  N   UNL     1      23.522  50.420  47.324  1.00  0.00    -0.168 NA
HETATM    8  C   UNL     1      23.140  49.447  48.182  1.00  0.00     0.156 A 
HETATM    9  C   UNL     1      26.676  49.297  48.762  1.00  0.00     0.034 A 
HETATM   10  C   UNL     1      26.852  48.287  49.718  1.00  0.00     0.032 A 
ENDROOT
BRANCH   1  11
HETATM   11  N   UNL     1      26.073  46.540  51.164  1.00  0.00    -0.327 N 
HETATM   12  C   UNL     1      25.844  46.565  52.522  1.00  0.00     0.227 C 
HETATM   13  O   UNL     1      25.408  47.491  53.186  1.00  0.00    -0.273 OA
HETATM   14  H   UNL     1      26.454  45.687  50.784  1.00  0.00     0.169 HD
BRANCH  12  15
HETATM   15  C   UNL     1      26.147  45.297  53.241  1.00  0.00     0.087 A 
HETATM   16  C   UNL     1      27.213  45.400  54.328  1.00  0.00     0.032 A 
HETATM   17  C   UNL     1      25.823  44.939  54.664  1.00  0.00     0.025 A 
BRANCH  16  18
HETATM   18  C   UNL     1      28.404  44.482  54.236  1.00  0.00    -0.051 A 
HETATM   19  C   UNL     1      29.301  44.303  55.299  1.00  0.00     0.031 A 
HETATM   20  C   UNL     1      30.417  43.472  55.162  1.00  0.00     0.034 A 
HETATM   21  C   UNL     1      30.666  42.811  53.962  1.00  0.00     0.024 A 
HETATM   22 CL   UNL     1      31.497  43.271  56.487  1.00  0.00    -0.084 Cl
HETATM   23  C   UNL     1      29.792  42.980  52.893  1.00  0.00     0.002 A 
HETATM   24  C   UNL     1      28.676  43.806  53.034  1.00  0.00     0.007 A 
ENDBRANCH  16  18
ENDBRANCH  12  15
ENDBRANCH   1  11
BRANCH   8  25
HETATM   25  C   UNL     1      21.724  49.090  48.349  1.00  0.00     0.270 C 
HETATM   26  N   UNL     1      21.224  49.354  49.595  1.00  0.00    -0.365 N 
HETATM   27  H   UNL     1      21.841  49.754  50.291  1.00  0.00     0.159 HD
HETATM   28  H   UNL     1      20.263  49.133  49.803  1.00  0.00     0.159 HD
HETATM   29  O   UNL     1      21.019  48.596  47.476  1.00  0.00    -0.266 OA
ENDBRANCH   8  25
TORSDOF 4
ENDMDL
MODEL 2
REMARK VINA RESULT:      -9.7      5.790      8.208
REMARK  4 active torsions:
REMARK  status: ('A' for Active; 'I' for Inactive)
REMARK    1  A    between atoms: C_6  and  C_7 
REMARK    2  A    between atoms: C_8  and  C_9 
REMARK       I    between atoms: C_9  and  N_10 
REMARK    3  A    between atoms: N_10  and  C_11 
REMARK    4  A    between atoms: C_18  and  C_19 
REMARK       I    between atoms: C_19  and  N_20 
ROOT
HETATM    1  C   UNL     1      27.261  41.440  51.662  1.00  0.00     0.035 A 
HETATM    2  C   UNL     1      28.144  40.374  51.447  1.00  0.00     0.046 A 
HETATM    3  C   UNL     1      28.044  39.608  50.266  1.00  0.00     0.030 A 
HETATM    4  C   UNL     1      27.064  39.935  49.338  1.00  0.00     0.063 A 
HETATM    5  N   UNL     1      27.222  39.040  48.317  1.00  0.00    -0.277 N 
HETATM    6  H   UNL     1      26.681  38.983  47.461  1.00  0.00     0.189 HD
HETATM    7  N   UNL     1      28.212  38.151  48.502  1.00  0.00    -0.168 NA
HETATM    8  C   UNL     1      28.729  38.489  49.705  1.00  0.00     0.156 A 
HETATM    9  C   UNL     1      26.161  40.985  49.520  1.00  0.00     0.034 A 
HETATM   10  C   UNL     1      26.279  41.725  50.705  1.00  0.00     0.032 A 
ENDROOT
BRANCH   1  11
HETATM   11  N   UNL     1      27.307  42.277  52.799  1.00  0.00    -0.327 N 
HETATM   12  C   UNL     1      27.557  43.632  52.819  1.00  0.00     0.227 C 
HETATM   13  O   UNL     1      27.854  44.347  51.876  1.00  0.00    -0.273 OA
HETATM   14  H   UNL     1      27.089  41.844  53.682  1.00  0.00     0.169 HD
BRANCH  12  15
HETATM   15  C   UNL     1      27.418  44.283  54.150  1.00  0.00     0.087 A 
HETATM   16  C   UNL     1      28.429  45.388  54.446  1.00  0.00     0.032 A 
HETATM   17  C   UNL     1      26.955  45.681  54.453  1.00  0.00     0.025 A 
BRANCH  16  18
HETATM   18  C   UNL     1      29.266  45.261  55.691  1.00  0.00    -0.051 A 
HETATM   19  C   UNL     1      30.305  44.326  55.809  1.00  0.00     0.031 A 
HETATM   20  C   UNL     1      31.034  44.211  56.996  1.00  0.00     0.034 A 
HETATM   21  C   UNL     1      30.739  45.019  58.091  1.00  0.00     0.024 A 
HETATM   22 CL   UNL     1      32.304  43.055  57.107  1.00  0.00    -0.084 Cl
HETATM   23  C   UNL     1      29.709  45.949  57.998  1.00  0.00     0.002 A 
HETATM   24  C   UNL     1      28.985  46.066  56.810  1.00  0.00     0.007 A 
ENDBRANCH  16  18
ENDBRANCH  12  15
ENDBRANCH   1  11
BRANCH   8  25
HETATM   25  C   UNL     1      29.854  37.744  50.288  1.00  0.00     0.270 C 
HETATM   26  N   UNL     1      29.478  36.706  51.096  1.00  0.00    -0.365 N 
HETATM   27  H   UNL     1      28.491  36.534  51.237  1.00  0.00     0.159 HD
HETATM   28  H   UNL     1      30.184  36.145  51.546  1.00  0.00     0.159 HD
HETATM   29  O   UNL     1      31.038  37.998  50.094  1.00  0.00    -0.266 OA
ENDBRANCH   8  25
TORSDOF 4
ENDMDL
MODEL 3
REMARK VINA RESULT:      -9.6      1.512      2.086
REMARK  4 active torsions:
REMARK  status: ('A' for Active; 'I' for Inactive)
REMARK    1  A    between atoms: C_6  and  C_7 
REMARK    2  A    between atoms: C_8  and  C_9 
REMARK       I    between atoms: C_9  and  N_10 
REMARK    3  A    between atoms: N_10  and  C_11 
REMARK    4  A    between atoms: C_18  and  C_19 
REMARK       I    between atoms: C_19  and  N_20 
ROOT
HETATM    1  C   UNL     1      25.828  47.706  49.858  1.00  0.00     0.035 A 
HETATM    2  C   UNL     1      24.433  47.790  49.748  1.00  0.00     0.046 A 
HETATM    3  C   UNL     1      23.852  48.827  48.987  1.00  0.00     0.030 A 
HETATM    4  C   UNL     1      24.684  49.746  48.362  1.00  0.00     0.063 A 
HETATM    5  N   UNL     1      23.846  50.603  47.705  1.00  0.00    -0.277 N 
HETATM    6  H   UNL     1      24.107  51.400  47.135  1.00  0.00     0.189 HD
HETATM    7  N   UNL     1      22.539  50.332  47.856  1.00  0.00    -0.168 NA
HETATM    8  C   UNL     1      22.527  49.236  48.649  1.00  0.00     0.156 A 
HETATM    9  C   UNL     1      26.077  49.699  48.455  1.00  0.00     0.034 A 
HETATM   10  C   UNL     1      26.628  48.663  49.221  1.00  0.00     0.032 A 
ENDROOT
BRANCH   1  11
HETATM   11  N   UNL     1      26.495  46.687  50.572  1.00  0.00    -0.327 N 
HETATM   12  C   UNL     1      26.553  45.350  50.245  1.00  0.00     0.227 C 
HETATM   13  O   UNL     1      25.985  44.784  49.325  1.00  0.00    -0.273 OA
HETATM   14  H   UNL     1      27.022  46.979  51.380  1.00  0.00     0.169 HD
BRANCH  12  15
HETATM   15  C   UNL     1      27.437  44.522  51.111  1.00  0.00     0.087 A 
HETATM   16  C   UNL     1      26.925  44.282  52.528  1.00  0.00     0.032 A 
HETATM   17  C   UNL     1      27.199  43.124  51.610  1.00  0.00     0.025 A 
BRANCH  16  18
HETATM   18  C   UNL     1      27.818  44.674  53.675  1.00  0.00    -0.051 A 
HETATM   19  C   UNL     1      28.873  43.864  54.120  1.00  0.00     0.031 A 
HETATM   20  C   UNL     1      29.656  44.244  55.214  1.00  0.00     0.034 A 
HETATM   21  C   UNL     1      29.399  45.433  55.892  1.00  0.00     0.024 A 
HETATM   22 CL   UNL     1      30.944  43.228  55.733  1.00  0.00    -0.084 Cl
HETATM   23  C   UNL     1      28.354  46.249  55.471  1.00  0.00     0.002 A 
HETATM   24  C   UNL     1      27.576  45.870  54.375  1.00  0.00     0.007 A 
ENDBRANCH  16  18
ENDBRANCH  12  15
ENDBRANCH   1  11
BRANCH   8  25
HETATM   25  C   UNL     1      21.264  48.609  49.063  1.00  0.00     0.270 C 
HETATM   26  N   UNL     1      20.508  49.377  49.906  1.00  0.00    -0.365 N 
HETATM   27  H   UNL     1      20.860  50.285  50.181  1.00  0.00     0.159 HD
HETATM   28  H   UNL     1      19.629  49.023  50.248  1.00  0.00     0.159 HD
HETATM   29  O   UNL     1      20.885  47.497  48.709  1.00  0.00    -0.266 OA
ENDBRANCH   8  25
TORSDOF 4
ENDMDL
MODEL 4
REMARK VINA RESULT:      -9.6      4.435      9.105
REMARK  4 active torsions:
REMARK  status: ('A' for Active; 'I' for Inactive)
REMARK    1  A    between atoms: C_6  and  C_7 
REMARK    2  A    between atoms: C_8  and  C_9 
REMARK       I    between atoms: C_9  and  N_10 
REMARK    3  A    between atoms: N_10  and  C_11 
REMARK    4  A    between atoms: C_18  and  C_19 
REMARK       I    between atoms: C_19  and  N_20 
ROOT
HETATM    1  C   UNL     1      28.295  44.809  53.609  1.00  0.00     0.035 A 
HETATM    2  C   UNL     1      28.640  45.299  54.875  1.00  0.00     0.046 A 
HETATM    3  C   UNL     1      29.650  44.658  55.624  1.00  0.00     0.030 A 
HETATM    4  C   UNL     1      30.282  43.547  55.082  1.00  0.00     0.063 A 
HETATM    5  N   UNL     1      31.200  43.162  56.019  1.00  0.00    -0.277 N 
HETATM    6  H   UNL     1      31.849  42.385  55.959  1.00  0.00     0.189 HD
HETATM    7  N   UNL     1      31.215  43.918  57.129  1.00  0.00    -0.168 NA
HETATM    8  C   UNL     1      30.259  44.847  56.901  1.00  0.00     0.156 A 
HETATM    9  C   UNL     1      29.960  43.024  53.828  1.00  0.00     0.034 A 
HETATM   10  C   UNL     1      28.950  43.676  53.107  1.00  0.00     0.032 A 
ENDROOT
BRANCH   1  11
HETATM   11  N   UNL     1      27.321  45.404  52.778  1.00  0.00    -0.327 N 
HETATM   12  C   UNL     1      26.054  44.929  52.517  1.00  0.00     0.227 C 
HETATM   13  O   UNL     1      25.563  43.877  52.893  1.00  0.00    -0.273 OA
HETATM   14  H   UNL     1      27.564  46.294  52.371  1.00  0.00     0.169 HD
BRANCH  12  15
HETATM   15  C   UNL     1      25.193  45.830  51.703  1.00  0.00     0.087 A 
HETATM   16  C   UNL     1      25.580  45.949  50.231  1.00  0.00     0.032 A 
HETATM   17  C   UNL     1      24.217  45.452  50.624  1.00  0.00     0.025 A 
BRANCH  16  18
HETATM   18  C   UNL     1      25.846  47.327  49.683  1.00  0.00    -0.051 A 
HETATM   19  C   UNL     1      24.816  48.184  49.268  1.00  0.00     0.031 A 
HETATM   20  C   UNL     1      25.105  49.440  48.727  1.00  0.00     0.034 A 
HETATM   21  C   UNL     1      26.423  49.864  48.581  1.00  0.00     0.024 A 
HETATM   22 CL   UNL     1      23.819  50.470  48.230  1.00  0.00    -0.084 Cl
HETATM   23  C   UNL     1      27.460  49.027  48.981  1.00  0.00     0.002 A 
HETATM   24  C   UNL     1      27.170  47.775  49.525  1.00  0.00     0.007 A 
ENDBRANCH  16  18
ENDBRANCH  12  15
ENDBRANCH   1  11
BRANCH   8  25
HETATM   25  C   UNL     1      29.952  45.884  57.896  1.00  0.00     0.270 C 
HETATM   26  N   UNL     1      31.047  46.363  58.562  1.00  0.00    -0.365 N 
HETATM   27  H   UNL     1      31.957  45.979  58.337  1.00  0.00     0.159 HD
HETATM   28  H   UNL     1      30.929  47.071  59.269  1.00  0.00     0.159 HD
HETATM   29  O   UNL     1      28.827  46.310  58.139  1.00  0.00    -0.266 OA
ENDBRANCH   8  25
TORSDOF 4
ENDMDL
MODEL 5
REMARK VINA RESULT:      -9.1      4.106      9.161
REMARK  4 active torsions:
REMARK  status: ('A' for Active; 'I' for Inactive)
REMARK    1  A    between atoms: C_6  and  C_7 
REMARK    2  A    between atoms: C_8  and  C_9 
REMARK       I    between atoms: C_9  and  N_10 
REMARK    3  A    between atoms: N_10  and  C_11 
REMARK    4  A    between atoms: C_18  and  C_19 
REMARK       I    between atoms: C_19  and  N_20 
ROOT
HETATM    1  C   UNL     1      24.631  46.790  50.626  1.00  0.00     0.035 A 
HETATM    2  C   UNL     1      25.240  47.088  51.852  1.00  0.00     0.046 A 
HETATM    3  C   UNL     1      26.044  46.120  52.490  1.00  0.00     0.030 A 
HETATM    4  C   UNL     1      26.214  44.884  51.880  1.00  0.00     0.063 A 
HETATM    5  N   UNL     1      27.037  44.180  52.715  1.00  0.00    -0.277 N 
HETATM    6  H   UNL     1      27.380  43.235  52.584  1.00  0.00     0.189 HD
HETATM    7  N   UNL     1      27.409  44.844  53.821  1.00  0.00    -0.168 NA
HETATM    8  C   UNL     1      26.801  46.045  53.698  1.00  0.00     0.156 A 
HETATM    9  C   UNL     1      25.618  44.547  50.663  1.00  0.00     0.034 A 
HETATM   10  C   UNL     1      24.820  45.525  50.054  1.00  0.00     0.032 A 
ENDROOT
BRANCH   1  11
HETATM   11  N   UNL     1      23.837  47.706  49.904  1.00  0.00    -0.327 N 
HETATM   12  C   UNL     1      24.281  48.710  49.070  1.00  0.00     0.227 C 
HETATM   13  O   UNL     1      25.436  49.041  48.856  1.00  0.00    -0.273 OA
HETATM   14  H   UNL     1      22.839  47.582  49.970  1.00  0.00     0.169 HD
BRANCH  12  15
HETATM   15  C   UNL     1      23.215  49.446  48.337  1.00  0.00     0.087 A 
HETATM   16  C   UNL     1      22.674  50.687  49.043  1.00  0.00     0.032 A 
HETATM   17  C   UNL     1      23.304  50.795  47.682  1.00  0.00     0.025 A 
BRANCH  16  18
HETATM   18  C   UNL     1      21.191  50.765  49.290  1.00  0.00    -0.051 A 
HETATM   19  C   UNL     1      20.513  49.847  50.104  1.00  0.00     0.031 A 
HETATM   20  C   UNL     1      19.128  49.929  50.277  1.00  0.00     0.034 A 
HETATM   21  C   UNL     1      18.391  50.922  49.638  1.00  0.00     0.024 A 
HETATM   22 CL   UNL     1      18.326  48.788  51.284  1.00  0.00    -0.084 Cl
HETATM   23  C   UNL     1      19.043  51.841  48.821  1.00  0.00     0.002 A 
HETATM   24  C   UNL     1      20.426  51.760  48.653  1.00  0.00     0.007 A 
ENDBRANCH  16  18
ENDBRANCH  12  15
ENDBRANCH   1  11
BRANCH   8  25
HETATM   25  C   UNL     1      26.954  47.086  54.724  1.00  0.00     0.270 C 
HETATM   26  N   UNL     1      28.254  47.417  54.995  1.00  0.00    -0.365 N 
HETATM   27  H   UNL     1      28.991  46.937  54.495  1.00  0.00     0.159 HD
HETATM   28  H   UNL     1      28.454  48.116  55.693  1.00  0.00     0.159 HD
HETATM   29  O   UNL     1      26.026  47.633  55.311  1.00  0.00    -0.266 OA
ENDBRANCH   8  25
TORSDOF 4
ENDMDL
MODEL 6
REMARK VINA RESULT:      -9.1      1.884      3.111
REMARK  4 active torsions:
REMARK  status: ('A' for Active; 'I' for Inactive)
REMARK    1  A    between atoms: C_6  and  C_7 
REMARK    2  A    between atoms: C_8  and  C_9 
REMARK       I    between atoms: C_9  and  N_10 
REMARK    3  A    between atoms: N_10  and  C_11 
REMARK    4  A    between atoms: C_18  and  C_19 
REMARK       I    between atoms: C_19  and  N_20 
ROOT
HETATM    1  C   UNL     1      23.857  48.517  48.901  1.00  0.00     0.035 A 
HETATM    2  C   UNL     1      22.523  48.163  49.144  1.00  0.00     0.046 A 
HETATM    3  C   UNL     1      21.484  49.029  48.740  1.00  0.00     0.030 A 
HETATM    4  C   UNL     1      21.813  50.220  48.107  1.00  0.00     0.063 A 
HETATM    5  N   UNL     1      20.618  50.825  47.833  1.00  0.00    -0.277 N 
HETATM    6  H   UNL     1      20.473  51.714  47.367  1.00  0.00     0.189 HD
HETATM    7  N   UNL     1      19.538  50.138  48.241  1.00  0.00    -0.168 NA
HETATM    8  C   UNL     1      20.058  49.024  48.807  1.00  0.00     0.156 A 
HETATM    9  C   UNL     1      23.130  50.610  47.856  1.00  0.00     0.034 A 
HETATM   10  C   UNL     1      24.143  49.735  48.272  1.00  0.00     0.032 A 
ENDROOT
BRANCH   1  11
HETATM   11  N   UNL     1      24.957  47.700  49.242  1.00  0.00    -0.327 N 
HETATM   12  C   UNL     1      25.359  47.340  50.510  1.00  0.00     0.227 C 
HETATM   13  O   UNL     1      24.890  47.714  51.573  1.00  0.00    -0.273 OA
HETATM   14  H   UNL     1      25.473  47.301  48.474  1.00  0.00     0.169 HD
BRANCH  12  15
HETATM   15  C   UNL     1      26.480  46.362  50.568  1.00  0.00     0.087 A 
HETATM   16  C   UNL     1      26.185  45.074  51.331  1.00  0.00     0.032 A 
HETATM   17  C   UNL     1      26.581  45.029  49.882  1.00  0.00     0.025 A 
BRANCH  16  18
HETATM   18  C   UNL     1      27.104  44.702  52.465  1.00  0.00    -0.051 A 
HETATM   19  C   UNL     1      28.251  43.917  52.279  1.00  0.00     0.031 A 
HETATM   20  C   UNL     1      29.057  43.559  53.363  1.00  0.00     0.034 A 
HETATM   21  C   UNL     1      28.734  43.969  54.654  1.00  0.00     0.024 A 
HETATM   22 CL   UNL     1      30.459  42.596  53.101  1.00  0.00    -0.084 Cl
HETATM   23  C   UNL     1      27.598  44.745  54.861  1.00  0.00     0.002 A 
HETATM   24  C   UNL     1      26.796  45.104  53.777  1.00  0.00     0.007 A 
ENDBRANCH  16  18
ENDBRANCH  12  15
ENDBRANCH   1  11
BRANCH   8  25
HETATM   25  C   UNL     1      19.192  47.991  49.392  1.00  0.00     0.270 C 
HETATM   26  N   UNL     1      19.024  48.103  50.745  1.00  0.00    -0.365 N 
HETATM   27  H   UNL     1      19.494  48.856  51.232  1.00  0.00     0.159 HD
HETATM   28  H   UNL     1      18.452  47.433  51.233  1.00  0.00     0.159 HD
HETATM   29  O   UNL     1      18.651  47.090  48.760  1.00  0.00    -0.266 OA
ENDBRANCH   8  25
TORSDOF 4
ENDMDL
MODEL 7
REMARK VINA RESULT:      -9.0      2.321      2.944
REMARK  4 active torsions:
REMARK  status: ('A' for Active; 'I' for Inactive)
REMARK    1  A    between atoms: C_6  and  C_7 
REMARK    2  A    between atoms: C_8  and  C_9 
REMARK       I    between atoms: C_9  and  N_10 
REMARK    3  A    between atoms: N_10  and  C_11 
REMARK    4  A    between atoms: C_18  and  C_19 
REMARK       I    between atoms: C_19  and  N_20 
ROOT
HETATM    1  C   UNL     1      25.790  46.206  50.494  1.00  0.00     0.035 A 
HETATM    2  C   UNL     1      24.597  45.704  49.957  1.00  0.00     0.046 A 
HETATM    3  C   UNL     1      23.742  46.558  49.229  1.00  0.00     0.030 A 
HETATM    4  C   UNL     1      24.109  47.887  49.061  1.00  0.00     0.063 A 
HETATM    5  N   UNL     1      23.106  48.446  48.318  1.00  0.00    -0.277 N 
HETATM    6  H   UNL     1      23.042  49.406  47.998  1.00  0.00     0.189 HD
HETATM    7  N   UNL     1      22.112  47.602  47.996  1.00  0.00    -0.168 NA
HETATM    8  C   UNL     1      22.490  46.429  48.555  1.00  0.00     0.156 A 
HETATM    9  C   UNL     1      25.285  48.425  49.587  1.00  0.00     0.034 A 
HETATM   10  C   UNL     1      26.113  47.557  50.311  1.00  0.00     0.032 A 
ENDROOT
BRANCH   1  11
HETATM   11  N   UNL     1      26.718  45.418  51.209  1.00  0.00    -0.327 N 
HETATM   12  C   UNL     1      27.357  44.282  50.762  1.00  0.00     0.227 C 
HETATM   13  O   UNL     1      27.190  43.704  49.700  1.00  0.00    -0.273 OA
HETATM   14  H   UNL     1      26.974  45.750  52.126  1.00  0.00     0.169 HD
BRANCH  12  15
HETATM   15  C   UNL     1      28.384  43.726  51.685  1.00  0.00     0.087 A 
HETATM   16  C   UNL     1      27.922  43.515  53.125  1.00  0.00     0.032 A 
HETATM   17  C   UNL     1      28.425  42.358  52.307  1.00  0.00     0.025 A 
BRANCH  16  18
HETATM   18  C   UNL     1      28.715  44.175  54.222  1.00  0.00    -0.051 A 
HETATM   19  C   UNL     1      29.767  43.528  54.886  1.00  0.00     0.031 A 
HETATM   20  C   UNL     1      30.453  44.161  55.927  1.00  0.00     0.034 A 
HETATM   21  C   UNL     1      30.100  45.445  56.332  1.00  0.00     0.024 A 
HETATM   22 CL   UNL     1      31.741  43.340  56.720  1.00  0.00    -0.084 Cl
HETATM   23  C   UNL     1      29.056  46.103  55.690  1.00  0.00     0.002 A 
HETATM   24  C   UNL     1      28.375  45.472  54.648  1.00  0.00     0.007 A 
ENDBRANCH  16  18
ENDBRANCH  12  15
ENDBRANCH   1  11
BRANCH   8  25
HETATM   25  C   UNL     1      21.658  45.224  48.435  1.00  0.00     0.270 C 
HETATM   26  N   UNL     1      20.992  44.888  49.581  1.00  0.00    -0.365 N 
HETATM   27  H   UNL     1      21.118  45.466  50.403  1.00  0.00     0.159 HD
HETATM   28  H   UNL     1      20.403  44.070  49.594  1.00  0.00     0.159 HD
HETATM   29  O   UNL     1      21.545  44.550  47.417  1.00  0.00    -0.266 OA
ENDBRANCH   8  25
TORSDOF 4
ENDMDL
MODEL 8
REMARK VINA RESULT:      -8.9      2.178      2.995
REMARK  4 active torsions:
REMARK  status: ('A' for Active; 'I' for Inactive)
REMARK    1  A    between atoms: C_6  and  C_7 
REMARK    2  A    between atoms: C_8  and  C_9 
REMARK       I    between atoms: C_9  and  N_10 
REMARK    3  A    between atoms: N_10  and  C_11 
REMARK    4  A    between atoms: C_18  and  C_19 
REMARK       I    between atoms: C_19  and  N_20 
ROOT
HETATM    1  C   UNL     1      25.255  45.629  49.868  1.00  0.00     0.035 A 
HETATM    2  C   UNL     1      24.697  46.914  49.873  1.00  0.00     0.046 A 
HETATM    3  C   UNL     1      23.492  47.157  49.179  1.00  0.00     0.030 A 
HETATM    4  C   UNL     1      22.886  46.108  48.502  1.00  0.00     0.063 A 
HETATM    5  N   UNL     1      21.755  46.640  47.949  1.00  0.00    -0.277 N 
HETATM    6  H   UNL     1      21.061  46.159  47.387  1.00  0.00     0.189 HD
HETATM    7  N   UNL     1      21.576  47.949  48.196  1.00  0.00    -0.168 NA
HETATM    8  C   UNL     1      22.644  48.284  48.955  1.00  0.00     0.156 A 
HETATM    9  C   UNL     1      23.416  44.816  48.467  1.00  0.00     0.034 A 
HETATM   10  C   UNL     1      24.616  44.603  49.160  1.00  0.00     0.032 A 
ENDROOT
BRANCH   1  11
HETATM   11  N   UNL     1      26.438  45.288  50.559  1.00  0.00    -0.327 N 
HETATM   12  C   UNL     1      26.543  44.485  51.674  1.00  0.00     0.227 C 
HETATM   13  O   UNL     1      25.636  43.979  52.314  1.00  0.00    -0.273 OA
HETATM   14  H   UNL     1      27.300  45.631  50.165  1.00  0.00     0.169 HD
BRANCH  12  15
HETATM   15  C   UNL     1      27.934  44.193  52.117  1.00  0.00     0.087 A 
HETATM   16  C   UNL     1      28.057  43.517  53.480  1.00  0.00     0.032 A 
HETATM   17  C   UNL     1      28.602  42.852  52.247  1.00  0.00     0.025 A 
BRANCH  16  18
HETATM   18  C   UNL     1      28.914  44.185  54.522  1.00  0.00    -0.051 A 
HETATM   19  C   UNL     1      29.979  43.529  55.156  1.00  0.00     0.031 A 
HETATM   20  C   UNL     1      30.727  44.171  56.148  1.00  0.00     0.034 A 
HETATM   21  C   UNL     1      30.424  45.474  56.534  1.00  0.00     0.024 A 
HETATM   22 CL   UNL     1      32.029  43.339  56.905  1.00  0.00    -0.084 Cl
HETATM   23  C   UNL     1      29.367  46.141  55.922  1.00  0.00     0.002 A 
HETATM   24  C   UNL     1      28.625  45.501  54.929  1.00  0.00     0.007 A 
ENDBRANCH  16  18
ENDBRANCH  12  15
ENDBRANCH   1  11
BRANCH   8  25
HETATM   25  C   UNL     1      22.831  49.657  49.445  1.00  0.00     0.270 C 
HETATM   26  N   UNL     1      21.767  50.148  50.150  1.00  0.00    -0.365 N 
HETATM   27  H   UNL     1      20.954  49.558  50.276  1.00  0.00     0.159 HD
HETATM   28  H   UNL     1      21.804  51.086  50.517  1.00  0.00     0.159 HD
HETATM   29  O   UNL     1      23.835  50.337  49.257  1.00  0.00    -0.266 OA
ENDBRANCH   8  25
TORSDOF 4
ENDMDL
MODEL 9
REMARK VINA RESULT:      -8.8      4.208      9.100
REMARK  4 active torsions:
REMARK  status: ('A' for Active; 'I' for Inactive)
REMARK    1  A    between atoms: C_6  and  C_7 
REMARK    2  A    between atoms: C_8  and  C_9 
REMARK       I    between atoms: C_9  and  N_10 
REMARK    3  A    between atoms: N_10  and  C_11 
REMARK    4  A    between atoms: C_18  and  C_19 
REMARK       I    between atoms: C_19  and  N_20 
ROOT
HETATM    1  C   UNL     1      24.849  46.731  50.986  1.00  0.00     0.035 A 
HETATM    2  C   UNL     1      25.181  45.410  50.658  1.00  0.00     0.046 A 
HETATM    3  C   UNL     1      25.995  44.655  51.530  1.00  0.00     0.030 A 
HETATM    4  C   UNL     1      26.450  45.247  52.701  1.00  0.00     0.063 A 
HETATM    5  N   UNL     1      27.189  44.283  53.329  1.00  0.00    -0.277 N 
HETATM    6  H   UNL     1      27.670  44.360  54.218  1.00  0.00     0.189 HD
HETATM    7  N   UNL     1      27.265  43.117  52.665  1.00  0.00    -0.168 NA
HETATM    8  C   UNL     1      26.533  43.333  51.548  1.00  0.00     0.156 A 
HETATM    9  C   UNL     1      26.147  46.563  53.057  1.00  0.00     0.034 A 
HETATM   10  C   UNL     1      25.342  47.292  52.171  1.00  0.00     0.032 A 
ENDROOT
BRANCH   1  11
HETATM   11  N   UNL     1      24.018  47.549  50.190  1.00  0.00    -0.327 N 
HETATM   12  C   UNL     1      24.414  48.582  49.369  1.00  0.00     0.227 C 
HETATM   13  O   UNL     1      25.541  49.031  49.230  1.00  0.00    -0.273 OA
HETATM   14  H   UNL     1      23.036  47.320  50.187  1.00  0.00     0.169 HD
BRANCH  12  15
HETATM   15  C   UNL     1      23.333  49.191  48.547  1.00  0.00     0.087 A 
HETATM   16  C   UNL     1      22.803  50.530  49.052  1.00  0.00     0.032 A 
HETATM   17  C   UNL     1      23.407  50.417  47.680  1.00  0.00     0.025 A 
BRANCH  16  18
HETATM   18  C   UNL     1      21.324  50.649  49.311  1.00  0.00    -0.051 A 
HETATM   19  C   UNL     1      20.629  49.754  50.137  1.00  0.00     0.031 A 
HETATM   20  C   UNL     1      19.249  49.873  50.321  1.00  0.00     0.034 A 
HETATM   21  C   UNL     1      18.531  50.880  49.680  1.00  0.00     0.024 A 
HETATM   22 CL   UNL     1      18.426  48.760  51.344  1.00  0.00    -0.084 Cl
HETATM   23  C   UNL     1      19.201  51.775  48.851  1.00  0.00     0.002 A 
HETATM   24  C   UNL     1      20.580  51.657  48.672  1.00  0.00     0.007 A 
ENDBRANCH  16  18
ENDBRANCH  12  15
ENDBRANCH   1  11
BRANCH   8  25
HETATM   25  C   UNL     1      26.363  42.284  50.533  1.00  0.00     0.270 C 
HETATM   26  N   UNL     1      25.956  41.079  51.037  1.00  0.00    -0.365 N 
HETATM   27  H   UNL     1      25.811  40.995  52.035  1.00  0.00     0.159 HD
HETATM   28  H   UNL     1      25.822  40.298  50.414  1.00  0.00     0.159 HD
HETATM   29  O   UNL     1      26.562  42.433  49.332  1.00  0.00    -0.266 OA
ENDBRANCH   8  25
TORSDOF 4
ENDMDL
MODEL 10
REMARK VINA RESULT:      -8.7      4.128      5.656
REMARK  4 active torsions:
REMARK  status: ('A' for Active; 'I' for Inactive)
REMARK    1  A    between atoms: C_6  and  C_7 
REMARK    2  A    between atoms: C_8  and  C_9 
REMARK       I    between atoms: C_9  and  N_10 
REMARK    3  A    between atoms: N_10  and  C_11 
REMARK    4  A    between atoms: C_18  and  C_19 
REMARK       I    between atoms: C_19  and  N_20 
ROOT
HETATM    1  C   UNL     1      26.037  45.007  51.542  1.00  0.00     0.035 A 
HETATM    2  C   UNL     1      26.402  43.707  51.172  1.00  0.00     0.046 A 
HETATM    3  C   UNL     1      25.878  43.142  49.989  1.00  0.00     0.030 A 
HETATM    4  C   UNL     1      25.006  43.897  49.216  1.00  0.00     0.063 A 
HETATM    5  N   UNL     1      24.686  43.101  48.152  1.00  0.00    -0.277 N 
HETATM    6  H   UNL     1      24.073  43.329  47.377  1.00  0.00     0.189 HD
HETATM    7  N   UNL     1      25.263  41.888  48.168  1.00  0.00    -0.168 NA
HETATM    8  C   UNL     1      26.003  41.897  49.301  1.00  0.00     0.156 A 
HETATM    9  C   UNL     1      24.613  45.193  49.557  1.00  0.00     0.034 A 
HETATM   10  C   UNL     1      25.144  45.728  50.739  1.00  0.00     0.032 A 
ENDROOT
BRANCH   1  11
HETATM   11  N   UNL     1      26.535  45.662  52.690  1.00  0.00    -0.327 N 
HETATM   12  C   UNL     1      26.357  45.281  54.002  1.00  0.00     0.227 C 
HETATM   13  O   UNL     1      25.682  44.356  54.423  1.00  0.00    -0.273 OA
HETATM   14  H   UNL     1      27.120  46.466  52.527  1.00  0.00     0.169 HD
BRANCH  12  15
HETATM   15  C   UNL     1      27.104  46.090  55.005  1.00  0.00     0.087 A 
HETATM   16  C   UNL     1      28.624  46.064  54.864  1.00  0.00     0.032 A 
HETATM   17  C   UNL     1      27.871  47.363  54.781  1.00  0.00     0.025 A 
BRANCH  16  18
HETATM   18  C   UNL     1      29.434  45.638  56.059  1.00  0.00    -0.051 A 
HETATM   19  C   UNL     1      30.387  44.610  55.995  1.00  0.00     0.031 A 
HETATM   20  C   UNL     1      31.091  44.216  57.137  1.00  0.00     0.034 A 
HETATM   21  C   UNL     1      30.856  44.830  58.364  1.00  0.00     0.024 A 
HETATM   22 CL   UNL     1      32.255  42.953  57.025  1.00  0.00    -0.084 Cl
HETATM   23  C   UNL     1      29.911  45.848  58.450  1.00  0.00     0.002 A 
HETATM   24  C   UNL     1      29.212  46.244  57.309  1.00  0.00     0.007 A 
ENDBRANCH  16  18
ENDBRANCH  12  15
ENDBRANCH   1  11
BRANCH   8  25
HETATM   25  C   UNL     1      26.804  40.731  49.698  1.00  0.00     0.270 C 
HETATM   26  N   UNL     1      26.064  39.622  50.002  1.00  0.00    -0.365 N 
HETATM   27  H   UNL     1      25.055  39.680  49.942  1.00  0.00     0.159 HD
HETATM   28  H   UNL     1      26.530  38.777  50.293  1.00  0.00     0.159 HD
HETATM   29  O   UNL     1      28.028  40.713  49.765  1.00  0.00    -0.266 OA
ENDBRANCH   8  25
TORSDOF 4
ENDMDL
