MODEL 1
REMARK VINA RESULT:     -10.7      0.000      0.000
REMARK  3 active torsions:
REMARK  status: ('A' for Active; 'I' for Inactive)
REMARK    1  A    between atoms: C_3  and  N_4 
REMARK       I    between atoms: N_4  and  C_5 
REMARK    2  A    between atoms: C_5  and  C_6 
REMARK    3  A    between atoms: C_6  and  N_7 
ROOT
HETATM    1  N   UNL     1      26.965  45.328  53.300  1.00  0.00    -0.224 N 
HETATM    2  N   UNL     1      27.742  44.226  52.883  1.00  0.00    -0.180 NA
HETATM    3  C   UNL     1      28.750  43.833  53.608  1.00  0.00     0.153 A 
HETATM    4  C   UNL     1      29.070  44.492  54.840  1.00  0.00     0.028 A 
HETATM    5  C   UNL     1      28.293  45.547  55.249  1.00  0.00     0.116 A 
HETATM    6  N   UNL     1      28.776  45.997  56.444  1.00  0.00    -0.350 N 
HETATM    7  H   UNL     1      28.382  46.763  56.974  1.00  0.00     0.166 HD
HETATM    8  C   UNL     1      29.862  45.232  56.821  1.00  0.00     0.044 A 
HETATM    9  C   UNL     1      30.069  44.274  55.822  1.00  0.00     0.005 A 
HETATM   10  C   UNL     1      30.665  45.312  57.965  1.00  0.00     0.030 A 
HETATM   11  C   UNL     1      31.705  44.386  58.093  1.00  0.00     0.002 A 
HETATM   12  C   UNL     1      31.934  43.421  57.114  1.00  0.00     0.001 A 
HETATM   13  C   UNL     1      31.125  43.354  55.973  1.00  0.00     0.014 A 
HETATM   14  C   UNL     1      27.162  46.026  54.509  1.00  0.00     0.291 A 
HETATM   15  O   UNL     1      26.456  46.949  54.897  1.00  0.00    -0.264 OA
ENDROOT
BRANCH   1  16
HETATM   16  C   UNL     1      25.739  45.564  52.557  1.00  0.00     0.258 C 
BRANCH  16  17
HETATM   17  C   UNL     1      25.547  46.827  51.700  1.00  0.00     0.244 C 
HETATM   18  N   UNL     1      25.712  46.774  50.312  1.00  0.00    -0.320 N 
HETATM   19  C   UNL     1      26.505  45.762  49.629  1.00  0.00     0.159 C 
HETATM   20  O   UNL     1      25.074  47.824  52.267  1.00  0.00    -0.271 OA
BRANCH  18  21
HETATM   21  C   UNL     1      25.242  47.863  49.510  1.00  0.00     0.042 A 
HETATM   22  C   UNL     1      26.114  48.857  49.020  1.00  0.00    -0.035 A 
HETATM   23  C   UNL     1      27.589  48.886  49.323  1.00  0.00     0.050 C 
HETATM   24  C   UNL     1      25.594  49.890  48.219  1.00  0.00     0.009 A 
HETATM   25  C   UNL     1      24.230  49.965  47.939  1.00  0.00     0.001 A 
HETATM   26  C   UNL     1      23.365  49.004  48.454  1.00  0.00     0.002 A 
HETATM   27  C   UNL     1      23.867  47.964  49.236  1.00  0.00     0.030 A 
ENDBRANCH  18  21
ENDBRANCH  16  17
ENDBRANCH   1  16
TORSDOF 3
ENDMDL
MODEL 2
REMARK VINA RESULT:     -10.1      1.242      2.238
REMARK  3 active torsions:
REMARK  status: ('A' for Active; 'I' for Inactive)
REMARK    1  A    between atoms: C_3  and  N_4 
REMARK       I    between atoms: N_4  and  C_5 
REMARK    2  A    between atoms: C_5  and  C_6 
REMARK    3  A    between atoms: C_6  and  N_7 
ROOT
HETATM    1  N   UNL     1      26.668  45.199  53.585  1.00  0.00    -0.224 N 
HETATM    2  N   UNL     1      26.699  46.194  54.586  1.00  0.00    -0.180 NA
HETATM    3  C   UNL     1      27.619  46.157  55.507  1.00  0.00     0.153 A 
HETATM    4  C   UNL     1      28.618  45.130  55.506  1.00  0.00     0.028 A 
HETATM    5  C   UNL     1      28.594  44.182  54.514  1.00  0.00     0.116 A 
HETATM    6  N   UNL     1      29.640  43.327  54.711  1.00  0.00    -0.350 N 
HETATM    7  H   UNL     1      29.863  42.539  54.117  1.00  0.00     0.166 HD
HETATM    8  C   UNL     1      30.355  43.721  55.826  1.00  0.00     0.044 A 
HETATM    9  C   UNL     1      29.727  44.858  56.348  1.00  0.00     0.005 A 
HETATM   10  C   UNL     1      31.503  43.165  56.402  1.00  0.00     0.030 A 
HETATM   11  C   UNL     1      32.025  43.789  57.539  1.00  0.00     0.002 A 
HETATM   12  C   UNL     1      31.422  44.923  58.079  1.00  0.00     0.001 A 
HETATM   13  C   UNL     1      30.271  45.468  57.495  1.00  0.00     0.014 A 
HETATM   14  C   UNL     1      27.619  44.167  53.463  1.00  0.00     0.291 A 
HETATM   15  O   UNL     1      27.623  43.334  52.565  1.00  0.00    -0.264 OA
ENDROOT
BRANCH   1  16
HETATM   16  C   UNL     1      25.753  45.432  52.480  1.00  0.00     0.258 C 
BRANCH  16  17
HETATM   17  C   UNL     1      25.772  46.749  51.684  1.00  0.00     0.244 C 
HETATM   18  N   UNL     1      26.124  46.754  50.330  1.00  0.00    -0.320 N 
HETATM   19  C   UNL     1      26.931  45.720  49.700  1.00  0.00     0.159 C 
HETATM   20  O   UNL     1      25.295  47.749  52.242  1.00  0.00    -0.271 OA
BRANCH  18  21
HETATM   21  C   UNL     1      25.846  47.915  49.540  1.00  0.00     0.042 A 
HETATM   22  C   UNL     1      24.548  48.201  49.069  1.00  0.00    -0.035 A 
HETATM   23  C   UNL     1      23.362  47.306  49.316  1.00  0.00     0.050 C 
HETATM   24  C   UNL     1      24.336  49.370  48.315  1.00  0.00     0.009 A 
HETATM   25  C   UNL     1      25.393  50.222  47.996  1.00  0.00     0.001 A 
HETATM   26  C   UNL     1      26.679  49.919  48.430  1.00  0.00     0.002 A 
HETATM   27  C   UNL     1      26.904  48.772  49.193  1.00  0.00     0.030 A 
ENDBRANCH  18  21
ENDBRANCH  16  17
ENDBRANCH   1  16
TORSDOF 3
ENDMDL
MODEL 3
REMARK VINA RESULT:      -9.7      2.361      3.634
REMARK  3 active torsions:
REMARK  status: ('A' for Active; 'I' for Inactive)
REMARK    1  A    between atoms: C_3  and  N_4 
REMARK       I    between atoms: N_4  and  C_5 
REMARK    2  A    between atoms: C_5  and  C_6 
REMARK    3  A    between atoms: C_6  and  N_7 
ROOT
HETATM    1  N   UNL     1      26.943  45.690  53.280  1.00  0.00    -0.224 N 
HETATM    2  N   UNL     1      27.628  44.523  52.879  1.00  0.00    -0.180 NA
HETATM    3  C   UNL     1      28.606  44.063  53.606  1.00  0.00     0.153 A 
HETATM    4  C   UNL     1      28.983  44.715  54.825  1.00  0.00     0.028 A 
HETATM    5  C   UNL     1      28.295  45.835  55.220  1.00  0.00     0.116 A 
HETATM    6  N   UNL     1      28.818  46.266  56.405  1.00  0.00    -0.350 N 
HETATM    7  H   UNL     1      28.489  47.069  56.924  1.00  0.00     0.166 HD
HETATM    8  C   UNL     1      29.842  45.423  56.791  1.00  0.00     0.044 A 
HETATM    9  C   UNL     1      29.968  44.435  55.807  1.00  0.00     0.005 A 
HETATM   10  C   UNL     1      30.655  45.458  57.930  1.00  0.00     0.030 A 
HETATM   11  C   UNL     1      31.619  44.454  58.069  1.00  0.00     0.002 A 
HETATM   12  C   UNL     1      31.765  43.458  57.106  1.00  0.00     0.001 A 
HETATM   13  C   UNL     1      30.947  43.436  55.970  1.00  0.00     0.014 A 
HETATM   14  C   UNL     1      27.202  46.390  54.476  1.00  0.00     0.291 A 
HETATM   15  O   UNL     1      26.574  47.373  54.851  1.00  0.00    -0.264 OA
ENDROOT
BRANCH   1  16
HETATM   16  C   UNL     1      25.736  46.010  52.538  1.00  0.00     0.258 C 
BRANCH  16  17
HETATM   17  C   UNL     1      24.979  44.941  51.732  1.00  0.00     0.244 C 
HETATM   18  N   UNL     1      25.265  44.739  50.378  1.00  0.00    -0.320 N 
HETATM   19  C   UNL     1      25.872  45.746  49.520  1.00  0.00     0.159 C 
HETATM   20  O   UNL     1      24.252  44.165  52.372  1.00  0.00    -0.271 OA
BRANCH  18  21
HETATM   21  C   UNL     1      24.780  43.558  49.729  1.00  0.00     0.042 A 
HETATM   22  C   UNL     1      25.570  42.395  49.615  1.00  0.00    -0.035 A 
HETATM   23  C   UNL     1      26.985  42.303  50.121  1.00  0.00     0.050 C 
HETATM   24  C   UNL     1      25.028  41.260  48.985  1.00  0.00     0.009 A 
HETATM   25  C   UNL     1      23.744  41.283  48.440  1.00  0.00     0.001 A 
HETATM   26  C   UNL     1      22.981  42.443  48.520  1.00  0.00     0.002 A 
HETATM   27  C   UNL     1      23.497  43.573  49.157  1.00  0.00     0.030 A 
ENDBRANCH  18  21
ENDBRANCH  16  17
ENDBRANCH   1  16
TORSDOF 3
ENDMDL
MODEL 4
REMARK VINA RESULT:      -9.7      2.228      2.982
REMARK  3 active torsions:
REMARK  status: ('A' for Active; 'I' for Inactive)
REMARK    1  A    between atoms: C_3  and  N_4 
REMARK       I    between atoms: N_4  and  C_5 
REMARK    2  A    between atoms: C_5  and  C_6 
REMARK    3  A    between atoms: C_6  and  N_7 
ROOT
HETATM    1  N   UNL     1      27.997  43.636  52.476  1.00  0.00    -0.224 N 
HETATM    2  N   UNL     1      27.437  44.808  53.029  1.00  0.00    -0.180 NA
HETATM    3  C   UNL     1      27.886  45.269  54.160  1.00  0.00     0.153 A 
HETATM    4  C   UNL     1      28.962  44.615  54.845  1.00  0.00     0.028 A 
HETATM    5  C   UNL     1      29.517  43.491  54.287  1.00  0.00     0.116 A 
HETATM    6  N   UNL     1      30.522  43.058  55.102  1.00  0.00    -0.350 N 
HETATM    7  H   UNL     1      31.106  42.251  54.923  1.00  0.00     0.166 HD
HETATM    8  C   UNL     1      30.632  43.904  56.189  1.00  0.00     0.044 A 
HETATM    9  C   UNL     1      29.655  44.896  56.050  1.00  0.00     0.005 A 
HETATM   10  C   UNL     1      31.520  43.869  57.271  1.00  0.00     0.030 A 
HETATM   11  C   UNL     1      31.408  44.876  58.234  1.00  0.00     0.002 A 
HETATM   12  C   UNL     1      30.445  45.877  58.121  1.00  0.00     0.001 A 
HETATM   13  C   UNL     1      29.561  45.899  57.035  1.00  0.00     0.014 A 
HETATM   14  C   UNL     1      29.081  42.933  53.040  1.00  0.00     0.291 A 
HETATM   15  O   UNL     1      29.602  41.946  52.534  1.00  0.00    -0.264 OA
ENDROOT
BRANCH   1  16
HETATM   16  C   UNL     1      27.594  43.313  51.118  1.00  0.00     0.258 C 
BRANCH  16  17
HETATM   17  C   UNL     1      26.702  44.260  50.296  1.00  0.00     0.244 C 
HETATM   18  N   UNL     1      25.336  44.368  50.574  1.00  0.00    -0.320 N 
HETATM   19  C   UNL     1      24.563  43.335  51.250  1.00  0.00     0.159 C 
HETATM   20  O   UNL     1      27.276  45.036  49.517  1.00  0.00    -0.271 OA
BRANCH  18  21
HETATM   21  C   UNL     1      24.592  45.456  50.016  1.00  0.00     0.042 A 
HETATM   22  C   UNL     1      24.693  46.767  50.529  1.00  0.00    -0.035 A 
HETATM   23  C   UNL     1      25.548  47.126  51.715  1.00  0.00     0.050 C 
HETATM   24  C   UNL     1      23.953  47.798  49.922  1.00  0.00     0.009 A 
HETATM   25  C   UNL     1      23.095  47.535  48.854  1.00  0.00     0.001 A 
HETATM   26  C   UNL     1      22.968  46.235  48.374  1.00  0.00     0.002 A 
HETATM   27  C   UNL     1      23.709  45.204  48.953  1.00  0.00     0.030 A 
ENDBRANCH  18  21
ENDBRANCH  16  17
ENDBRANCH   1  16
TORSDOF 3
ENDMDL
MODEL 5
REMARK VINA RESULT:      -9.5      2.084      8.981
REMARK  3 active torsions:
REMARK  status: ('A' for Active; 'I' for Inactive)
REMARK    1  A    between atoms: C_3  and  N_4 
REMARK       I    between atoms: N_4  and  C_5 
REMARK    2  A    between atoms: C_5  and  C_6 
REMARK    3  A    between atoms: C_6  and  N_7 
ROOT
HETATM    1  N   UNL     1      25.367  45.460  50.277  1.00  0.00    -0.224 N 
HETATM    2  N   UNL     1      26.185  46.610  50.288  1.00  0.00    -0.180 NA
HETATM    3  C   UNL     1      25.701  47.753  49.892  1.00  0.00     0.153 A 
HETATM    4  C   UNL     1      24.338  47.864  49.464  1.00  0.00     0.028 A 
HETATM    5  C   UNL     1      23.544  46.745  49.482  1.00  0.00     0.116 A 
HETATM    6  N   UNL     1      22.297  47.098  49.052  1.00  0.00    -0.350 N 
HETATM    7  H   UNL     1      21.511  46.465  48.977  1.00  0.00     0.166 HD
HETATM    8  C   UNL     1      22.272  48.448  48.763  1.00  0.00     0.044 A 
HETATM    9  C   UNL     1      23.552  48.955  49.013  1.00  0.00     0.005 A 
HETATM   10  C   UNL     1      21.220  49.252  48.307  1.00  0.00     0.030 A 
HETATM   11  C   UNL     1      21.482  50.610  48.107  1.00  0.00     0.002 A 
HETATM   12  C   UNL     1      22.747  51.143  48.350  1.00  0.00     0.001 A 
HETATM   13  C   UNL     1      23.792  50.327  48.803  1.00  0.00     0.014 A 
HETATM   14  C   UNL     1      24.005  45.459  49.916  1.00  0.00     0.291 A 
HETATM   15  O   UNL     1      23.280  44.472  49.956  1.00  0.00    -0.264 OA
ENDROOT
BRANCH   1  16
HETATM   16  C   UNL     1      25.910  44.283  50.934  1.00  0.00     0.258 C 
BRANCH  16  17
HETATM   17  C   UNL     1      27.151  44.366  51.838  1.00  0.00     0.244 C 
HETATM   18  N   UNL     1      27.024  44.278  53.228  1.00  0.00    -0.320 N 
HETATM   19  C   UNL     1      25.797  44.587  53.949  1.00  0.00     0.159 C 
HETATM   20  O   UNL     1      28.258  44.332  51.277  1.00  0.00    -0.271 OA
BRANCH  18  21
HETATM   21  C   UNL     1      28.192  44.054  54.025  1.00  0.00     0.042 A 
HETATM   22  C   UNL     1      28.790  42.780  54.125  1.00  0.00    -0.035 A 
HETATM   23  C   UNL     1      28.242  41.553  53.447  1.00  0.00     0.050 C 
HETATM   24  C   UNL     1      29.950  42.629  54.908  1.00  0.00     0.009 A 
HETATM   25  C   UNL     1      30.487  43.706  55.613  1.00  0.00     0.001 A 
HETATM   26  C   UNL     1      29.874  44.953  55.542  1.00  0.00     0.002 A 
HETATM   27  C   UNL     1      28.733  45.124  54.757  1.00  0.00     0.030 A 
ENDBRANCH  18  21
ENDBRANCH  16  17
ENDBRANCH   1  16
TORSDOF 3
ENDMDL
MODEL 6
REMARK VINA RESULT:      -9.3      3.704      4.989
REMARK  3 active torsions:
REMARK  status: ('A' for Active; 'I' for Inactive)
REMARK    1  A    between atoms: C_3  and  N_4 
REMARK       I    between atoms: N_4  and  C_5 
REMARK    2  A    between atoms: C_5  and  C_6 
REMARK    3  A    between atoms: C_6  and  N_7 
ROOT
HETATM    1  N   UNL     1      27.591  43.699  52.548  1.00  0.00    -0.224 N 
HETATM    2  N   UNL     1      28.539  42.657  52.645  1.00  0.00    -0.180 NA
HETATM    3  C   UNL     1      29.406  42.660  53.617  1.00  0.00     0.153 A 
HETATM    4  C   UNL     1      29.398  43.697  54.606  1.00  0.00     0.028 A 
HETATM    5  C   UNL     1      28.456  44.691  54.516  1.00  0.00     0.116 A 
HETATM    6  N   UNL     1      28.634  45.546  55.566  1.00  0.00    -0.350 N 
HETATM    7  H   UNL     1      28.066  46.364  55.747  1.00  0.00     0.166 HD
HETATM    8  C   UNL     1      29.685  45.107  56.347  1.00  0.00     0.044 A 
HETATM    9  C   UNL     1      30.186  43.940  55.759  1.00  0.00     0.005 A 
HETATM   10  C   UNL     1      30.220  45.647  57.522  1.00  0.00     0.030 A 
HETATM   11  C   UNL     1      31.294  44.975  58.114  1.00  0.00     0.002 A 
HETATM   12  C   UNL     1      31.812  43.810  57.552  1.00  0.00     0.001 A 
HETATM   13  C   UNL     1      31.269  43.282  56.374  1.00  0.00     0.014 A 
HETATM   14  C   UNL     1      27.464  44.746  53.482  1.00  0.00     0.291 A 
HETATM   15  O   UNL     1      26.609  45.621  53.427  1.00  0.00    -0.264 OA
ENDROOT
BRANCH   1  16
HETATM   16  C   UNL     1      26.530  43.509  51.573  1.00  0.00     0.258 C 
BRANCH  16  17
HETATM   17  C   UNL     1      26.826  43.011  50.148  1.00  0.00     0.244 C 
HETATM   18  N   UNL     1      26.572  41.682  49.793  1.00  0.00    -0.320 N 
HETATM   19  C   UNL     1      26.495  40.589  50.752  1.00  0.00     0.159 C 
HETATM   20  O   UNL     1      27.122  43.870  49.303  1.00  0.00    -0.271 OA
BRANCH  18  21
HETATM   21  C   UNL     1      26.564  41.317  48.409  1.00  0.00     0.042 A 
HETATM   22  C   UNL     1      25.365  41.221  47.672  1.00  0.00    -0.035 A 
HETATM   23  C   UNL     1      24.004  41.452  48.273  1.00  0.00     0.050 C 
HETATM   24  C   UNL     1      25.425  40.878  46.309  1.00  0.00     0.009 A 
HETATM   25  C   UNL     1      26.644  40.594  45.692  1.00  0.00     0.001 A 
HETATM   26  C   UNL     1      27.821  40.652  46.430  1.00  0.00     0.002 A 
HETATM   27  C   UNL     1      27.781  41.007  47.779  1.00  0.00     0.030 A 
ENDBRANCH  18  21
ENDBRANCH  16  17
ENDBRANCH   1  16
TORSDOF 3
ENDMDL
MODEL 7
REMARK VINA RESULT:      -9.0      2.066      2.824
REMARK  3 active torsions:
REMARK  status: ('A' for Active; 'I' for Inactive)
REMARK    1  A    between atoms: C_3  and  N_4 
REMARK       I    between atoms: N_4  and  C_5 
REMARK    2  A    between atoms: C_5  and  C_6 
REMARK    3  A    between atoms: C_6  and  N_7 
ROOT
HETATM    1  N   UNL     1      28.185  43.354  52.166  1.00  0.00    -0.224 N 
HETATM    2  N   UNL     1      29.301  42.522  52.403  1.00  0.00    -0.180 NA
HETATM    3  C   UNL     1      30.018  42.691  53.477  1.00  0.00     0.153 A 
HETATM    4  C   UNL     1      29.677  43.699  54.437  1.00  0.00     0.028 A 
HETATM    5  C   UNL     1      28.575  44.486  54.210  1.00  0.00     0.116 A 
HETATM    6  N   UNL     1      28.443  45.352  55.257  1.00  0.00    -0.350 N 
HETATM    7  H   UNL     1      27.706  46.039  55.349  1.00  0.00     0.166 HD
HETATM    8  C   UNL     1      29.451  45.126  56.173  1.00  0.00     0.044 A 
HETATM    9  C   UNL     1      30.246  44.087  55.677  1.00  0.00     0.005 A 
HETATM   10  C   UNL     1      29.713  45.755  57.397  1.00  0.00     0.030 A 
HETATM   11  C   UNL     1      30.814  45.307  58.133  1.00  0.00     0.002 A 
HETATM   12  C   UNL     1      31.621  44.273  57.664  1.00  0.00     0.001 A 
HETATM   13  C   UNL     1      31.350  43.654  56.437  1.00  0.00     0.014 A 
HETATM   14  C   UNL     1      27.734  44.349  53.057  1.00  0.00     0.291 A 
HETATM   15  O   UNL     1      26.736  45.036  52.877  1.00  0.00    -0.264 OA
ENDROOT
BRANCH   1  16
HETATM   16  C   UNL     1      27.318  42.963  51.068  1.00  0.00     0.258 C 
BRANCH  16  17
HETATM   17  C   UNL     1      26.531  44.004  50.254  1.00  0.00     0.244 C 
HETATM   18  N   UNL     1      25.153  44.157  50.441  1.00  0.00    -0.320 N 
HETATM   19  C   UNL     1      24.290  43.119  50.985  1.00  0.00     0.159 C 
HETATM   20  O   UNL     1      27.193  44.803  49.574  1.00  0.00    -0.271 OA
BRANCH  18  21
HETATM   21  C   UNL     1      24.499  45.315  49.909  1.00  0.00     0.042 A 
HETATM   22  C   UNL     1      23.680  45.245  48.763  1.00  0.00    -0.035 A 
HETATM   23  C   UNL     1      23.454  43.976  47.984  1.00  0.00     0.050 C 
HETATM   24  C   UNL     1      23.048  46.414  48.302  1.00  0.00     0.009 A 
HETATM   25  C   UNL     1      23.252  47.640  48.936  1.00  0.00     0.001 A 
HETATM   26  C   UNL     1      24.090  47.713  50.044  1.00  0.00     0.002 A 
HETATM   27  C   UNL     1      24.711  46.560  50.524  1.00  0.00     0.030 A 
ENDBRANCH  18  21
ENDBRANCH  16  17
ENDBRANCH   1  16
TORSDOF 3
ENDMDL
MODEL 8
REMARK VINA RESULT:      -9.0      3.176      5.695
REMARK  3 active torsions:
REMARK  status: ('A' for Active; 'I' for Inactive)
REMARK    1  A    between atoms: C_3  and  N_4 
REMARK       I    between atoms: N_4  and  C_5 
REMARK    2  A    between atoms: C_5  and  C_6 
REMARK    3  A    between atoms: C_6  and  N_7 
ROOT
HETATM    1  N   UNL     1      23.696  46.660  49.259  1.00  0.00    -0.224 N 
HETATM    2  N   UNL     1      23.353  45.331  49.587  1.00  0.00    -0.180 NA
HETATM    3  C   UNL     1      23.892  44.761  50.627  1.00  0.00     0.153 A 
HETATM    4  C   UNL     1      24.816  45.474  51.459  1.00  0.00     0.028 A 
HETATM    5  C   UNL     1      25.124  46.774  51.145  1.00  0.00     0.116 A 
HETATM    6  N   UNL     1      26.002  47.244  52.078  1.00  0.00    -0.350 N 
HETATM    7  H   UNL     1      26.386  48.180  52.091  1.00  0.00     0.166 HD
HETATM    8  C   UNL     1      26.261  46.256  53.008  1.00  0.00     0.044 A 
HETATM    9  C   UNL     1      25.524  45.125  52.637  1.00  0.00     0.005 A 
HETATM   10  C   UNL     1      27.081  46.281  54.143  1.00  0.00     0.030 A 
HETATM   11  C   UNL     1      27.146  45.120  54.921  1.00  0.00     0.002 A 
HETATM   12  C   UNL     1      26.422  43.981  54.576  1.00  0.00     0.001 A 
HETATM   13  C   UNL     1      25.608  43.968  53.436  1.00  0.00     0.014 A 
HETATM   14  C   UNL     1      24.561  47.468  50.024  1.00  0.00     0.291 A 
HETATM   15  O   UNL     1      24.819  48.638  49.769  1.00  0.00    -0.264 OA
ENDROOT
BRANCH   1  16
HETATM   16  C   UNL     1      22.895  47.290  48.224  1.00  0.00     0.258 C 
BRANCH  16  17
HETATM   17  C   UNL     1      21.782  48.296  48.567  1.00  0.00     0.244 C 
HETATM   18  N   UNL     1      21.823  49.599  48.061  1.00  0.00    -0.320 N 
HETATM   19  C   UNL     1      23.044  50.260  47.623  1.00  0.00     0.159 C 
HETATM   20  O   UNL     1      20.782  47.850  49.151  1.00  0.00    -0.271 OA
BRANCH  18  21
HETATM   21  C   UNL     1      20.649  50.416  48.136  1.00  0.00     0.042 A 
HETATM   22  C   UNL     1      20.334  51.160  49.293  1.00  0.00    -0.035 A 
HETATM   23  C   UNL     1      21.168  51.133  50.546  1.00  0.00     0.050 C 
HETATM   24  C   UNL     1      19.177  51.960  49.297  1.00  0.00     0.009 A 
HETATM   25  C   UNL     1      18.323  51.995  48.195  1.00  0.00     0.001 A 
HETATM   26  C   UNL     1      18.615  51.231  47.070  1.00  0.00     0.002 A 
HETATM   27  C   UNL     1      19.768  50.445  47.043  1.00  0.00     0.030 A 
ENDBRANCH  18  21
ENDBRANCH  16  17
ENDBRANCH   1  16
TORSDOF 3
ENDMDL
MODEL 9
REMARK VINA RESULT:      -8.9      4.755      6.622
REMARK  3 active torsions:
REMARK  status: ('A' for Active; 'I' for Inactive)
REMARK    1  A    between atoms: C_3  and  N_4 
REMARK       I    between atoms: N_4  and  C_5 
REMARK    2  A    between atoms: C_5  and  C_6 
REMARK    3  A    between atoms: C_6  and  N_7 
ROOT
HETATM    1  N   UNL     1      27.760  43.012  51.412  1.00  0.00    -0.224 N 
HETATM    2  N   UNL     1      28.681  42.002  51.762  1.00  0.00    -0.180 NA
HETATM    3  C   UNL     1      29.403  42.129  52.838  1.00  0.00     0.153 A 
HETATM    4  C   UNL     1      29.259  43.273  53.689  1.00  0.00     0.028 A 
HETATM    5  C   UNL     1      28.342  44.237  53.353  1.00  0.00     0.116 A 
HETATM    6  N   UNL     1      28.373  45.210  54.310  1.00  0.00    -0.350 N 
HETATM    7  H   UNL     1      27.788  46.036  54.313  1.00  0.00     0.166 HD
HETATM    8  C   UNL     1      29.302  44.879  55.276  1.00  0.00     0.044 A 
HETATM    9  C   UNL     1      29.878  43.659  54.905  1.00  0.00     0.005 A 
HETATM   10  C   UNL     1      29.668  45.560  56.444  1.00  0.00     0.030 A 
HETATM   11  C   UNL     1      30.646  44.975  57.254  1.00  0.00     0.002 A 
HETATM   12  C   UNL     1      31.235  43.760  56.910  1.00  0.00     0.001 A 
HETATM   13  C   UNL     1      30.862  43.091  55.738  1.00  0.00     0.014 A 
HETATM   14  C   UNL     1      27.506  44.158  52.191  1.00  0.00     0.291 A 
HETATM   15  O   UNL     1      26.669  45.009  51.915  1.00  0.00    -0.264 OA
ENDROOT
BRANCH   1  16
HETATM   16  C   UNL     1      26.846  42.696  50.327  1.00  0.00     0.258 C 
BRANCH  16  17
HETATM   17  C   UNL     1      26.498  41.241  49.965  1.00  0.00     0.244 C 
HETATM   18  N   UNL     1      27.148  40.599  48.905  1.00  0.00    -0.320 N 
HETATM   19  C   UNL     1      27.786  41.303  47.802  1.00  0.00     0.159 C 
HETATM   20  O   UNL     1      25.765  40.626  50.754  1.00  0.00    -0.271 OA
BRANCH  18  21
HETATM   21  C   UNL     1      27.037  39.178  48.776  1.00  0.00     0.042 A 
HETATM   22  C   UNL     1      27.898  38.299  49.466  1.00  0.00    -0.035 A 
HETATM   23  C   UNL     1      29.018  38.768  50.357  1.00  0.00     0.050 C 
HETATM   24  C   UNL     1      27.724  36.911  49.314  1.00  0.00     0.009 A 
HETATM   25  C   UNL     1      26.745  36.398  48.463  1.00  0.00     0.001 A 
HETATM   26  C   UNL     1      25.922  37.267  47.754  1.00  0.00     0.002 A 
HETATM   27  C   UNL     1      26.069  38.646  47.907  1.00  0.00     0.030 A 
ENDBRANCH  18  21
ENDBRANCH  16  17
ENDBRANCH   1  16
TORSDOF 3
ENDMDL
MODEL 10
REMARK VINA RESULT:      -8.9      3.119      9.550
REMARK  3 active torsions:
REMARK  status: ('A' for Active; 'I' for Inactive)
REMARK    1  A    between atoms: C_3  and  N_4 
REMARK       I    between atoms: N_4  and  C_5 
REMARK    2  A    between atoms: C_5  and  C_6 
REMARK    3  A    between atoms: C_6  and  N_7 
ROOT
HETATM    1  N   UNL     1      23.226  46.304  49.172  1.00  0.00    -0.224 N 
HETATM    2  N   UNL     1      22.030  45.850  48.576  1.00  0.00    -0.180 NA
HETATM    3  C   UNL     1      21.085  46.700  48.291  1.00  0.00     0.153 A 
HETATM    4  C   UNL     1      21.252  48.099  48.555  1.00  0.00     0.028 A 
HETATM    5  C   UNL     1      22.429  48.533  49.112  1.00  0.00     0.116 A 
HETATM    6  N   UNL     1      22.362  49.889  49.253  1.00  0.00    -0.350 N 
HETATM    7  H   UNL     1      23.101  50.468  49.630  1.00  0.00     0.166 HD
HETATM    8  C   UNL     1      21.146  50.344  48.780  1.00  0.00     0.044 A 
HETATM    9  C   UNL     1      20.425  49.230  48.335  1.00  0.00     0.005 A 
HETATM   10  C   UNL     1      20.638  51.647  48.709  1.00  0.00     0.030 A 
HETATM   11  C   UNL     1      19.362  51.815  48.164  1.00  0.00     0.002 A 
HETATM   12  C   UNL     1      18.622  50.725  47.712  1.00  0.00     0.001 A 
HETATM   13  C   UNL     1      19.140  49.426  47.792  1.00  0.00     0.014 A 
HETATM   14  C   UNL     1      23.515  47.657  49.440  1.00  0.00     0.291 A 
HETATM   15  O   UNL     1      24.573  48.057  49.910  1.00  0.00    -0.264 OA
ENDROOT
BRANCH   1  16
HETATM   16  C   UNL     1      24.306  45.336  49.257  1.00  0.00     0.258 C 
BRANCH  16  17
HETATM   17  C   UNL     1      24.822  44.821  50.612  1.00  0.00     0.244 C 
HETATM   18  N   UNL     1      26.173  44.948  50.951  1.00  0.00    -0.320 N 
HETATM   19  C   UNL     1      27.243  45.090  49.974  1.00  0.00     0.159 C 
HETATM   20  O   UNL     1      23.969  44.464  51.439  1.00  0.00    -0.271 OA
BRANCH  18  21
HETATM   21  C   UNL     1      26.575  44.748  52.311  1.00  0.00     0.042 A 
HETATM   22  C   UNL     1      26.572  45.801  53.250  1.00  0.00    -0.035 A 
HETATM   23  C   UNL     1      26.191  47.216  52.905  1.00  0.00     0.050 C 
HETATM   24  C   UNL     1      26.958  45.534  54.576  1.00  0.00     0.009 A 
HETATM   25  C   UNL     1      27.378  44.262  54.962  1.00  0.00     0.001 A 
HETATM   26  C   UNL     1      27.416  43.234  54.025  1.00  0.00     0.002 A 
HETATM   27  C   UNL     1      27.020  43.476  52.709  1.00  0.00     0.030 A 
ENDBRANCH  18  21
ENDBRANCH  16  17
ENDBRANCH   1  16
TORSDOF 3
ENDMDL
