MODEL 1
REMARK VINA RESULT:     -10.6      0.000      0.000
REMARK  7 active torsions:
REMARK  status: ('A' for Active; 'I' for Inactive)
REMARK    1  A    between atoms: C_4  and  C_5 
REMARK    2  A    between atoms: C_9  and  C_10 
REMARK       I    between atoms: C_10  and  N_11 
REMARK    3  A    between atoms: N_11  and  N_12 
REMARK       I    between atoms: N_12  and  C_13 
REMARK    4  A    between atoms: C_13  and  C_14 
REMARK    5  A    between atoms: C_14  and  C_15 
REMARK    6  A    between atoms: C_15  and  N_16 
REMARK    7  A    between atoms: C_15  and  C_20 
REMARK       I    between atoms: N_16  and  C_17 
REMARK       I    between atoms: C_17  and  N_18 
ROOT
HETATM    1  N   UNL     1      26.218  45.531  49.698  1.00  0.00    -0.267 N 
HETATM    2  C   UNL     1      24.973  45.942  50.132  1.00  0.00     0.238 C 
HETATM    3  O   UNL     1      24.018  45.173  50.234  1.00  0.00    -0.272 OA
HETATM    4  H   UNL     1      26.788  46.244  49.224  1.00  0.00     0.190 HD
ENDROOT
BRANCH   1   5
HETATM    5  N   UNL     1      26.315  44.208  49.233  1.00  0.00    -0.262 N 
HETATM    6  C   UNL     1      26.946  43.173  49.898  1.00  0.00     0.288 C 
HETATM    7  O   UNL     1      27.255  42.166  49.261  1.00  0.00    -0.264 OA
HETATM    8  H   UNL     1      26.143  44.073  48.237  1.00  0.00     0.190 HD
BRANCH   6   9
HETATM    9  C   UNL     1      27.217  43.302  51.308  1.00  0.00     0.121 A 
HETATM   10  N   UNL     1      26.331  43.111  52.325  1.00  0.00    -0.272 N 
HETATM   11  N   UNL     1      26.826  43.341  53.552  1.00  0.00    -0.174 NA
HETATM   12  H   UNL     1      25.353  42.863  52.231  1.00  0.00     0.189 HD
HETATM   13  C   UNL     1      28.125  43.615  53.336  1.00  0.00     0.089 A 
HETATM   14  C   UNL     1      28.409  43.581  51.944  1.00  0.00     0.071 A 
BRANCH  13  15
HETATM   15  C   UNL     1      29.050  43.923  54.429  1.00  0.00    -0.006 A 
HETATM   16  C   UNL     1      30.052  43.013  54.800  1.00  0.00     0.014 A 
HETATM   17  C   UNL     1      30.951  43.323  55.825  1.00  0.00     0.001 A 
HETATM   18  C   UNL     1      30.860  44.545  56.488  1.00  0.00     0.000 A 
HETATM   19  C   UNL     1      29.867  45.456  56.133  1.00  0.00     0.001 A 
HETATM   20  C   UNL     1      28.964  45.144  55.113  1.00  0.00     0.014 A 
ENDBRANCH  13  15
ENDBRANCH   6   9
ENDBRANCH   1   5
BRANCH   2  21
HETATM   21  C   UNL     1      24.850  47.420  50.456  1.00  0.00     0.134 C 
BRANCH  21  22
HETATM   22  C   UNL     1      24.935  48.364  49.243  1.00  0.00     0.127 C 
BRANCH  22  23
HETATM   23  N   UNL     1      26.119  49.223  49.131  1.00  0.00    -0.339 N 
HETATM   24  C   UNL     1      27.404  48.847  48.941  1.00  0.00     0.292 C 
HETATM   25  N   UNL     1      28.275  49.877  49.023  1.00  0.00    -0.254 NA
HETATM   26  O   UNL     1      27.790  47.705  48.742  1.00  0.00    -0.254 OA
HETATM   27  H   UNL     1      28.083  50.609  49.691  1.00  0.00     0.128 HD
HETATM   28  H   UNL     1      29.245  49.575  49.033  1.00  0.00     0.128 HD
HETATM   29  H   UNL     1      25.946  50.218  49.141  1.00  0.00     0.164 HD
ENDBRANCH  22  23
BRANCH  22  30
HETATM   30  C   UNL     1      23.643  49.121  48.951  1.00  0.00    -0.035 A 
HETATM   31  C   UNL     1      22.403  48.475  48.816  1.00  0.00     0.011 A 
HETATM   32  C   UNL     1      21.247  49.201  48.513  1.00  0.00     0.024 A 
HETATM   33  C   UNL     1      21.319  50.580  48.338  1.00  0.00     0.034 A 
HETATM   34 CL   UNL     1      19.896  51.470  47.960  1.00  0.00    -0.084 Cl
HETATM   35  C   UNL     1      22.536  51.242  48.468  1.00  0.00     0.024 A 
HETATM   36  C   UNL     1      23.690  50.516  48.774  1.00  0.00     0.011 A 
ENDBRANCH  22  30
ENDBRANCH  21  22
ENDBRANCH   2  21
TORSDOF 7
ENDMDL
MODEL 2
REMARK VINA RESULT:      -9.7      4.141      5.207
REMARK  7 active torsions:
REMARK  status: ('A' for Active; 'I' for Inactive)
REMARK    1  A    between atoms: C_4  and  C_5 
REMARK    2  A    between atoms: C_9  and  C_10 
REMARK       I    between atoms: C_10  and  N_11 
REMARK    3  A    between atoms: N_11  and  N_12 
REMARK       I    between atoms: N_12  and  C_13 
REMARK    4  A    between atoms: C_13  and  C_14 
REMARK    5  A    between atoms: C_14  and  C_15 
REMARK    6  A    between atoms: C_15  and  N_16 
REMARK    7  A    between atoms: C_15  and  C_20 
REMARK       I    between atoms: N_16  and  C_17 
REMARK       I    between atoms: C_17  and  N_18 
ROOT
HETATM    1  N   UNL     1      26.245  41.911  51.141  1.00  0.00    -0.267 N 
HETATM    2  C   UNL     1      26.460  42.604  49.967  1.00  0.00     0.238 C 
HETATM    3  O   UNL     1      27.215  42.196  49.084  1.00  0.00    -0.272 OA
HETATM    4  H   UNL     1      25.999  42.482  51.962  1.00  0.00     0.190 HD
ENDROOT
BRANCH   1   5
HETATM    5  N   UNL     1      27.044  40.775  51.357  1.00  0.00    -0.262 N 
HETATM    6  C   UNL     1      28.301  40.782  51.932  1.00  0.00     0.288 C 
HETATM    7  O   UNL     1      29.028  39.803  51.768  1.00  0.00    -0.264 OA
HETATM    8  H   UNL     1      26.791  39.946  50.820  1.00  0.00     0.190 HD
BRANCH   6   9
HETATM    9  C   UNL     1      28.717  41.926  52.704  1.00  0.00     0.121 A 
HETATM   10  N   UNL     1      28.728  43.224  52.290  1.00  0.00    -0.272 N 
HETATM   11  N   UNL     1      29.209  44.097  53.191  1.00  0.00    -0.174 NA
HETATM   12  H   UNL     1      28.456  43.565  51.376  1.00  0.00     0.189 HD
HETATM   13  C   UNL     1      29.446  43.346  54.282  1.00  0.00     0.089 A 
HETATM   14  C   UNL     1      29.131  41.985  54.019  1.00  0.00     0.071 A 
BRANCH  13  15
HETATM   15  C   UNL     1      29.979  43.916  55.521  1.00  0.00    -0.006 A 
HETATM   16  C   UNL     1      30.977  43.250  56.247  1.00  0.00     0.014 A 
HETATM   17  C   UNL     1      31.503  43.812  57.415  1.00  0.00     0.001 A 
HETATM   18  C   UNL     1      31.039  45.045  57.867  1.00  0.00     0.000 A 
HETATM   19  C   UNL     1      30.044  45.715  57.158  1.00  0.00     0.001 A 
HETATM   20  C   UNL     1      29.514  45.152  55.994  1.00  0.00     0.014 A 
ENDBRANCH  13  15
ENDBRANCH   6   9
ENDBRANCH   1   5
BRANCH   2  21
HETATM   21  C   UNL     1      25.719  43.922  49.840  1.00  0.00     0.134 C 
BRANCH  21  22
HETATM   22  C   UNL     1      24.703  44.212  50.961  1.00  0.00     0.127 C 
BRANCH  22  23
HETATM   23  N   UNL     1      23.338  44.574  50.567  1.00  0.00    -0.339 N 
HETATM   24  C   UNL     1      22.437  43.818  49.898  1.00  0.00     0.292 C 
HETATM   25  N   UNL     1      21.317  44.498  49.567  1.00  0.00    -0.254 NA
HETATM   26  O   UNL     1      22.587  42.648  49.579  1.00  0.00    -0.254 OA
HETATM   27  H   UNL     1      21.410  45.470  49.313  1.00  0.00     0.128 HD
HETATM   28  H   UNL     1      20.712  43.979  48.937  1.00  0.00     0.128 HD
HETATM   29  H   UNL     1      23.012  45.477  50.879  1.00  0.00     0.164 HD
ENDBRANCH  22  23
BRANCH  22  30
HETATM   30  C   UNL     1      25.241  45.110  52.071  1.00  0.00    -0.035 A 
HETATM   31  C   UNL     1      25.580  46.456  51.856  1.00  0.00     0.011 A 
HETATM   32  C   UNL     1      26.103  47.237  52.891  1.00  0.00     0.024 A 
HETATM   33  C   UNL     1      26.296  46.679  54.153  1.00  0.00     0.034 A 
HETATM   34 CL   UNL     1      26.945  47.640  55.423  1.00  0.00    -0.084 Cl
HETATM   35  C   UNL     1      25.967  45.348  54.389  1.00  0.00     0.024 A 
HETATM   36  C   UNL     1      25.440  44.570  53.355  1.00  0.00     0.011 A 
ENDBRANCH  22  30
ENDBRANCH  21  22
ENDBRANCH   2  21
TORSDOF 7
ENDMDL
MODEL 3
REMARK VINA RESULT:      -9.5      2.612      3.623
REMARK  7 active torsions:
REMARK  status: ('A' for Active; 'I' for Inactive)
REMARK    1  A    between atoms: C_4  and  C_5 
REMARK    2  A    between atoms: C_9  and  C_10 
REMARK       I    between atoms: C_10  and  N_11 
REMARK    3  A    between atoms: N_11  and  N_12 
REMARK       I    between atoms: N_12  and  C_13 
REMARK    4  A    between atoms: C_13  and  C_14 
REMARK    5  A    between atoms: C_14  and  C_15 
REMARK    6  A    between atoms: C_15  and  N_16 
REMARK    7  A    between atoms: C_15  and  C_20 
REMARK       I    between atoms: N_16  and  C_17 
REMARK       I    between atoms: C_17  and  N_18 
ROOT
HETATM    1  N   UNL     1      27.347  42.271  49.656  1.00  0.00    -0.267 N 
HETATM    2  C   UNL     1      25.995  42.541  49.587  1.00  0.00     0.238 C 
HETATM    3  O   UNL     1      25.136  41.708  49.875  1.00  0.00    -0.272 OA
HETATM    4  H   UNL     1      27.946  42.800  49.006  1.00  0.00     0.190 HD
ENDROOT
BRANCH   1   5
HETATM    5  N   UNL     1      27.709  40.941  49.935  1.00  0.00    -0.262 N 
HETATM    6  C   UNL     1      28.334  40.511  51.090  1.00  0.00     0.288 C 
HETATM    7  O   UNL     1      28.892  39.414  51.084  1.00  0.00    -0.264 OA
HETATM    8  H   UNL     1      27.750  40.314  49.133  1.00  0.00     0.190 HD
BRANCH   6   9
HETATM    9  C   UNL     1      28.310  41.353  52.261  1.00  0.00     0.121 A 
HETATM   10  N   UNL     1      27.261  41.531  53.111  1.00  0.00    -0.272 N 
HETATM   11  N   UNL     1      27.483  42.410  54.103  1.00  0.00    -0.174 NA
HETATM   12  H   UNL     1      26.345  41.105  53.032  1.00  0.00     0.189 HD
HETATM   13  C   UNL     1      28.772  42.762  53.945  1.00  0.00     0.089 A 
HETATM   14  C   UNL     1      29.326  42.105  52.814  1.00  0.00     0.071 A 
BRANCH  13  15
HETATM   15  C   UNL     1      29.435  43.715  54.838  1.00  0.00    -0.006 A 
HETATM   16  C   UNL     1      28.924  45.010  55.014  1.00  0.00     0.014 A 
HETATM   17  C   UNL     1      29.544  45.907  55.889  1.00  0.00     0.001 A 
HETATM   18  C   UNL     1      30.678  45.518  56.600  1.00  0.00     0.000 A 
HETATM   19  C   UNL     1      31.199  44.237  56.431  1.00  0.00     0.001 A 
HETATM   20  C   UNL     1      30.583  43.342  55.552  1.00  0.00     0.014 A 
ENDBRANCH  13  15
ENDBRANCH   6   9
ENDBRANCH   1   5
BRANCH   2  21
HETATM   21  C   UNL     1      25.630  43.933  49.106  1.00  0.00     0.134 C 
BRANCH  21  22
HETATM   22  C   UNL     1      25.208  44.918  50.213  1.00  0.00     0.127 C 
BRANCH  22  23
HETATM   23  N   UNL     1      24.786  44.355  51.499  1.00  0.00    -0.339 N 
HETATM   24  C   UNL     1      25.291  44.616  52.727  1.00  0.00     0.292 C 
HETATM   25  N   UNL     1      24.772  43.825  53.693  1.00  0.00    -0.254 NA
HETATM   26  O   UNL     1      26.147  45.450  52.983  1.00  0.00    -0.254 OA
HETATM   27  H   UNL     1      24.556  42.868  53.457  1.00  0.00     0.128 HD
HETATM   28  H   UNL     1      25.258  43.915  54.580  1.00  0.00     0.128 HD
HETATM   29  H   UNL     1      23.986  43.739  51.472  1.00  0.00     0.164 HD
ENDBRANCH  22  23
BRANCH  22  30
HETATM   30  C   UNL     1      24.278  46.029  49.736  1.00  0.00    -0.035 A 
HETATM   31  C   UNL     1      24.478  47.378  50.071  1.00  0.00     0.011 A 
HETATM   32  C   UNL     1      23.582  48.363  49.644  1.00  0.00     0.024 A 
HETATM   33  C   UNL     1      22.474  48.009  48.879  1.00  0.00     0.034 A 
HETATM   34 CL   UNL     1      21.370  49.221  48.359  1.00  0.00    -0.084 Cl
HETATM   35  C   UNL     1      22.255  46.679  48.534  1.00  0.00     0.024 A 
HETATM   36  C   UNL     1      23.153  45.696  48.958  1.00  0.00     0.011 A 
ENDBRANCH  22  30
ENDBRANCH  21  22
ENDBRANCH   2  21
TORSDOF 7
ENDMDL
MODEL 4
REMARK VINA RESULT:      -9.2      3.492      9.629
REMARK  7 active torsions:
REMARK  status: ('A' for Active; 'I' for Inactive)
REMARK    1  A    between atoms: C_4  and  C_5 
REMARK    2  A    between atoms: C_9  and  C_10 
REMARK       I    between atoms: C_10  and  N_11 
REMARK    3  A    between atoms: N_11  and  N_12 
REMARK       I    between atoms: N_12  and  C_13 
REMARK    4  A    between atoms: C_13  and  C_14 
REMARK    5  A    between atoms: C_14  and  C_15 
REMARK    6  A    between atoms: C_15  and  N_16 
REMARK    7  A    between atoms: C_15  and  C_20 
REMARK       I    between atoms: N_16  and  C_17 
REMARK       I    between atoms: C_17  and  N_18 
ROOT
HETATM    1  N   UNL     1      25.715  47.171  49.965  1.00  0.00    -0.267 N 
HETATM    2  C   UNL     1      25.980  46.962  51.303  1.00  0.00     0.238 C 
HETATM    3  O   UNL     1      26.531  47.806  52.010  1.00  0.00    -0.272 OA
HETATM    4  H   UNL     1      25.690  46.328  49.374  1.00  0.00     0.190 HD
ENDROOT
BRANCH   1   5
HETATM    5  N   UNL     1      26.237  48.346  49.396  1.00  0.00    -0.262 N 
HETATM    6  C   UNL     1      25.512  49.269  48.668  1.00  0.00     0.288 C 
HETATM    7  O   UNL     1      26.120  50.064  47.952  1.00  0.00    -0.264 OA
HETATM    8  H   UNL     1      27.251  48.377  49.293  1.00  0.00     0.190 HD
BRANCH   6   9
HETATM    9  C   UNL     1      24.074  49.277  48.771  1.00  0.00     0.121 A 
HETATM   10  N   UNL     1      23.250  48.194  48.705  1.00  0.00    -0.272 N 
HETATM   11  N   UNL     1      21.939  48.479  48.783  1.00  0.00    -0.174 NA
HETATM   12  H   UNL     1      23.532  47.232  48.562  1.00  0.00     0.189 HD
HETATM   13  C   UNL     1      21.904  49.807  48.996  1.00  0.00     0.089 A 
HETATM   14  C   UNL     1      23.223  50.336  49.013  1.00  0.00     0.071 A 
BRANCH  13  15
HETATM   15  C   UNL     1      20.646  50.540  49.151  1.00  0.00    -0.006 A 
HETATM   16  C   UNL     1      20.406  51.718  48.427  1.00  0.00     0.014 A 
HETATM   17  C   UNL     1      19.192  52.399  48.558  1.00  0.00     0.001 A 
HETATM   18  C   UNL     1      18.204  51.908  49.409  1.00  0.00     0.000 A 
HETATM   19  C   UNL     1      18.431  50.742  50.137  1.00  0.00     0.001 A 
HETATM   20  C   UNL     1      19.646  50.064  50.012  1.00  0.00     0.014 A 
ENDBRANCH  13  15
ENDBRANCH   6   9
ENDBRANCH   1   5
BRANCH   2  21
HETATM   21  C   UNL     1      25.566  45.607  51.848  1.00  0.00     0.134 C 
BRANCH  21  22
HETATM   22  C   UNL     1      26.502  44.441  51.479  1.00  0.00     0.127 C 
BRANCH  22  23
HETATM   23  N   UNL     1      25.886  43.199  51.001  1.00  0.00    -0.339 N 
HETATM   24  C   UNL     1      26.134  42.537  49.847  1.00  0.00     0.292 C 
HETATM   25  N   UNL     1      25.295  41.498  49.642  1.00  0.00    -0.254 NA
HETATM   26  O   UNL     1      26.996  42.827  49.032  1.00  0.00    -0.254 OA
HETATM   27  H   UNL     1      24.336  41.596  49.942  1.00  0.00     0.128 HD
HETATM   28  H   UNL     1      25.381  41.099  48.711  1.00  0.00     0.128 HD
HETATM   29  H   UNL     1      25.237  42.754  51.635  1.00  0.00     0.164 HD
ENDBRANCH  22  23
BRANCH  22  30
HETATM   30  C   UNL     1      27.606  44.182  52.499  1.00  0.00    -0.035 A 
HETATM   31  C   UNL     1      28.724  43.380  52.215  1.00  0.00     0.011 A 
HETATM   32  C   UNL     1      29.697  43.138  53.189  1.00  0.00     0.024 A 
HETATM   33  C   UNL     1      29.562  43.693  54.459  1.00  0.00     0.034 A 
HETATM   34 CL   UNL     1      30.758  43.389  55.658  1.00  0.00    -0.084 Cl
HETATM   35  C   UNL     1      28.464  44.491  54.763  1.00  0.00     0.024 A 
HETATM   36  C   UNL     1      27.494  44.736  53.787  1.00  0.00     0.011 A 
ENDBRANCH  22  30
ENDBRANCH  21  22
ENDBRANCH   2  21
TORSDOF 7
ENDMDL
MODEL 5
REMARK VINA RESULT:      -8.9      3.615      8.895
REMARK  7 active torsions:
REMARK  status: ('A' for Active; 'I' for Inactive)
REMARK    1  A    between atoms: C_4  and  C_5 
REMARK    2  A    between atoms: C_9  and  C_10 
REMARK       I    between atoms: C_10  and  N_11 
REMARK    3  A    between atoms: N_11  and  N_12 
REMARK       I    between atoms: N_12  and  C_13 
REMARK    4  A    between atoms: C_13  and  C_14 
REMARK    5  A    between atoms: C_14  and  C_15 
REMARK    6  A    between atoms: C_15  and  N_16 
REMARK    7  A    between atoms: C_15  and  C_20 
REMARK       I    between atoms: N_16  and  C_17 
REMARK       I    between atoms: C_17  and  N_18 
ROOT
HETATM    1  N   UNL     1      23.111  44.667  50.352  1.00  0.00    -0.267 N 
HETATM    2  C   UNL     1      24.446  44.428  50.606  1.00  0.00     0.238 C 
HETATM    3  O   UNL     1      25.212  43.974  49.756  1.00  0.00    -0.272 OA
HETATM    4  H   UNL     1      22.479  44.601  51.162  1.00  0.00     0.190 HD
ENDROOT
BRANCH   1   5
HETATM    5  N   UNL     1      22.619  44.233  49.109  1.00  0.00    -0.262 N 
HETATM    6  C   UNL     1      21.800  44.969  48.273  1.00  0.00     0.288 C 
HETATM    7  O   UNL     1      21.174  44.379  47.393  1.00  0.00    -0.264 OA
HETATM    8  H   UNL     1      22.655  43.227  48.943  1.00  0.00     0.190 HD
BRANCH   6   9
HETATM    9  C   UNL     1      21.707  46.396  48.455  1.00  0.00     0.121 A 
HETATM   10  N   UNL     1      22.746  47.277  48.505  1.00  0.00    -0.272 N 
HETATM   11  N   UNL     1      22.390  48.553  48.731  1.00  0.00    -0.174 NA
HETATM   12  H   UNL     1      23.730  47.049  48.433  1.00  0.00     0.189 HD
HETATM   13  C   UNL     1      21.046  48.521  48.746  1.00  0.00     0.089 A 
HETATM   14  C   UNL     1      20.584  47.190  48.557  1.00  0.00     0.071 A 
BRANCH  13  15
HETATM   15  C   UNL     1      20.239  49.725  48.959  1.00  0.00    -0.006 A 
HETATM   16  C   UNL     1      19.157  49.715  49.852  1.00  0.00     0.014 A 
HETATM   17  C   UNL     1      18.407  50.875  50.073  1.00  0.00     0.001 A 
HETATM   18  C   UNL     1      18.733  52.055  49.409  1.00  0.00     0.000 A 
HETATM   19  C   UNL     1      19.803  52.077  48.516  1.00  0.00     0.001 A 
HETATM   20  C   UNL     1      20.549  50.917  48.289  1.00  0.00     0.014 A 
ENDBRANCH  13  15
ENDBRANCH   6   9
ENDBRANCH   1   5
BRANCH   2  21
HETATM   21  C   UNL     1      24.909  44.738  52.017  1.00  0.00     0.134 C 
BRANCH  21  22
HETATM   22  C   UNL     1      25.740  46.026  52.164  1.00  0.00     0.127 C 
BRANCH  22  23
HETATM   23  N   UNL     1      26.483  46.494  50.990  1.00  0.00    -0.339 N 
HETATM   24  C   UNL     1      26.156  47.500  50.146  1.00  0.00     0.292 C 
HETATM   25  N   UNL     1      26.983  47.587  49.080  1.00  0.00    -0.254 NA
HETATM   26  O   UNL     1      25.208  48.259  50.275  1.00  0.00    -0.254 OA
HETATM   27  H   UNL     1      27.343  46.729  48.688  1.00  0.00     0.128 HD
HETATM   28  H   UNL     1      26.650  48.237  48.374  1.00  0.00     0.128 HD
HETATM   29  H   UNL     1      27.374  46.049  50.822  1.00  0.00     0.164 HD
ENDBRANCH  22  23
BRANCH  22  30
HETATM   30  C   UNL     1      26.578  46.085  53.438  1.00  0.00    -0.035 A 
HETATM   31  C   UNL     1      26.785  47.276  54.153  1.00  0.00     0.011 A 
HETATM   32  C   UNL     1      27.589  47.295  55.296  1.00  0.00     0.024 A 
HETATM   33  C   UNL     1      28.198  46.123  55.737  1.00  0.00     0.034 A 
HETATM   34 CL   UNL     1      29.191  46.149  57.141  1.00  0.00    -0.084 Cl
HETATM   35  C   UNL     1      28.006  44.931  55.046  1.00  0.00     0.024 A 
HETATM   36  C   UNL     1      27.199  44.912  53.905  1.00  0.00     0.011 A 
ENDBRANCH  22  30
ENDBRANCH  21  22
ENDBRANCH   2  21
TORSDOF 7
ENDMDL
MODEL 6
REMARK VINA RESULT:      -8.9      3.694      9.411
REMARK  7 active torsions:
REMARK  status: ('A' for Active; 'I' for Inactive)
REMARK    1  A    between atoms: C_4  and  C_5 
REMARK    2  A    between atoms: C_9  and  C_10 
REMARK       I    between atoms: C_10  and  N_11 
REMARK    3  A    between atoms: N_11  and  N_12 
REMARK       I    between atoms: N_12  and  C_13 
REMARK    4  A    between atoms: C_13  and  C_14 
REMARK    5  A    between atoms: C_14  and  C_15 
REMARK    6  A    between atoms: C_15  and  N_16 
REMARK    7  A    between atoms: C_15  and  C_20 
REMARK       I    between atoms: N_16  and  C_17 
REMARK       I    between atoms: C_17  and  N_18 
ROOT
HETATM    1  N   UNL     1      23.036  44.518  50.353  1.00  0.00    -0.267 N 
HETATM    2  C   UNL     1      24.415  44.484  50.311  1.00  0.00     0.238 C 
HETATM    3  O   UNL     1      25.041  44.166  49.300  1.00  0.00    -0.272 OA
HETATM    4  H   UNL     1      22.608  44.344  51.273  1.00  0.00     0.190 HD
ENDROOT
BRANCH   1   5
HETATM    5  N   UNL     1      22.360  44.031  49.220  1.00  0.00    -0.262 N 
HETATM    6  C   UNL     1      21.474  44.757  48.447  1.00  0.00     0.288 C 
HETATM    7  O   UNL     1      20.707  44.148  47.702  1.00  0.00    -0.264 OA
HETATM    8  H   UNL     1      22.323  43.016  49.127  1.00  0.00     0.190 HD
BRANCH   6   9
HETATM    9  C   UNL     1      21.479  46.196  48.531  1.00  0.00     0.121 A 
HETATM   10  N   UNL     1      22.557  47.015  48.373  1.00  0.00    -0.272 N 
HETATM   11  N   UNL     1      22.300  48.322  48.550  1.00  0.00    -0.174 NA
HETATM   12  H   UNL     1      23.509  46.725  48.186  1.00  0.00     0.189 HD
HETATM   13  C   UNL     1      20.971  48.371  48.750  1.00  0.00     0.089 A 
HETATM   14  C   UNL     1      20.421  47.061  48.725  1.00  0.00     0.071 A 
BRANCH  13  15
HETATM   15  C   UNL     1      20.263  49.633  48.980  1.00  0.00    -0.006 A 
HETATM   16  C   UNL     1      20.645  50.804  48.308  1.00  0.00     0.014 A 
HETATM   17  C   UNL     1      19.948  51.999  48.509  1.00  0.00     0.001 A 
HETATM   18  C   UNL     1      18.862  52.036  49.381  1.00  0.00     0.000 A 
HETATM   19  C   UNL     1      18.475  50.882  50.058  1.00  0.00     0.001 A 
HETATM   20  C   UNL     1      19.174  49.688  49.862  1.00  0.00     0.014 A 
ENDBRANCH  13  15
ENDBRANCH   6   9
ENDBRANCH   1   5
BRANCH   2  21
HETATM   21  C   UNL     1      25.117  44.841  51.608  1.00  0.00     0.134 C 
BRANCH  21  22
HETATM   22  C   UNL     1      26.368  44.001  51.928  1.00  0.00     0.127 C 
BRANCH  22  23
HETATM   23  N   UNL     1      26.219  42.542  51.957  1.00  0.00    -0.339 N 
HETATM   24  C   UNL     1      26.715  41.638  51.081  1.00  0.00     0.292 C 
HETATM   25  N   UNL     1      26.278  40.380  51.314  1.00  0.00    -0.254 NA
HETATM   26  O   UNL     1      27.460  41.888  50.145  1.00  0.00    -0.254 OA
HETATM   27  H   UNL     1      25.332  40.260  51.643  1.00  0.00     0.128 HD
HETATM   28  H   UNL     1      26.526  39.733  50.572  1.00  0.00     0.128 HD
HETATM   29  H   UNL     1      25.733  42.163  52.757  1.00  0.00     0.164 HD
ENDBRANCH  22  23
BRANCH  22  30
HETATM   30  C   UNL     1      27.182  44.521  53.108  1.00  0.00    -0.035 A 
HETATM   31  C   UNL     1      26.913  45.752  53.729  1.00  0.00     0.011 A 
HETATM   32  C   UNL     1      27.705  46.210  54.785  1.00  0.00     0.024 A 
HETATM   33  C   UNL     1      28.779  45.444  55.232  1.00  0.00     0.034 A 
HETATM   34 CL   UNL     1      29.755  46.012  56.529  1.00  0.00    -0.084 Cl
HETATM   35  C   UNL     1      29.064  44.221  54.634  1.00  0.00     0.024 A 
HETATM   36  C   UNL     1      28.269  43.761  53.580  1.00  0.00     0.011 A 
ENDBRANCH  22  30
ENDBRANCH  21  22
ENDBRANCH   2  21
TORSDOF 7
ENDMDL
MODEL 7
REMARK VINA RESULT:      -8.5      4.888      7.748
REMARK  7 active torsions:
REMARK  status: ('A' for Active; 'I' for Inactive)
REMARK    1  A    between atoms: C_4  and  C_5 
REMARK    2  A    between atoms: C_9  and  C_10 
REMARK       I    between atoms: C_10  and  N_11 
REMARK    3  A    between atoms: N_11  and  N_12 
REMARK       I    between atoms: N_12  and  C_13 
REMARK    4  A    between atoms: C_13  and  C_14 
REMARK    5  A    between atoms: C_14  and  C_15 
REMARK    6  A    between atoms: C_15  and  N_16 
REMARK    7  A    between atoms: C_15  and  C_20 
REMARK       I    between atoms: N_16  and  C_17 
REMARK       I    between atoms: C_17  and  N_18 
ROOT
HETATM    1  N   UNL     1      25.075  42.993  50.708  1.00  0.00    -0.267 N 
HETATM    2  C   UNL     1      26.009  42.388  49.890  1.00  0.00     0.238 C 
HETATM    3  O   UNL     1      26.836  43.028  49.241  1.00  0.00    -0.272 OA
HETATM    4  H   UNL     1      24.191  42.482  50.837  1.00  0.00     0.190 HD
ENDROOT
BRANCH   1   5
HETATM    5  N   UNL     1      25.012  44.397  50.660  1.00  0.00    -0.262 N 
HETATM    6  C   UNL     1      25.327  45.245  51.704  1.00  0.00     0.288 C 
HETATM    7  O   UNL     1      24.925  46.407  51.661  1.00  0.00    -0.264 OA
HETATM    8  H   UNL     1      24.453  44.791  49.904  1.00  0.00     0.190 HD
BRANCH   6   9
HETATM    9  C   UNL     1      26.117  44.748  52.804  1.00  0.00     0.121 A 
HETATM   10  N   UNL     1      25.752  43.783  53.693  1.00  0.00    -0.272 N 
HETATM   11  N   UNL     1      26.656  43.535  54.656  1.00  0.00    -0.174 NA
HETATM   12  H   UNL     1      24.869  43.287  53.714  1.00  0.00     0.189 HD
HETATM   13  C   UNL     1      27.702  44.317  54.333  1.00  0.00     0.089 A 
HETATM   14  C   UNL     1      27.407  45.075  53.168  1.00  0.00     0.071 A 
BRANCH  13  15
HETATM   15  C   UNL     1      28.929  44.348  55.132  1.00  0.00    -0.006 A 
HETATM   16  C   UNL     1      29.229  45.452  55.945  1.00  0.00     0.014 A 
HETATM   17  C   UNL     1      30.388  45.465  56.728  1.00  0.00     0.001 A 
HETATM   18  C   UNL     1      31.256  44.376  56.708  1.00  0.00     0.000 A 
HETATM   19  C   UNL     1      30.973  43.276  55.902  1.00  0.00     0.001 A 
HETATM   20  C   UNL     1      29.818  43.264  55.115  1.00  0.00     0.014 A 
ENDBRANCH  13  15
ENDBRANCH   6   9
ENDBRANCH   1   5
BRANCH   2  21
HETATM   21  C   UNL     1      25.934  40.874  49.822  1.00  0.00     0.134 C 
BRANCH  21  22
HETATM   22  C   UNL     1      27.280  40.145  49.997  1.00  0.00     0.127 C 
BRANCH  22  23
HETATM   23  N   UNL     1      28.372  40.879  50.645  1.00  0.00    -0.339 N 
HETATM   24  C   UNL     1      28.436  41.315  51.925  1.00  0.00     0.292 C 
HETATM   25  N   UNL     1      29.522  42.082  52.169  1.00  0.00    -0.254 NA
HETATM   26  O   UNL     1      27.610  41.089  52.796  1.00  0.00    -0.254 OA
HETATM   27  H   UNL     1      29.843  42.697  51.436  1.00  0.00     0.128 HD
HETATM   28  H   UNL     1      29.491  42.532  53.079  1.00  0.00     0.128 HD
HETATM   29  H   UNL     1      29.199  41.028  50.085  1.00  0.00     0.164 HD
ENDBRANCH  22  23
BRANCH  22  30
HETATM   30  C   UNL     1      27.748  39.394  48.754  1.00  0.00    -0.035 A 
HETATM   31  C   UNL     1      27.253  39.676  47.470  1.00  0.00     0.011 A 
HETATM   32  C   UNL     1      27.681  38.941  46.361  1.00  0.00     0.024 A 
HETATM   33  C   UNL     1      28.606  37.913  46.523  1.00  0.00     0.034 A 
HETATM   34 CL   UNL     1      29.127  37.006  45.158  1.00  0.00    -0.084 Cl
HETATM   35  C   UNL     1      29.110  37.616  47.786  1.00  0.00     0.024 A 
HETATM   36  C   UNL     1      28.685  38.354  48.893  1.00  0.00     0.011 A 
ENDBRANCH  22  30
ENDBRANCH  21  22
ENDBRANCH   2  21
TORSDOF 7
ENDMDL
MODEL 8
REMARK VINA RESULT:      -8.5      3.933      7.256
REMARK  7 active torsions:
REMARK  status: ('A' for Active; 'I' for Inactive)
REMARK    1  A    between atoms: C_4  and  C_5 
REMARK    2  A    between atoms: C_9  and  C_10 
REMARK       I    between atoms: C_10  and  N_11 
REMARK    3  A    between atoms: N_11  and  N_12 
REMARK       I    between atoms: N_12  and  C_13 
REMARK    4  A    between atoms: C_13  and  C_14 
REMARK    5  A    between atoms: C_14  and  C_15 
REMARK    6  A    between atoms: C_15  and  N_16 
REMARK    7  A    between atoms: C_15  and  C_20 
REMARK       I    between atoms: N_16  and  C_17 
REMARK       I    between atoms: C_17  and  N_18 
ROOT
HETATM    1  N   UNL     1      25.226  45.483  49.103  1.00  0.00    -0.267 N 
HETATM    2  C   UNL     1      24.897  45.860  50.390  1.00  0.00     0.238 C 
HETATM    3  O   UNL     1      24.610  45.046  51.267  1.00  0.00    -0.272 OA
HETATM    4  H   UNL     1      25.009  46.167  48.364  1.00  0.00     0.190 HD
ENDROOT
BRANCH   1   5
HETATM    5  N   UNL     1      25.078  44.121  48.790  1.00  0.00    -0.262 N 
HETATM    6  C   UNL     1      23.942  43.545  48.254  1.00  0.00     0.288 C 
HETATM    7  O   UNL     1      23.808  42.324  48.332  1.00  0.00    -0.264 OA
HETATM    8  H   UNL     1      25.748  43.489  49.227  1.00  0.00     0.190 HD
BRANCH   6   9
HETATM    9  C   UNL     1      22.957  44.385  47.620  1.00  0.00     0.121 A 
HETATM   10  N   UNL     1      22.947  44.782  46.317  1.00  0.00    -0.272 N 
HETATM   11  N   UNL     1      21.938  45.606  45.988  1.00  0.00    -0.174 NA
HETATM   12  H   UNL     1      23.639  44.552  45.613  1.00  0.00     0.189 HD
HETATM   13  C   UNL     1      21.201  45.686  47.110  1.00  0.00     0.089 A 
HETATM   14  C   UNL     1      21.798  44.919  48.146  1.00  0.00     0.071 A 
BRANCH  13  15
HETATM   15  C   UNL     1      19.980  46.492  47.186  1.00  0.00    -0.006 A 
HETATM   16  C   UNL     1      19.085  46.341  48.255  1.00  0.00     0.014 A 
HETATM   17  C   UNL     1      17.935  47.132  48.338  1.00  0.00     0.001 A 
HETATM   18  C   UNL     1      17.670  48.084  47.356  1.00  0.00     0.000 A 
HETATM   19  C   UNL     1      18.547  48.241  46.286  1.00  0.00     0.001 A 
HETATM   20  C   UNL     1      19.694  47.446  46.199  1.00  0.00     0.014 A 
ENDBRANCH  13  15
ENDBRANCH   6   9
ENDBRANCH   1   5
BRANCH   2  21
HETATM   21  C   UNL     1      24.889  47.355  50.651  1.00  0.00     0.134 C 
BRANCH  21  22
HETATM   22  C   UNL     1      24.947  48.239  49.391  1.00  0.00     0.127 C 
BRANCH  22  23
HETATM   23  N   UNL     1      26.161  49.034  49.173  1.00  0.00    -0.339 N 
HETATM   24  C   UNL     1      27.421  48.586  48.964  1.00  0.00     0.292 C 
HETATM   25  N   UNL     1      28.337  49.580  48.938  1.00  0.00    -0.254 NA
HETATM   26  O   UNL     1      27.749  47.417  48.835  1.00  0.00    -0.254 OA
HETATM   27  H   UNL     1      28.203  50.365  49.557  1.00  0.00     0.128 HD
HETATM   28  H   UNL     1      29.293  49.235  48.935  1.00  0.00     0.128 HD
HETATM   29  H   UNL     1      26.031  50.034  49.117  1.00  0.00     0.164 HD
ENDBRANCH  22  23
BRANCH  22  30
HETATM   30  C   UNL     1      23.677  49.045  49.137  1.00  0.00    -0.035 A 
HETATM   31  C   UNL     1      22.392  48.491  49.263  1.00  0.00     0.011 A 
HETATM   32  C   UNL     1      21.253  49.252  48.986  1.00  0.00     0.024 A 
HETATM   33  C   UNL     1      21.386  50.577  48.577  1.00  0.00     0.034 A 
HETATM   34 CL   UNL     1      19.983  51.510  48.231  1.00  0.00    -0.084 Cl
HETATM   35  C   UNL     1      22.648  51.147  48.446  1.00  0.00     0.024 A 
HETATM   36  C   UNL     1      23.786  50.386  48.727  1.00  0.00     0.011 A 
ENDBRANCH  22  30
ENDBRANCH  21  22
ENDBRANCH   2  21
TORSDOF 7
ENDMDL
MODEL 9
REMARK VINA RESULT:      -8.5      1.956      2.787
REMARK  7 active torsions:
REMARK  status: ('A' for Active; 'I' for Inactive)
REMARK    1  A    between atoms: C_4  and  C_5 
REMARK    2  A    between atoms: C_9  and  C_10 
REMARK       I    between atoms: C_10  and  N_11 
REMARK    3  A    between atoms: N_11  and  N_12 
REMARK       I    between atoms: N_12  and  C_13 
REMARK    4  A    between atoms: C_13  and  C_14 
REMARK    5  A    between atoms: C_14  and  C_15 
REMARK    6  A    between atoms: C_15  and  N_16 
REMARK    7  A    between atoms: C_15  and  C_20 
REMARK       I    between atoms: N_16  and  C_17 
REMARK       I    between atoms: C_17  and  N_18 
ROOT
HETATM    1  N   UNL     1      23.055  45.444  49.792  1.00  0.00    -0.267 N 
HETATM    2  C   UNL     1      22.874  46.420  48.833  1.00  0.00     0.238 C 
HETATM    3  O   UNL     1      22.575  46.159  47.668  1.00  0.00    -0.272 OA
HETATM    4  H   UNL     1      23.709  45.675  50.553  1.00  0.00     0.190 HD
ENDROOT
BRANCH   1   5
HETATM    5  N   UNL     1      23.024  44.111  49.346  1.00  0.00    -0.262 N 
HETATM    6  C   UNL     1      24.131  43.301  49.176  1.00  0.00     0.288 C 
HETATM    7  O   UNL     1      24.021  42.292  48.480  1.00  0.00    -0.264 OA
HETATM    8  H   UNL     1      22.168  43.820  48.875  1.00  0.00     0.190 HD
BRANCH   6   9
HETATM    9  C   UNL     1      25.372  43.658  49.819  1.00  0.00     0.121 A 
HETATM   10  N   UNL     1      26.348  44.459  49.309  1.00  0.00    -0.272 N 
HETATM   11  N   UNL     1      27.430  44.595  50.094  1.00  0.00    -0.174 NA
HETATM   12  H   UNL     1      26.345  44.907  48.401  1.00  0.00     0.189 HD
HETATM   13  C   UNL     1      27.112  43.918  51.211  1.00  0.00     0.089 A 
HETATM   14  C   UNL     1      25.823  43.334  51.082  1.00  0.00     0.071 A 
BRANCH  13  15
HETATM   15  C   UNL     1      28.028  43.817  52.350  1.00  0.00    -0.006 A 
HETATM   16  C   UNL     1      27.769  44.509  53.543  1.00  0.00     0.014 A 
HETATM   17  C   UNL     1      28.631  44.388  54.638  1.00  0.00     0.001 A 
HETATM   18  C   UNL     1      29.757  43.572  54.552  1.00  0.00     0.000 A 
HETATM   19  C   UNL     1      30.029  42.883  53.372  1.00  0.00     0.001 A 
HETATM   20  C   UNL     1      29.171  43.008  52.276  1.00  0.00     0.014 A 
ENDBRANCH  13  15
ENDBRANCH   6   9
ENDBRANCH   1   5
BRANCH   2  21
HETATM   21  C   UNL     1      23.093  47.846  49.304  1.00  0.00     0.134 C 
BRANCH  21  22
HETATM   22  C   UNL     1      22.861  48.930  48.234  1.00  0.00     0.127 C 
BRANCH  22  23
HETATM   23  N   UNL     1      24.028  49.687  47.767  1.00  0.00    -0.339 N 
HETATM   24  C   UNL     1      25.301  49.616  48.222  1.00  0.00     0.292 C 
HETATM   25  N   UNL     1      26.111  50.549  47.673  1.00  0.00    -0.254 NA
HETATM   26  O   UNL     1      25.715  48.829  49.059  1.00  0.00    -0.254 OA
HETATM   27  H   UNL     1      25.722  51.459  47.476  1.00  0.00     0.128 HD
HETATM   28  H   UNL     1      27.020  50.595  48.123  1.00  0.00     0.128 HD
HETATM   29  H   UNL     1      23.874  50.294  46.975  1.00  0.00     0.164 HD
ENDBRANCH  22  23
BRANCH  22  30
HETATM   30  C   UNL     1      21.662  49.832  48.511  1.00  0.00    -0.035 A 
HETATM   31  C   UNL     1      20.762  50.222  47.505  1.00  0.00     0.011 A 
HETATM   32  C   UNL     1      19.695  51.078  47.793  1.00  0.00     0.024 A 
HETATM   33  C   UNL     1      19.518  51.557  49.088  1.00  0.00     0.034 A 
HETATM   34 CL   UNL     1      18.208  52.615  49.438  1.00  0.00    -0.084 Cl
HETATM   35  C   UNL     1      20.396  51.184  50.100  1.00  0.00     0.024 A 
HETATM   36  C   UNL     1      21.460  50.324  49.813  1.00  0.00     0.011 A 
ENDBRANCH  22  30
ENDBRANCH  21  22
ENDBRANCH   2  21
TORSDOF 7
ENDMDL
MODEL 10
REMARK VINA RESULT:      -8.5      3.755      6.318
REMARK  7 active torsions:
REMARK  status: ('A' for Active; 'I' for Inactive)
REMARK    1  A    between atoms: C_4  and  C_5 
REMARK    2  A    between atoms: C_9  and  C_10 
REMARK       I    between atoms: C_10  and  N_11 
REMARK    3  A    between atoms: N_11  and  N_12 
REMARK       I    between atoms: N_12  and  C_13 
REMARK    4  A    between atoms: C_13  and  C_14 
REMARK    5  A    between atoms: C_14  and  C_15 
REMARK    6  A    between atoms: C_15  and  N_16 
REMARK    7  A    between atoms: C_15  and  C_20 
REMARK       I    between atoms: N_16  and  C_17 
REMARK       I    between atoms: C_17  and  N_18 
ROOT
HETATM    1  N   UNL     1      23.122  51.106  48.922  1.00  0.00    -0.267 N 
HETATM    2  C   UNL     1      21.797  50.952  48.568  1.00  0.00     0.238 C 
HETATM    3  O   UNL     1      21.449  50.504  47.475  1.00  0.00    -0.272 OA
HETATM    4  H   UNL     1      23.325  51.858  49.594  1.00  0.00     0.190 HD
ENDROOT
BRANCH   1   5
HETATM    5  N   UNL     1      24.074  50.861  47.916  1.00  0.00    -0.262 N 
HETATM    6  C   UNL     1      25.096  49.934  47.994  1.00  0.00     0.288 C 
HETATM    7  O   UNL     1      26.045  50.038  47.217  1.00  0.00    -0.264 OA
HETATM    8  H   UNL     1      24.170  51.590  47.209  1.00  0.00     0.190 HD
BRANCH   6   9
HETATM    9  C   UNL     1      25.018  48.878  48.972  1.00  0.00     0.121 A 
HETATM   10  N   UNL     1      23.926  48.115  49.257  1.00  0.00    -0.272 N 
HETATM   11  N   UNL     1      24.103  47.227  50.249  1.00  0.00    -0.174 NA
HETATM   12  H   UNL     1      23.011  48.191  48.828  1.00  0.00     0.189 HD
HETATM   13  C   UNL     1      25.402  47.355  50.575  1.00  0.00     0.089 A 
HETATM   14  C   UNL     1      26.010  48.366  49.783  1.00  0.00     0.071 A 
BRANCH  13  15
HETATM   15  C   UNL     1      26.026  46.550  51.628  1.00  0.00    -0.006 A 
HETATM   16  C   UNL     1      26.491  45.254  51.360  1.00  0.00     0.014 A 
HETATM   17  C   UNL     1      27.111  44.499  52.361  1.00  0.00     0.001 A 
HETATM   18  C   UNL     1      27.275  45.033  53.637  1.00  0.00     0.000 A 
HETATM   19  C   UNL     1      26.813  46.317  53.918  1.00  0.00     0.001 A 
HETATM   20  C   UNL     1      26.188  47.070  52.920  1.00  0.00     0.014 A 
ENDBRANCH  13  15
ENDBRANCH   6   9
ENDBRANCH   1   5
BRANCH   2  21
HETATM   21  C   UNL     1      20.786  51.396  49.610  1.00  0.00     0.134 C 
BRANCH  21  22
HETATM   22  C   UNL     1      19.495  50.559  49.666  1.00  0.00     0.127 C 
BRANCH  22  23
HETATM   23  N   UNL     1      19.592  49.133  49.336  1.00  0.00    -0.339 N 
HETATM   24  C   UNL     1      19.084  48.084  50.023  1.00  0.00     0.292 C 
HETATM   25  N   UNL     1      19.471  46.888  49.525  1.00  0.00    -0.254 NA
HETATM   26  O   UNL     1      18.369  48.159  51.010  1.00  0.00    -0.254 OA
HETATM   27  H   UNL     1      20.405  46.810  49.152  1.00  0.00     0.128 HD
HETATM   28  H   UNL     1      19.217  46.110  50.127  1.00  0.00     0.128 HD
HETATM   29  H   UNL     1      20.046  48.911  48.462  1.00  0.00     0.164 HD
ENDBRANCH  22  23
BRANCH  22  30
HETATM   30  C   UNL     1      18.293  51.224  49.002  1.00  0.00    -0.035 A 
HETATM   31  C   UNL     1      17.146  51.602  49.719  1.00  0.00     0.011 A 
HETATM   32  C   UNL     1      16.050  52.176  49.067  1.00  0.00     0.024 A 
HETATM   33  C   UNL     1      16.089  52.377  47.690  1.00  0.00     0.034 A 
HETATM   34 CL   UNL     1      14.738  53.079  46.890  1.00  0.00    -0.084 Cl
HETATM   35  C   UNL     1      17.215  52.012  46.959  1.00  0.00     0.024 A 
HETATM   36  C   UNL     1      18.310  51.441  47.611  1.00  0.00     0.011 A 
ENDBRANCH  22  30
ENDBRANCH  21  22
ENDBRANCH   2  21
TORSDOF 7
ENDMDL
