MODEL 1
REMARK VINA RESULT:      -9.5      0.000      0.000
REMARK  9 active torsions:
REMARK  status: ('A' for Active; 'I' for Inactive)
REMARK       I    between atoms: C_2  and  N_3 
REMARK    1  A    between atoms: N_3  and  C_4 
REMARK    2  A    between atoms: C_7  and  C_8 
REMARK    3  A    between atoms: C_8  and  N_9 
REMARK    4  A    between atoms: C_11  and  C_12 
REMARK       I    between atoms: C_12  and  N_13 
REMARK    5  A    between atoms: N_13  and  C_14 
REMARK    6  A    between atoms: C_16  and  S_17 
REMARK    7  A    between atoms: C_24  and  N_25 
REMARK    8  A    between atoms: C_28  and  C_29 
REMARK    9  A    between atoms: C_29  and  O_30 
ROOT
HETATM    1  N   UNL     1      25.593  44.009  51.206  1.00  0.00    -0.052 N 
HETATM    2  H   UNL     1      25.563  43.364  52.010  1.00  0.00     0.281 HD
HETATM    3  C   UNL     1      25.256  43.197  49.941  1.00  0.00     0.282 C 
HETATM    4  C   UNL     1      24.870  44.290  48.957  1.00  0.00     0.072 C 
HETATM    5  C   UNL     1      24.080  45.298  49.818  1.00  0.00     0.134 C 
HETATM    6  C   UNL     1      24.493  45.036  51.277  1.00  0.00     0.263 C 
ENDROOT
BRANCH   1   7
HETATM    7  C   UNL     1      27.001  44.591  51.201  1.00  0.00     0.274 C 
BRANCH   7   8
HETATM    8  C   UNL     1      27.883  44.098  52.313  1.00  0.00    -0.032 A 
HETATM    9  C   UNL     1      28.973  43.263  52.038  1.00  0.00     0.011 A 
HETATM   10  C   UNL     1      29.871  42.912  53.051  1.00  0.00     0.030 A 
HETATM   11  C   UNL     1      29.708  43.394  54.350  1.00  0.00     0.034 A 
HETATM   12  C   UNL     1      28.592  44.191  54.634  1.00  0.00     0.030 A 
HETATM   13  C   UNL     1      27.687  44.541  53.627  1.00  0.00     0.011 A 
BRANCH  11  14
HETATM   14  N   UNL     1      30.626  43.170  55.395  1.00  0.00    -0.328 N 
HETATM   15  C   UNL     1      31.082  44.092  56.321  1.00  0.00     0.218 C 
HETATM   16  C   UNL     1      31.931  43.463  57.397  1.00  0.00     0.117 C 
HETATM   17  O   UNL     1      30.825  45.291  56.344  1.00  0.00    -0.274 OA
HETATM   18  H   UNL     1      30.939  42.215  55.519  1.00  0.00     0.169 HD
ENDBRANCH  11  14
ENDBRANCH   7   8
ENDBRANCH   1   7
BRANCH   3  19
HETATM   19  C   UNL     1      26.363  42.176  49.635  1.00  0.00     0.253 C 
HETATM   20  N   UNL     1      26.346  40.991  50.330  1.00  0.00    -0.325 N 
HETATM   21  H   UNL     1      25.839  40.929  51.207  1.00  0.00     0.169 HD
HETATM   22  O   UNL     1      27.139  42.471  48.723  1.00  0.00    -0.271 OA
BRANCH  20  23
HETATM   23  C   UNL     1      27.077  39.823  49.991  1.00  0.00     0.036 A 
HETATM   24  C   UNL     1      26.543  38.765  49.241  1.00  0.00     0.048 A 
HETATM   25  C   UNL     1      27.297  37.618  48.960  1.00  0.00     0.002 A 
HETATM   26  C   UNL     1      28.599  37.531  49.460  1.00  0.00     0.018 A 
HETATM   27  C   UNL     1      29.140  38.572  50.215  1.00  0.00     0.004 A 
HETATM   28  C   UNL     1      28.381  39.712  50.483  1.00  0.00     0.029 A 
BRANCH  25  29
HETATM   29  S   UNL     1      26.675  36.210  48.047  1.00  0.00    -0.134 SA
HETATM   30  C   UNL     1      27.602  36.283  46.490  1.00  0.00     0.095 C 
ENDBRANCH  25  29
ENDBRANCH  20  23
ENDBRANCH   3  19
BRANCH   5  31
HETATM   31  N   UNL     1      24.301  46.687  49.483  1.00  0.00    -0.276 N 
HETATM   32  N   UNL     1      25.207  47.396  50.171  1.00  0.00     0.005 NA
HETATM   33  N   UNL     1      24.999  48.677  49.903  1.00  0.00    -0.152 NA
HETATM   34  C   UNL     1      23.952  48.770  49.015  1.00  0.00     0.166 A 
HETATM   35  C   UNL     1      23.518  47.491  48.715  1.00  0.00     0.147 A 
BRANCH  34  36
HETATM   36  C   UNL     1      23.374  50.019  48.543  1.00  0.00     0.314 C 
HETATM   37  O   UNL     1      23.207  50.262  47.353  1.00  0.00    -0.257 OA
BRANCH  36  38
HETATM   38  O   UNL     1      23.000  50.841  49.564  1.00  0.00    -0.321 OA
HETATM   39  C   UNL     1      21.603  50.805  49.862  1.00  0.00     0.213 C 
ENDBRANCH  36  38
ENDBRANCH  34  36
ENDBRANCH   5  31
TORSDOF 9
ENDMDL
MODEL 2
REMARK VINA RESULT:      -8.8      3.274      9.319
REMARK  9 active torsions:
REMARK  status: ('A' for Active; 'I' for Inactive)
REMARK       I    between atoms: C_2  and  N_3 
REMARK    1  A    between atoms: N_3  and  C_4 
REMARK    2  A    between atoms: C_7  and  C_8 
REMARK    3  A    between atoms: C_8  and  N_9 
REMARK    4  A    between atoms: C_11  and  C_12 
REMARK       I    between atoms: C_12  and  N_13 
REMARK    5  A    between atoms: N_13  and  C_14 
REMARK    6  A    between atoms: C_16  and  S_17 
REMARK    7  A    between atoms: C_24  and  N_25 
REMARK    8  A    between atoms: C_28  and  C_29 
REMARK    9  A    between atoms: C_29  and  O_30 
ROOT
HETATM    1  N   UNL     1      25.240  45.124  51.800  1.00  0.00    -0.052 N 
HETATM    2  H   UNL     1      24.299  44.904  51.437  1.00  0.00     0.281 HD
HETATM    3  C   UNL     1      25.260  46.618  52.176  1.00  0.00     0.282 C 
HETATM    4  C   UNL     1      26.464  46.696  53.100  1.00  0.00     0.072 C 
HETATM    5  C   UNL     1      26.382  45.391  53.921  1.00  0.00     0.134 C 
HETATM    6  C   UNL     1      25.509  44.422  53.105  1.00  0.00     0.263 C 
ENDROOT
BRANCH   1   7
HETATM    7  C   UNL     1      26.204  44.763  50.677  1.00  0.00     0.274 C 
BRANCH   7   8
HETATM    8  C   UNL     1      26.341  43.290  50.422  1.00  0.00    -0.032 A 
HETATM    9  C   UNL     1      27.509  42.611  50.790  1.00  0.00     0.011 A 
HETATM   10  C   UNL     1      27.587  41.219  50.677  1.00  0.00     0.030 A 
HETATM   11  C   UNL     1      26.501  40.479  50.207  1.00  0.00     0.034 A 
HETATM   12  C   UNL     1      25.351  41.162  49.795  1.00  0.00     0.030 A 
HETATM   13  C   UNL     1      25.269  42.555  49.901  1.00  0.00     0.011 A 
BRANCH  11  14
HETATM   14  N   UNL     1      26.468  39.070  50.163  1.00  0.00    -0.328 N 
HETATM   15  C   UNL     1      26.955  38.252  49.159  1.00  0.00     0.218 C 
HETATM   16  C   UNL     1      26.898  36.790  49.523  1.00  0.00     0.117 C 
HETATM   17  O   UNL     1      27.433  38.615  48.089  1.00  0.00    -0.274 OA
HETATM   18  H   UNL     1      26.102  38.605  50.985  1.00  0.00     0.169 HD
ENDBRANCH  11  14
ENDBRANCH   7   8
ENDBRANCH   1   7
BRANCH   3  19
HETATM   19  C   UNL     1      25.134  47.499  50.923  1.00  0.00     0.253 C 
HETATM   20  N   UNL     1      23.883  47.649  50.374  1.00  0.00    -0.325 N 
HETATM   21  H   UNL     1      23.157  46.971  50.582  1.00  0.00     0.169 HD
HETATM   22  O   UNL     1      26.162  48.072  50.554  1.00  0.00    -0.271 OA
BRANCH  20  23
HETATM   23  C   UNL     1      23.510  48.636  49.424  1.00  0.00     0.036 A 
HETATM   24  C   UNL     1      22.178  48.937  49.101  1.00  0.00     0.048 A 
HETATM   25  C   UNL     1      21.864  49.898  48.132  1.00  0.00     0.002 A 
HETATM   26  C   UNL     1      22.908  50.549  47.468  1.00  0.00     0.018 A 
HETATM   27  C   UNL     1      24.237  50.254  47.773  1.00  0.00     0.004 A 
HETATM   28  C   UNL     1      24.537  49.298  48.745  1.00  0.00     0.029 A 
BRANCH  25  29
HETATM   29  S   UNL     1      20.195  50.309  47.634  1.00  0.00    -0.134 SA
HETATM   30  C   UNL     1      19.844  51.824  48.568  1.00  0.00     0.095 C 
ENDBRANCH  25  29
ENDBRANCH  20  23
ENDBRANCH   3  19
BRANCH   5  31
HETATM   31  N   UNL     1      27.658  44.778  54.216  1.00  0.00    -0.276 N 
HETATM   32  N   UNL     1      27.822  43.464  54.011  1.00  0.00     0.005 NA
HETATM   33  N   UNL     1      28.930  43.097  54.640  1.00  0.00    -0.152 NA
HETATM   34  C   UNL     1      29.479  44.209  55.236  1.00  0.00     0.166 A 
HETATM   35  C   UNL     1      28.682  45.301  54.941  1.00  0.00     0.147 A 
BRANCH  34  36
HETATM   36  C   UNL     1      30.660  44.195  56.087  1.00  0.00     0.314 C 
HETATM   37  O   UNL     1      31.439  43.250  56.119  1.00  0.00    -0.257 OA
BRANCH  36  38
HETATM   38  O   UNL     1      30.818  45.358  56.781  1.00  0.00    -0.321 OA
HETATM   39  C   UNL     1      30.630  45.227  58.191  1.00  0.00     0.213 C 
ENDBRANCH  36  38
ENDBRANCH  34  36
ENDBRANCH   5  31
TORSDOF 9
ENDMDL
MODEL 3
REMARK VINA RESULT:      -8.7      3.525      8.779
REMARK  9 active torsions:
REMARK  status: ('A' for Active; 'I' for Inactive)
REMARK       I    between atoms: C_2  and  N_3 
REMARK    1  A    between atoms: N_3  and  C_4 
REMARK    2  A    between atoms: C_7  and  C_8 
REMARK    3  A    between atoms: C_8  and  N_9 
REMARK    4  A    between atoms: C_11  and  C_12 
REMARK       I    between atoms: C_12  and  N_13 
REMARK    5  A    between atoms: N_13  and  C_14 
REMARK    6  A    between atoms: C_16  and  S_17 
REMARK    7  A    between atoms: C_24  and  N_25 
REMARK    8  A    between atoms: C_28  and  C_29 
REMARK    9  A    between atoms: C_29  and  O_30 
ROOT
HETATM    1  N   UNL     1      25.914  43.020  50.383  1.00  0.00    -0.052 N 
HETATM    2  H   UNL     1      25.145  43.377  50.970  1.00  0.00     0.281 HD
HETATM    3  C   UNL     1      27.010  42.482  51.323  1.00  0.00     0.282 C 
HETATM    4  C   UNL     1      27.815  41.590  50.392  1.00  0.00     0.072 C 
HETATM    5  C   UNL     1      26.743  40.914  49.511  1.00  0.00     0.134 C 
HETATM    6  C   UNL     1      25.492  41.807  49.594  1.00  0.00     0.263 C 
ENDROOT
BRANCH   1   7
HETATM    7  C   UNL     1      26.363  44.202  49.534  1.00  0.00     0.274 C 
BRANCH   7   8
HETATM    8  C   UNL     1      25.499  45.424  49.660  1.00  0.00    -0.032 A 
HETATM    9  C   UNL     1      26.044  46.636  50.101  1.00  0.00     0.011 A 
HETATM   10  C   UNL     1      25.275  47.804  50.092  1.00  0.00     0.030 A 
HETATM   11  C   UNL     1      23.957  47.789  49.634  1.00  0.00     0.034 A 
HETATM   12  C   UNL     1      23.399  46.568  49.236  1.00  0.00     0.030 A 
HETATM   13  C   UNL     1      24.161  45.395  49.248  1.00  0.00     0.011 A 
BRANCH  11  14
HETATM   14  N   UNL     1      23.157  48.941  49.497  1.00  0.00    -0.328 N 
HETATM   15  C   UNL     1      23.130  49.819  48.427  1.00  0.00     0.218 C 
HETATM   16  C   UNL     1      22.033  50.848  48.549  1.00  0.00     0.117 C 
HETATM   17  O   UNL     1      23.859  49.791  47.442  1.00  0.00    -0.274 OA
HETATM   18  H   UNL     1      22.485  49.110  50.235  1.00  0.00     0.169 HD
ENDBRANCH  11  14
ENDBRANCH   7   8
ENDBRANCH   1   7
BRANCH   3  19
HETATM   19  C   UNL     1      27.657  43.626  52.119  1.00  0.00     0.253 C 
HETATM   20  N   UNL     1      26.830  44.420  52.877  1.00  0.00    -0.325 N 
HETATM   21  H   UNL     1      25.838  44.455  52.671  1.00  0.00     0.169 HD
HETATM   22  O   UNL     1      28.888  43.691  52.077  1.00  0.00    -0.271 OA
BRANCH  20  23
HETATM   23  C   UNL     1      27.250  45.314  53.897  1.00  0.00     0.036 A 
HETATM   24  C   UNL     1      28.307  45.042  54.779  1.00  0.00     0.048 A 
HETATM   25  C   UNL     1      28.661  45.945  55.791  1.00  0.00     0.002 A 
HETATM   26  C   UNL     1      27.926  47.126  55.924  1.00  0.00     0.018 A 
HETATM   27  C   UNL     1      26.867  47.405  55.060  1.00  0.00     0.004 A 
HETATM   28  C   UNL     1      26.528  46.501  54.052  1.00  0.00     0.029 A 
BRANCH  25  29
HETATM   29  S   UNL     1      29.966  45.653  56.980  1.00  0.00    -0.134 SA
HETATM   30  C   UNL     1      30.886  44.268  56.255  1.00  0.00     0.095 C 
ENDBRANCH  25  29
ENDBRANCH  20  23
ENDBRANCH   3  19
BRANCH   5  31
HETATM   31  N   UNL     1      27.124  40.725  48.129  1.00  0.00    -0.276 N 
HETATM   32  N   UNL     1      28.327  41.146  47.712  1.00  0.00     0.005 NA
HETATM   33  N   UNL     1      28.310  41.153  46.387  1.00  0.00    -0.152 NA
HETATM   34  C   UNL     1      27.077  40.710  45.967  1.00  0.00     0.166 A 
HETATM   35  C   UNL     1      26.320  40.402  47.082  1.00  0.00     0.147 A 
BRANCH  34  36
HETATM   36  C   UNL     1      26.647  40.653  44.577  1.00  0.00     0.314 C 
HETATM   37  O   UNL     1      25.628  40.071  44.225  1.00  0.00    -0.257 OA
BRANCH  36  38
HETATM   38  O   UNL     1      27.466  41.358  43.746  1.00  0.00    -0.321 OA
HETATM   39  C   UNL     1      26.786  42.302  42.917  1.00  0.00     0.213 C 
ENDBRANCH  36  38
ENDBRANCH  34  36
ENDBRANCH   5  31
TORSDOF 9
ENDMDL
MODEL 4
REMARK VINA RESULT:      -8.5      6.380     10.691
REMARK  9 active torsions:
REMARK  status: ('A' for Active; 'I' for Inactive)
REMARK       I    between atoms: C_2  and  N_3 
REMARK    1  A    between atoms: N_3  and  C_4 
REMARK    2  A    between atoms: C_7  and  C_8 
REMARK    3  A    between atoms: C_8  and  N_9 
REMARK    4  A    between atoms: C_11  and  C_12 
REMARK       I    between atoms: C_12  and  N_13 
REMARK    5  A    between atoms: N_13  and  C_14 
REMARK    6  A    between atoms: C_16  and  S_17 
REMARK    7  A    between atoms: C_24  and  N_25 
REMARK    8  A    between atoms: C_28  and  C_29 
REMARK    9  A    between atoms: C_29  and  O_30 
ROOT
HETATM    1  N   UNL     1      20.102  49.970  47.711  1.00  0.00    -0.052 N 
HETATM    2  H   UNL     1      20.628  49.519  46.946  1.00  0.00     0.281 HD
HETATM    3  C   UNL     1      21.015  51.040  48.340  1.00  0.00     0.282 C 
HETATM    4  C   UNL     1      20.015  51.915  49.079  1.00  0.00     0.072 C 
HETATM    5  C   UNL     1      18.804  51.976  48.123  1.00  0.00     0.134 C 
HETATM    6  C   UNL     1      18.932  50.761  47.187  1.00  0.00     0.263 C 
ENDROOT
BRANCH   1   7
HETATM    7  C   UNL     1      19.729  48.846  48.668  1.00  0.00     0.274 C 
BRANCH   7   8
HETATM    8  C   UNL     1      19.775  47.471  48.064  1.00  0.00    -0.032 A 
HETATM    9  C   UNL     1      18.761  46.543  48.331  1.00  0.00     0.011 A 
HETATM   10  C   UNL     1      18.732  45.313  47.666  1.00  0.00     0.030 A 
HETATM   11  C   UNL     1      19.703  44.991  46.717  1.00  0.00     0.034 A 
HETATM   12  C   UNL     1      20.742  45.899  46.485  1.00  0.00     0.030 A 
HETATM   13  C   UNL     1      20.780  47.129  47.151  1.00  0.00     0.011 A 
BRANCH  11  14
HETATM   14  N   UNL     1      19.680  43.819  45.934  1.00  0.00    -0.328 N 
HETATM   15  C   UNL     1      20.491  42.706  46.069  1.00  0.00     0.218 C 
HETATM   16  C   UNL     1      20.076  41.572  45.165  1.00  0.00     0.117 C 
HETATM   17  O   UNL     1      21.430  42.577  46.848  1.00  0.00    -0.274 OA
HETATM   18  H   UNL     1      18.949  43.761  45.235  1.00  0.00     0.169 HD
ENDBRANCH  11  14
ENDBRANCH   7   8
ENDBRANCH   1   7
BRANCH   3  19
HETATM   19  C   UNL     1      22.211  50.388  49.052  1.00  0.00     0.253 C 
HETATM   20  N   UNL     1      23.023  49.565  48.308  1.00  0.00    -0.325 N 
HETATM   21  H   UNL     1      22.674  49.160  47.446  1.00  0.00     0.169 HD
HETATM   22  O   UNL     1      22.396  50.722  50.225  1.00  0.00    -0.271 OA
BRANCH  20  23
HETATM   23  C   UNL     1      24.317  49.120  48.685  1.00  0.00     0.036 A 
HETATM   24  C   UNL     1      24.544  48.013  49.516  1.00  0.00     0.048 A 
HETATM   25  C   UNL     1      25.842  47.635  49.886  1.00  0.00     0.002 A 
HETATM   26  C   UNL     1      26.920  48.396  49.425  1.00  0.00     0.018 A 
HETATM   27  C   UNL     1      26.708  49.504  48.605  1.00  0.00     0.004 A 
HETATM   28  C   UNL     1      25.411  49.867  48.240  1.00  0.00     0.029 A 
BRANCH  25  29
HETATM   29  S   UNL     1      26.213  46.264  50.974  1.00  0.00    -0.134 SA
HETATM   30  C   UNL     1      26.093  47.001  52.627  1.00  0.00     0.095 C 
ENDBRANCH  25  29
ENDBRANCH  20  23
ENDBRANCH   3  19
BRANCH   5  31
HETATM   31  N   UNL     1      17.514  51.964  48.776  1.00  0.00    -0.276 N 
HETATM   32  N   UNL     1      16.505  51.269  48.232  1.00  0.00     0.005 NA
HETATM   33  N   UNL     1      15.386  51.666  48.819  1.00  0.00    -0.152 NA
HETATM   34  C   UNL     1      15.703  52.617  49.762  1.00  0.00     0.166 A 
HETATM   35  C   UNL     1      17.075  52.790  49.763  1.00  0.00     0.147 A 
BRANCH  34  36
HETATM   36  C   UNL     1      14.731  53.349  50.560  1.00  0.00     0.314 C 
HETATM   37  O   UNL     1      13.697  52.838  50.975  1.00  0.00    -0.257 OA
BRANCH  36  38
HETATM   38  O   UNL     1      15.131  54.624  50.832  1.00  0.00    -0.321 OA
HETATM   39  C   UNL     1      14.670  55.128  52.086  1.00  0.00     0.213 C 
ENDBRANCH  36  38
ENDBRANCH  34  36
ENDBRANCH   5  31
TORSDOF 9
ENDMDL
MODEL 5
REMARK VINA RESULT:      -8.1     17.521     19.220
REMARK  9 active torsions:
REMARK  status: ('A' for Active; 'I' for Inactive)
REMARK       I    between atoms: C_2  and  N_3 
REMARK    1  A    between atoms: N_3  and  C_4 
REMARK    2  A    between atoms: C_7  and  C_8 
REMARK    3  A    between atoms: C_8  and  N_9 
REMARK    4  A    between atoms: C_11  and  C_12 
REMARK       I    between atoms: C_12  and  N_13 
REMARK    5  A    between atoms: N_13  and  C_14 
REMARK    6  A    between atoms: C_16  and  S_17 
REMARK    7  A    between atoms: C_24  and  N_25 
REMARK    8  A    between atoms: C_28  and  C_29 
REMARK    9  A    between atoms: C_29  and  O_30 
ROOT
HETATM    1  N   UNL     1      37.791  42.417  63.346  1.00  0.00    -0.052 N 
HETATM    2  H   UNL     1      37.197  41.852  62.721  1.00  0.00     0.281 HD
HETATM    3  C   UNL     1      39.250  42.261  62.873  1.00  0.00     0.282 C 
HETATM    4  C   UNL     1      39.924  43.457  63.526  1.00  0.00     0.072 C 
HETATM    5  C   UNL     1      38.877  44.584  63.398  1.00  0.00     0.134 C 
HETATM    6  C   UNL     1      37.519  43.890  63.189  1.00  0.00     0.263 C 
ENDROOT
BRANCH   1   7
HETATM    7  C   UNL     1      37.543  41.873  64.747  1.00  0.00     0.274 C 
BRANCH   7   8
HETATM    8  C   UNL     1      36.242  42.305  65.361  1.00  0.00    -0.032 A 
HETATM    9  C   UNL     1      35.096  41.511  65.227  1.00  0.00     0.011 A 
HETATM   10  C   UNL     1      33.920  41.842  65.908  1.00  0.00     0.030 A 
HETATM   11  C   UNL     1      33.867  42.960  66.741  1.00  0.00     0.034 A 
HETATM   12  C   UNL     1      34.999  43.778  66.839  1.00  0.00     0.030 A 
HETATM   13  C   UNL     1      36.176  43.455  66.156  1.00  0.00     0.011 A 
BRANCH  11  14
HETATM   14  N   UNL     1      32.754  43.296  67.538  1.00  0.00    -0.328 N 
HETATM   15  C   UNL     1      32.381  42.721  68.740  1.00  0.00     0.218 C 
HETATM   16  C   UNL     1      31.231  43.443  69.397  1.00  0.00     0.117 C 
HETATM   17  O   UNL     1      32.911  41.758  69.284  1.00  0.00    -0.274 OA
HETATM   18  H   UNL     1      32.204  44.087  67.228  1.00  0.00     0.169 HD
ENDBRANCH  11  14
ENDBRANCH   7   8
ENDBRANCH   1   7
BRANCH   3  19
HETATM   19  C   UNL     1      39.746  40.823  63.094  1.00  0.00     0.253 C 
HETATM   20  N   UNL     1      40.547  40.588  64.185  1.00  0.00    -0.325 N 
HETATM   21  H   UNL     1      41.040  41.358  64.624  1.00  0.00     0.169 HD
HETATM   22  O   UNL     1      39.315  39.972  62.313  1.00  0.00    -0.271 OA
BRANCH  20  23
HETATM   23  C   UNL     1      40.853  39.311  64.726  1.00  0.00     0.036 A 
HETATM   24  C   UNL     1      42.067  38.645  64.502  1.00  0.00     0.048 A 
HETATM   25  C   UNL     1      42.307  37.370  65.033  1.00  0.00     0.002 A 
HETATM   26  C   UNL     1      41.300  36.755  65.782  1.00  0.00     0.018 A 
HETATM   27  C   UNL     1      40.085  37.402  66.005  1.00  0.00     0.004 A 
HETATM   28  C   UNL     1      39.860  38.674  65.476  1.00  0.00     0.029 A 
BRANCH  25  29
HETATM   29  S   UNL     1      43.810  36.439  64.759  1.00  0.00    -0.134 SA
HETATM   30  C   UNL     1      45.069  37.730  64.564  1.00  0.00     0.095 C 
ENDBRANCH  25  29
ENDBRANCH  20  23
ENDBRANCH   3  19
BRANCH   5  31
HETATM   31  N   UNL     1      38.806  45.478  64.532  1.00  0.00    -0.276 N 
HETATM   32  N   UNL     1      39.405  45.136  65.681  1.00  0.00     0.005 NA
HETATM   33  N   UNL     1      38.939  45.937  66.628  1.00  0.00    -0.152 NA
HETATM   34  C   UNL     1      38.042  46.810  66.056  1.00  0.00     0.166 A 
HETATM   35  C   UNL     1      37.976  46.541  64.700  1.00  0.00     0.147 A 
BRANCH  34  36
HETATM   36  C   UNL     1      37.259  47.792  66.790  1.00  0.00     0.314 C 
HETATM   37  O   UNL     1      36.915  47.626  67.954  1.00  0.00    -0.257 OA
BRANCH  36  38
HETATM   38  O   UNL     1      37.009  48.915  66.058  1.00  0.00    -0.321 OA
HETATM   39  C   UNL     1      37.711  50.075  66.509  1.00  0.00     0.213 C 
ENDBRANCH  36  38
ENDBRANCH  34  36
ENDBRANCH   5  31
TORSDOF 9
ENDMDL
MODEL 6
REMARK VINA RESULT:      -8.0      8.366     15.223
REMARK  9 active torsions:
REMARK  status: ('A' for Active; 'I' for Inactive)
REMARK       I    between atoms: C_2  and  N_3 
REMARK    1  A    between atoms: N_3  and  C_4 
REMARK    2  A    between atoms: C_7  and  C_8 
REMARK    3  A    between atoms: C_8  and  N_9 
REMARK    4  A    between atoms: C_11  and  C_12 
REMARK       I    between atoms: C_12  and  N_13 
REMARK    5  A    between atoms: N_13  and  C_14 
REMARK    6  A    between atoms: C_16  and  S_17 
REMARK    7  A    between atoms: C_24  and  N_25 
REMARK    8  A    between atoms: C_28  and  C_29 
REMARK    9  A    between atoms: C_29  and  O_30 
ROOT
HETATM    1  N   UNL     1      18.358  49.792  49.038  1.00  0.00    -0.052 N 
HETATM    2  H   UNL     1      17.428  49.400  49.251  1.00  0.00     0.281 HD
HETATM    3  C   UNL     1      18.553  51.041  49.919  1.00  0.00     0.282 C 
HETATM    4  C   UNL     1      20.061  51.228  49.876  1.00  0.00     0.072 C 
HETATM    5  C   UNL     1      20.611  49.787  49.935  1.00  0.00     0.134 C 
HETATM    6  C   UNL     1      19.464  48.868  49.478  1.00  0.00     0.263 C 
ENDROOT
BRANCH   1   7
HETATM    7  C   UNL     1      18.343  50.094  47.545  1.00  0.00     0.274 C 
BRANCH   7   8
HETATM    8  C   UNL     1      17.058  49.742  46.852  1.00  0.00    -0.032 A 
HETATM    9  C   UNL     1      16.966  49.796  45.456  1.00  0.00     0.011 A 
HETATM   10  C   UNL     1      15.817  49.342  44.801  1.00  0.00     0.030 A 
HETATM   11  C   UNL     1      14.745  48.816  45.523  1.00  0.00     0.034 A 
HETATM   12  C   UNL     1      14.818  48.804  46.921  1.00  0.00     0.030 A 
HETATM   13  C   UNL     1      15.963  49.263  47.581  1.00  0.00     0.011 A 
BRANCH  11  14
HETATM   14  N   UNL     1      13.601  48.245  44.930  1.00  0.00    -0.328 N 
HETATM   15  C   UNL     1      13.500  46.999  44.335  1.00  0.00     0.218 C 
HETATM   16  C   UNL     1      12.082  46.650  43.956  1.00  0.00     0.117 C 
HETATM   17  O   UNL     1      14.415  46.204  44.147  1.00  0.00    -0.274 OA
HETATM   18  H   UNL     1      12.744  48.779  45.004  1.00  0.00     0.169 HD
ENDBRANCH  11  14
ENDBRANCH   7   8
ENDBRANCH   1   7
BRANCH   3  19
HETATM   19  C   UNL     1      17.580  52.158  49.507  1.00  0.00     0.253 C 
HETATM   20  N   UNL     1      16.281  52.062  49.944  1.00  0.00    -0.325 N 
HETATM   21  H   UNL     1      15.913  51.164  50.238  1.00  0.00     0.169 HD
HETATM   22  O   UNL     1      18.068  53.100  48.879  1.00  0.00    -0.271 OA
BRANCH  20  23
HETATM   23  C   UNL     1      15.326  53.112  49.931  1.00  0.00     0.036 A 
HETATM   24  C   UNL     1      14.972  53.852  51.069  1.00  0.00     0.048 A 
HETATM   25  C   UNL     1      13.998  54.858  51.010  1.00  0.00     0.002 A 
HETATM   26  C   UNL     1      13.361  55.105  49.791  1.00  0.00     0.018 A 
HETATM   27  C   UNL     1      13.697  54.372  48.653  1.00  0.00     0.004 A 
HETATM   28  C   UNL     1      14.672  53.376  48.723  1.00  0.00     0.029 A 
BRANCH  25  29
HETATM   29  S   UNL     1      13.462  55.816  52.423  1.00  0.00    -0.134 SA
HETATM   30  C   UNL     1      14.848  56.952  52.705  1.00  0.00     0.095 C 
ENDBRANCH  25  29
ENDBRANCH  20  23
ENDBRANCH   3  19
BRANCH   5  31
HETATM   31  N   UNL     1      21.785  49.552  49.125  1.00  0.00    -0.276 N 
HETATM   32  N   UNL     1      21.899  48.401  48.445  1.00  0.00     0.005 NA
HETATM   33  N   UNL     1      23.161  48.292  48.056  1.00  0.00    -0.152 NA
HETATM   34  C   UNL     1      23.847  49.405  48.486  1.00  0.00     0.166 A 
HETATM   35  C   UNL     1      22.960  50.235  49.147  1.00  0.00     0.147 A 
BRANCH  34  36
HETATM   36  C   UNL     1      25.278  49.612  48.319  1.00  0.00     0.314 C 
HETATM   37  O   UNL     1      25.748  50.255  47.389  1.00  0.00    -0.257 OA
BRANCH  36  38
HETATM   38  O   UNL     1      26.007  49.065  49.334  1.00  0.00    -0.321 OA
HETATM   39  C   UNL     1      27.414  49.026  49.087  1.00  0.00     0.213 C 
ENDBRANCH  36  38
ENDBRANCH  34  36
ENDBRANCH   5  31
TORSDOF 9
ENDMDL
MODEL 7
REMARK VINA RESULT:      -8.0      3.654      7.443
REMARK  9 active torsions:
REMARK  status: ('A' for Active; 'I' for Inactive)
REMARK       I    between atoms: C_2  and  N_3 
REMARK    1  A    between atoms: N_3  and  C_4 
REMARK    2  A    between atoms: C_7  and  C_8 
REMARK    3  A    between atoms: C_8  and  N_9 
REMARK    4  A    between atoms: C_11  and  C_12 
REMARK       I    between atoms: C_12  and  N_13 
REMARK    5  A    between atoms: N_13  and  C_14 
REMARK    6  A    between atoms: C_16  and  S_17 
REMARK    7  A    between atoms: C_24  and  N_25 
REMARK    8  A    between atoms: C_28  and  C_29 
REMARK    9  A    between atoms: C_29  and  O_30 
ROOT
HETATM    1  N   UNL     1      26.707  43.916  50.741  1.00  0.00    -0.052 N 
HETATM    2  H   UNL     1      27.689  43.689  50.519  1.00  0.00     0.281 HD
HETATM    3  C   UNL     1      26.712  45.062  51.772  1.00  0.00     0.282 C 
HETATM    4  C   UNL     1      25.297  45.603  51.650  1.00  0.00     0.072 C 
HETATM    5  C   UNL     1      25.006  45.533  50.136  1.00  0.00     0.134 C 
HETATM    6  C   UNL     1      25.992  44.505  49.554  1.00  0.00     0.263 C 
ENDROOT
BRANCH   1   7
HETATM    7  C   UNL     1      26.099  42.623  51.268  1.00  0.00     0.274 C 
BRANCH   7   8
HETATM    8  C   UNL     1      26.542  41.384  50.543  1.00  0.00    -0.032 A 
HETATM    9  C   UNL     1      25.694  40.760  49.620  1.00  0.00     0.011 A 
HETATM   10  C   UNL     1      26.153  39.688  48.847  1.00  0.00     0.030 A 
HETATM   11  C   UNL     1      27.464  39.228  48.971  1.00  0.00     0.034 A 
HETATM   12  C   UNL     1      28.296  39.822  49.926  1.00  0.00     0.030 A 
HETATM   13  C   UNL     1      27.842  40.891  50.707  1.00  0.00     0.011 A 
BRANCH  11  14
HETATM   14  N   UNL     1      28.027  38.225  48.156  1.00  0.00    -0.328 N 
HETATM   15  C   UNL     1      28.288  38.299  46.799  1.00  0.00     0.218 C 
HETATM   16  C   UNL     1      29.047  37.100  46.288  1.00  0.00     0.117 C 
HETATM   17  O   UNL     1      27.999  39.226  46.049  1.00  0.00    -0.274 OA
HETATM   18  H   UNL     1      28.330  37.382  48.628  1.00  0.00     0.169 HD
ENDBRANCH  11  14
ENDBRANCH   7   8
ENDBRANCH   1   7
BRANCH   3  19
HETATM   19  C   UNL     1      27.292  44.587  53.114  1.00  0.00     0.253 C 
HETATM   20  N   UNL     1      28.637  44.311  53.163  1.00  0.00    -0.325 N 
HETATM   21  H   UNL     1      29.144  44.120  52.306  1.00  0.00     0.169 HD
HETATM   22  O   UNL     1      26.512  44.570  54.069  1.00  0.00    -0.271 OA
BRANCH  20  23
HETATM   23  C   UNL     1      29.407  44.159  54.347  1.00  0.00     0.036 A 
HETATM   24  C   UNL     1      29.357  45.055  55.424  1.00  0.00     0.048 A 
HETATM   25  C   UNL     1      30.162  44.877  56.557  1.00  0.00     0.002 A 
HETATM   26  C   UNL     1      31.041  43.791  56.592  1.00  0.00     0.018 A 
HETATM   27  C   UNL     1      31.107  42.896  55.524  1.00  0.00     0.004 A 
HETATM   28  C   UNL     1      30.296  43.081  54.404  1.00  0.00     0.029 A 
BRANCH  25  29
HETATM   29  S   UNL     1      30.188  45.996  57.953  1.00  0.00    -0.134 SA
HETATM   30  C   UNL     1      28.466  46.556  58.069  1.00  0.00     0.095 C 
ENDBRANCH  25  29
ENDBRANCH  20  23
ENDBRANCH   3  19
BRANCH   5  31
HETATM   31  N   UNL     1      23.650  45.166  49.794  1.00  0.00    -0.276 N 
HETATM   32  N   UNL     1      23.080  44.112  50.395  1.00  0.00     0.005 NA
HETATM   33  N   UNL     1      21.996  43.795  49.702  1.00  0.00    -0.152 NA
HETATM   34  C   UNL     1      21.876  44.681  48.656  1.00  0.00     0.166 A 
HETATM   35  C   UNL     1      22.919  45.586  48.728  1.00  0.00     0.147 A 
BRANCH  34  36
HETATM   36  C   UNL     1      20.852  44.609  47.623  1.00  0.00     0.314 C 
HETATM   37  O   UNL     1      20.164  45.572  47.308  1.00  0.00    -0.257 OA
BRANCH  36  38
HETATM   38  O   UNL     1      20.797  43.385  47.026  1.00  0.00    -0.321 OA
HETATM   39  C   UNL     1      19.868  43.304  45.943  1.00  0.00     0.213 C 
ENDBRANCH  36  38
ENDBRANCH  34  36
ENDBRANCH   5  31
TORSDOF 9
ENDMDL
MODEL 8
REMARK VINA RESULT:      -7.9      3.575      6.422
REMARK  9 active torsions:
REMARK  status: ('A' for Active; 'I' for Inactive)
REMARK       I    between atoms: C_2  and  N_3 
REMARK    1  A    between atoms: N_3  and  C_4 
REMARK    2  A    between atoms: C_7  and  C_8 
REMARK    3  A    between atoms: C_8  and  N_9 
REMARK    4  A    between atoms: C_11  and  C_12 
REMARK       I    between atoms: C_12  and  N_13 
REMARK    5  A    between atoms: N_13  and  C_14 
REMARK    6  A    between atoms: C_16  and  S_17 
REMARK    7  A    between atoms: C_24  and  N_25 
REMARK    8  A    between atoms: C_28  and  C_29 
REMARK    9  A    between atoms: C_29  and  O_30 
ROOT
HETATM    1  N   UNL     1      24.460  44.329  48.544  1.00  0.00    -0.052 N 
HETATM    2  H   UNL     1      25.255  43.843  48.103  1.00  0.00     0.281 HD
HETATM    3  C   UNL     1      24.935  45.741  48.940  1.00  0.00     0.282 C 
HETATM    4  C   UNL     1      23.618  46.480  49.116  1.00  0.00     0.072 C 
HETATM    5  C   UNL     1      22.736  45.935  47.973  1.00  0.00     0.134 C 
HETATM    6  C   UNL     1      23.352  44.588  47.556  1.00  0.00     0.263 C 
ENDROOT
BRANCH   1   7
HETATM    7  C   UNL     1      24.058  43.464  49.731  1.00  0.00     0.274 C 
BRANCH   7   8
HETATM    8  C   UNL     1      24.883  42.221  49.904  1.00  0.00    -0.032 A 
HETATM    9  C   UNL     1      24.895  41.233  48.912  1.00  0.00     0.011 A 
HETATM   10  C   UNL     1      25.762  40.140  49.008  1.00  0.00     0.030 A 
HETATM   11  C   UNL     1      26.641  40.018  50.085  1.00  0.00     0.034 A 
HETATM   12  C   UNL     1      26.596  40.982  51.099  1.00  0.00     0.030 A 
HETATM   13  C   UNL     1      25.727  42.074  51.012  1.00  0.00     0.011 A 
BRANCH  11  14
HETATM   14  N   UNL     1      27.613  39.004  50.197  1.00  0.00    -0.328 N 
HETATM   15  C   UNL     1      28.831  38.937  49.543  1.00  0.00     0.218 C 
HETATM   16  C   UNL     1      29.689  37.796  50.030  1.00  0.00     0.117 C 
HETATM   17  O   UNL     1      29.243  39.711  48.686  1.00  0.00    -0.274 OA
HETATM   18  H   UNL     1      27.427  38.278  50.878  1.00  0.00     0.169 HD
ENDBRANCH  11  14
ENDBRANCH   7   8
ENDBRANCH   1   7
BRANCH   3  19
HETATM   19  C   UNL     1      25.987  45.670  50.059  1.00  0.00     0.253 C 
HETATM   20  N   UNL     1      25.628  46.141  51.299  1.00  0.00    -0.325 N 
HETATM   21  H   UNL     1      24.849  46.784  51.388  1.00  0.00     0.169 HD
HETATM   22  O   UNL     1      27.050  45.116  49.772  1.00  0.00    -0.271 OA
BRANCH  20  23
HETATM   23  C   UNL     1      26.326  45.894  52.510  1.00  0.00     0.036 A 
HETATM   24  C   UNL     1      27.157  44.782  52.713  1.00  0.00     0.048 A 
HETATM   25  C   UNL     1      27.798  44.566  53.941  1.00  0.00     0.002 A 
HETATM   26  C   UNL     1      27.582  45.476  54.980  1.00  0.00     0.018 A 
HETATM   27  C   UNL     1      26.752  46.581  54.795  1.00  0.00     0.004 A 
HETATM   28  C   UNL     1      26.124  46.788  53.566  1.00  0.00     0.029 A 
BRANCH  25  29
HETATM   29  S   UNL     1      28.837  43.153  54.292  1.00  0.00    -0.134 SA
HETATM   30  C   UNL     1      29.513  42.719  52.665  1.00  0.00     0.095 C 
ENDBRANCH  25  29
ENDBRANCH  20  23
ENDBRANCH   3  19
BRANCH   5  31
HETATM   31  N   UNL     1      21.342  45.756  48.315  1.00  0.00    -0.276 N 
HETATM   32  N   UNL     1      20.872  44.522  48.543  1.00  0.00     0.005 NA
HETATM   33  N   UNL     1      19.548  44.588  48.517  1.00  0.00    -0.152 NA
HETATM   34  C   UNL     1      19.184  45.895  48.285  1.00  0.00     0.166 A 
HETATM   35  C   UNL     1      20.333  46.658  48.186  1.00  0.00     0.147 A 
BRANCH  34  36
HETATM   36  C   UNL     1      17.814  46.354  48.109  1.00  0.00     0.314 C 
HETATM   37  O   UNL     1      17.085  45.932  47.218  1.00  0.00    -0.257 OA
BRANCH  36  38
HETATM   38  O   UNL     1      17.433  47.244  49.068  1.00  0.00    -0.321 OA
HETATM   39  C   UNL     1      17.221  48.571  48.584  1.00  0.00     0.213 C 
ENDBRANCH  36  38
ENDBRANCH  34  36
ENDBRANCH   5  31
TORSDOF 9
ENDMDL
MODEL 9
REMARK VINA RESULT:      -7.8      2.084      2.645
REMARK  9 active torsions:
REMARK  status: ('A' for Active; 'I' for Inactive)
REMARK       I    between atoms: C_2  and  N_3 
REMARK    1  A    between atoms: N_3  and  C_4 
REMARK    2  A    between atoms: C_7  and  C_8 
REMARK    3  A    between atoms: C_8  and  N_9 
REMARK    4  A    between atoms: C_11  and  C_12 
REMARK       I    between atoms: C_12  and  N_13 
REMARK    5  A    between atoms: N_13  and  C_14 
REMARK    6  A    between atoms: C_16  and  S_17 
REMARK    7  A    between atoms: C_24  and  N_25 
REMARK    8  A    between atoms: C_28  and  C_29 
REMARK    9  A    between atoms: C_29  and  O_30 
ROOT
HETATM    1  N   UNL     1      24.163  43.105  50.281  1.00  0.00    -0.052 N 
HETATM    2  H   UNL     1      24.262  42.466  51.084  1.00  0.00     0.281 HD
HETATM    3  C   UNL     1      23.995  42.244  49.014  1.00  0.00     0.282 C 
HETATM    4  C   UNL     1      23.400  43.239  48.032  1.00  0.00     0.072 C 
HETATM    5  C   UNL     1      22.423  44.067  48.894  1.00  0.00     0.134 C 
HETATM    6  C   UNL     1      22.880  43.891  50.353  1.00  0.00     0.263 C 
ENDROOT
BRANCH   1   7
HETATM    7  C   UNL     1      25.426  43.957  50.279  1.00  0.00     0.274 C 
BRANCH   7   8
HETATM    8  C   UNL     1      26.125  44.038  51.605  1.00  0.00    -0.032 A 
HETATM    9  C   UNL     1      27.495  43.765  51.704  1.00  0.00     0.011 A 
HETATM   10  C   UNL     1      28.175  43.969  52.909  1.00  0.00     0.030 A 
HETATM   11  C   UNL     1      27.507  44.459  54.032  1.00  0.00     0.034 A 
HETATM   12  C   UNL     1      26.128  44.688  53.946  1.00  0.00     0.030 A 
HETATM   13  C   UNL     1      25.442  44.480  52.745  1.00  0.00     0.011 A 
BRANCH  11  14
HETATM   14  N   UNL     1      28.143  44.788  55.246  1.00  0.00    -0.328 N 
HETATM   15  C   UNL     1      28.540  46.044  55.669  1.00  0.00     0.218 C 
HETATM   16  C   UNL     1      29.038  46.047  57.093  1.00  0.00     0.117 C 
HETATM   17  O   UNL     1      28.480  47.085  55.023  1.00  0.00    -0.274 OA
HETATM   18  H   UNL     1      28.266  44.030  55.907  1.00  0.00     0.169 HD
ENDBRANCH  11  14
ENDBRANCH   7   8
ENDBRANCH   1   7
BRANCH   3  19
HETATM   19  C   UNL     1      25.285  41.467  48.707  1.00  0.00     0.253 C 
HETATM   20  N   UNL     1      25.594  40.401  49.518  1.00  0.00    -0.325 N 
HETATM   21  H   UNL     1      25.179  40.334  50.442  1.00  0.00     0.169 HD
HETATM   22  O   UNL     1      25.904  41.814  47.699  1.00  0.00    -0.271 OA
BRANCH  20  23
HETATM   23  C   UNL     1      26.550  39.393  49.230  1.00  0.00     0.036 A 
HETATM   24  C   UNL     1      27.706  39.179  49.995  1.00  0.00     0.048 A 
HETATM   25  C   UNL     1      28.637  38.190  49.648  1.00  0.00     0.002 A 
HETATM   26  C   UNL     1      28.405  37.422  48.504  1.00  0.00     0.018 A 
HETATM   27  C   UNL     1      27.264  37.630  47.728  1.00  0.00     0.004 A 
HETATM   28  C   UNL     1      26.342  38.614  48.087  1.00  0.00     0.029 A 
BRANCH  25  29
HETATM   29  S   UNL     1      30.153  37.884  50.548  1.00  0.00    -0.134 SA
HETATM   30  C   UNL     1      29.776  36.385  51.498  1.00  0.00     0.095 C 
ENDBRANCH  25  29
ENDBRANCH  20  23
ENDBRANCH   3  19
BRANCH   5  31
HETATM   31  N   UNL     1      22.361  45.473  48.562  1.00  0.00    -0.276 N 
HETATM   32  N   UNL     1      21.909  45.848  47.357  1.00  0.00     0.005 NA
HETATM   33  N   UNL     1      22.244  47.118  47.183  1.00  0.00    -0.152 NA
HETATM   34  C   UNL     1      22.904  47.551  48.309  1.00  0.00     0.166 A 
HETATM   35  C   UNL     1      22.955  46.507  49.215  1.00  0.00     0.147 A 
BRANCH  34  36
HETATM   36  C   UNL     1      23.499  48.871  48.465  1.00  0.00     0.314 C 
HETATM   37  O   UNL     1      24.361  49.112  49.301  1.00  0.00    -0.257 OA
BRANCH  36  38
HETATM   38  O   UNL     1      23.033  49.767  47.549  1.00  0.00    -0.321 OA
HETATM   39  C   UNL     1      22.702  51.044  48.096  1.00  0.00     0.213 C 
ENDBRANCH  36  38
ENDBRANCH  34  36
ENDBRANCH   5  31
TORSDOF 9
ENDMDL
MODEL 10
REMARK VINA RESULT:      -7.8     12.901     16.188
REMARK  9 active torsions:
REMARK  status: ('A' for Active; 'I' for Inactive)
REMARK       I    between atoms: C_2  and  N_3 
REMARK    1  A    between atoms: N_3  and  C_4 
REMARK    2  A    between atoms: C_7  and  C_8 
REMARK    3  A    between atoms: C_8  and  N_9 
REMARK    4  A    between atoms: C_11  and  C_12 
REMARK       I    between atoms: C_12  and  N_13 
REMARK    5  A    between atoms: N_13  and  C_14 
REMARK    6  A    between atoms: C_16  and  S_17 
REMARK    7  A    between atoms: C_24  and  N_25 
REMARK    8  A    between atoms: C_28  and  C_29 
REMARK    9  A    between atoms: C_29  and  O_30 
ROOT
HETATM    1  N   UNL     1      32.522  51.412  42.351  1.00  0.00    -0.052 N 
HETATM    2  H   UNL     1      32.681  52.142  43.062  1.00  0.00     0.281 HD
HETATM    3  C   UNL     1      33.822  50.595  42.220  1.00  0.00     0.282 C 
HETATM    4  C   UNL     1      33.330  49.324  41.547  1.00  0.00     0.072 C 
HETATM    5  C   UNL     1      31.967  49.056  42.219  1.00  0.00     0.134 C 
HETATM    6  C   UNL     1      31.507  50.399  42.813  1.00  0.00     0.263 C 
ENDROOT
BRANCH   1   7
HETATM    7  C   UNL     1      32.138  52.157  41.079  1.00  0.00     0.274 C 
BRANCH   7   8
HETATM    8  C   UNL     1      30.726  51.925  40.623  1.00  0.00    -0.032 A 
HETATM    9  C   UNL     1      30.470  51.317  39.388  1.00  0.00     0.011 A 
HETATM   10  C   UNL     1      29.163  50.978  39.021  1.00  0.00     0.030 A 
HETATM   11  C   UNL     1      28.092  51.228  39.880  1.00  0.00     0.034 A 
HETATM   12  C   UNL     1      28.344  51.878  41.094  1.00  0.00     0.030 A 
HETATM   13  C   UNL     1      29.647  52.224  41.465  1.00  0.00     0.011 A 
BRANCH  11  14
HETATM   14  N   UNL     1      26.767  50.822  39.625  1.00  0.00    -0.328 N 
HETATM   15  C   UNL     1      26.285  50.205  38.484  1.00  0.00     0.218 C 
HETATM   16  C   UNL     1      24.850  49.763  38.625  1.00  0.00     0.117 C 
HETATM   17  O   UNL     1      26.916  49.973  37.458  1.00  0.00    -0.274 OA
HETATM   18  H   UNL     1      26.108  50.941  40.385  1.00  0.00     0.169 HD
ENDBRANCH  11  14
ENDBRANCH   7   8
ENDBRANCH   1   7
BRANCH   3  19
HETATM   19  C   UNL     1      34.949  51.452  41.621  1.00  0.00     0.253 C 
HETATM   20  N   UNL     1      35.262  51.256  40.297  1.00  0.00    -0.325 N 
HETATM   21  H   UNL     1      34.997  50.390  39.840  1.00  0.00     0.169 HD
HETATM   22  O   UNL     1      35.431  52.312  42.361  1.00  0.00    -0.271 OA
BRANCH  20  23
HETATM   23  C   UNL     1      36.039  52.130  39.493  1.00  0.00     0.036 A 
HETATM   24  C   UNL     1      35.815  53.513  39.412  1.00  0.00     0.048 A 
HETATM   25  C   UNL     1      36.590  54.329  38.577  1.00  0.00     0.002 A 
HETATM   26  C   UNL     1      37.591  53.736  37.801  1.00  0.00     0.018 A 
HETATM   27  C   UNL     1      37.819  52.362  37.865  1.00  0.00     0.004 A 
HETATM   28  C   UNL     1      37.044  51.561  38.705  1.00  0.00     0.029 A 
BRANCH  25  29
HETATM   29  S   UNL     1      36.340  56.090  38.386  1.00  0.00    -0.134 SA
HETATM   30  C   UNL     1      34.858  56.409  39.382  1.00  0.00     0.095 C 
ENDBRANCH  25  29
ENDBRANCH  20  23
ENDBRANCH   3  19
BRANCH   5  31
HETATM   31  N   UNL     1      30.948  48.530  41.338  1.00  0.00    -0.276 N 
HETATM   32  N   UNL     1      29.670  48.513  41.742  1.00  0.00     0.005 NA
HETATM   33  N   UNL     1      29.003  47.716  40.921  1.00  0.00    -0.152 NA
HETATM   34  C   UNL     1      29.878  47.238  39.973  1.00  0.00     0.166 A 
HETATM   35  C   UNL     1      31.126  47.783  40.216  1.00  0.00     0.147 A 
BRANCH  34  36
HETATM   36  C   UNL     1      29.535  46.269  38.942  1.00  0.00     0.314 C 
HETATM   37  O   UNL     1      29.288  46.593  37.787  1.00  0.00    -0.257 OA
BRANCH  36  38
HETATM   38  O   UNL     1      29.579  44.984  39.397  1.00  0.00    -0.321 OA
HETATM   39  C   UNL     1      28.295  44.384  39.579  1.00  0.00     0.213 C 
ENDBRANCH  36  38
ENDBRANCH  34  36
ENDBRANCH   5  31
TORSDOF 9
ENDMDL
