MODEL 1
REMARK VINA RESULT:      -9.6      0.000      0.000
REMARK  4 active torsions:
REMARK  status: ('A' for Active; 'I' for Inactive)
REMARK    1  A    between atoms: O_2  and  C_3 
REMARK    2  A    between atoms: C_3  and  C_4 
REMARK    3  A    between atoms: C_12  and  N_13 
REMARK       I    between atoms: N_13  and  C_14 
REMARK    4  A    between atoms: C_14  and  C_15 
ROOT
HETATM    1  N   UNL     1      26.098  45.999  52.172  1.00  0.00    -0.323 N 
HETATM    2  C   UNL     1      25.977  45.404  53.411  1.00  0.00     0.258 C 
HETATM    3  O   UNL     1      25.001  44.760  53.785  1.00  0.00    -0.267 OA
HETATM    4  H   UNL     1      26.971  46.473  51.980  1.00  0.00     0.169 HD
ENDROOT
BRANCH   1   5
HETATM    5  C   UNL     1      25.153  46.032  51.123  1.00  0.00     0.036 A 
HETATM    6  C   UNL     1      24.446  44.915  50.672  1.00  0.00     0.032 A 
HETATM    7  C   UNL     1      23.510  45.006  49.631  1.00  0.00     0.034 A 
HETATM    8  C   UNL     1      23.310  46.263  49.058  1.00  0.00     0.063 A 
HETATM    9  N   UNL     1      22.488  46.678  48.050  1.00  0.00    -0.277 N 
HETATM   10  C   UNL     1      23.992  47.400  49.469  1.00  0.00     0.031 A 
HETATM   11  N   UNL     1      22.577  47.987  47.768  1.00  0.00    -0.167 NA
HETATM   12  H   UNL     1      21.839  46.115  47.513  1.00  0.00     0.189 HD
HETATM   13  C   UNL     1      23.504  48.453  48.632  1.00  0.00     0.164 A 
HETATM   14  C   UNL     1      24.926  47.282  50.520  1.00  0.00     0.046 A 
BRANCH  13  15
HETATM   15  C   UNL     1      23.923  49.863  48.666  1.00  0.00     0.314 C 
HETATM   16  O   UNL     1      23.525  50.666  49.506  1.00  0.00    -0.257 OA
BRANCH  15  17
HETATM   17  O   UNL     1      24.801  50.187  47.667  1.00  0.00    -0.321 OA
HETATM   18  C   UNL     1      26.172  49.964  47.992  1.00  0.00     0.213 C 
ENDBRANCH  15  17
ENDBRANCH  13  15
ENDBRANCH   1   5
BRANCH   2  19
HETATM   19  C   UNL     1      27.134  45.568  54.309  1.00  0.00     0.063 A 
HETATM   20  C   UNL     1      28.292  44.750  54.577  1.00  0.00     0.046 A 
HETATM   21  C   UNL     1      29.074  45.423  55.525  1.00  0.00     0.046 A 
HETATM   22  C   UNL     1      28.784  43.508  54.120  1.00  0.00     0.130 A 
HETATM   23  C   UNL     1      30.287  44.920  56.018  1.00  0.00     0.030 A 
HETATM   24  N   UNL     1      28.429  46.596  55.830  1.00  0.00    -0.364 N 
HETATM   25  C   UNL     1      30.732  43.687  55.534  1.00  0.00     0.005 A 
HETATM   26  C   UNL     1      29.989  42.984  54.593  1.00  0.00     0.043 A 
HETATM   27  H   UNL     1      28.765  47.285  56.489  1.00  0.00     0.165 HD
HETATM   28  C   UNL     1      27.276  46.694  55.110  1.00  0.00     0.106 A 
HETATM   29  F   UNL     1      28.097  42.793  53.215  1.00  0.00    -0.205 F 
ENDBRANCH   2  19
TORSDOF 4
ENDMDL
MODEL 2
REMARK VINA RESULT:      -9.4      1.599      2.062
REMARK  4 active torsions:
REMARK  status: ('A' for Active; 'I' for Inactive)
REMARK    1  A    between atoms: O_2  and  C_3 
REMARK    2  A    between atoms: C_3  and  C_4 
REMARK    3  A    between atoms: C_12  and  N_13 
REMARK       I    between atoms: N_13  and  C_14 
REMARK    4  A    between atoms: C_14  and  C_15 
ROOT
HETATM    1  N   UNL     1      26.663  45.240  53.611  1.00  0.00    -0.323 N 
HETATM    2  C   UNL     1      27.971  44.832  53.776  1.00  0.00     0.258 C 
HETATM    3  O   UNL     1      28.629  44.236  52.928  1.00  0.00    -0.267 OA
HETATM    4  H   UNL     1      26.248  45.752  54.379  1.00  0.00     0.169 HD
ENDROOT
BRANCH   1   5
HETATM    5  C   UNL     1      25.819  45.037  52.498  1.00  0.00     0.036 A 
HETATM    6  C   UNL     1      25.334  43.790  52.099  1.00  0.00     0.032 A 
HETATM    7  C   UNL     1      24.489  43.647  50.989  1.00  0.00     0.034 A 
HETATM    8  C   UNL     1      24.148  44.806  50.291  1.00  0.00     0.063 A 
HETATM    9  N   UNL     1      23.361  45.004  49.193  1.00  0.00    -0.277 N 
HETATM   10  C   UNL     1      24.607  46.067  50.647  1.00  0.00     0.031 A 
HETATM   11  N   UNL     1      23.271  46.284  48.801  1.00  0.00    -0.167 NA
HETATM   12  H   UNL     1      22.856  44.303  48.663  1.00  0.00     0.189 HD
HETATM   13  C   UNL     1      24.036  46.959  49.684  1.00  0.00     0.164 A 
HETATM   14  C   UNL     1      25.454  46.184  51.769  1.00  0.00     0.046 A 
BRANCH  13  15
HETATM   15  C   UNL     1      24.228  48.417  49.621  1.00  0.00     0.314 C 
HETATM   16  O   UNL     1      23.312  49.225  49.748  1.00  0.00    -0.257 OA
BRANCH  15  17
HETATM   17  O   UNL     1      25.531  48.779  49.407  1.00  0.00    -0.321 OA
HETATM   18  C   UNL     1      25.712  49.742  48.371  1.00  0.00     0.213 C 
ENDBRANCH  15  17
ENDBRANCH  13  15
ENDBRANCH   1   5
BRANCH   2  19
HETATM   19  C   UNL     1      28.583  45.170  55.074  1.00  0.00     0.063 A 
HETATM   20  C   UNL     1      29.689  44.612  55.813  1.00  0.00     0.046 A 
HETATM   21  C   UNL     1      29.829  45.357  56.991  1.00  0.00     0.046 A 
HETATM   22  C   UNL     1      30.606  43.555  55.622  1.00  0.00     0.130 A 
HETATM   23  C   UNL     1      30.815  45.096  57.952  1.00  0.00     0.030 A 
HETATM   24  N   UNL     1      28.855  46.325  56.981  1.00  0.00    -0.364 N 
HETATM   25  C   UNL     1      31.700  44.040  57.717  1.00  0.00     0.005 A 
HETATM   26  C   UNL     1      31.598  43.274  56.563  1.00  0.00     0.043 A 
HETATM   27  H   UNL     1      28.717  47.013  57.710  1.00  0.00     0.165 HD
HETATM   28  C   UNL     1      28.111  46.226  55.844  1.00  0.00     0.106 A 
HETATM   29  F   UNL     1      30.541  42.786  54.523  1.00  0.00    -0.205 F 
ENDBRANCH   2  19
TORSDOF 4
ENDMDL
MODEL 3
REMARK VINA RESULT:      -9.3      4.940      7.461
REMARK  4 active torsions:
REMARK  status: ('A' for Active; 'I' for Inactive)
REMARK    1  A    between atoms: O_2  and  C_3 
REMARK    2  A    between atoms: C_3  and  C_4 
REMARK    3  A    between atoms: C_12  and  N_13 
REMARK       I    between atoms: N_13  and  C_14 
REMARK    4  A    between atoms: C_14  and  C_15 
ROOT
HETATM    1  N   UNL     1      27.584  42.553  52.632  1.00  0.00    -0.323 N 
HETATM    2  C   UNL     1      27.772  43.915  52.523  1.00  0.00     0.258 C 
HETATM    3  O   UNL     1      27.651  44.557  51.484  1.00  0.00    -0.267 OA
HETATM    4  H   UNL     1      27.682  42.154  53.557  1.00  0.00     0.169 HD
ENDROOT
BRANCH   1   5
HETATM    5  C   UNL     1      27.266  41.631  51.610  1.00  0.00     0.036 A 
HETATM    6  C   UNL     1      26.076  41.653  50.879  1.00  0.00     0.032 A 
HETATM    7  C   UNL     1      25.816  40.719  49.867  1.00  0.00     0.034 A 
HETATM    8  C   UNL     1      26.795  39.757  49.615  1.00  0.00     0.063 A 
HETATM    9  N   UNL     1      26.848  38.731  48.716  1.00  0.00    -0.277 N 
HETATM   10  C   UNL     1      27.991  39.693  50.318  1.00  0.00     0.031 A 
HETATM   11  N   UNL     1      27.973  38.003  48.774  1.00  0.00    -0.167 NA
HETATM   12  H   UNL     1      26.145  38.475  48.032  1.00  0.00     0.189 HD
HETATM   13  C   UNL     1      28.693  38.578  49.759  1.00  0.00     0.164 A 
HETATM   14  C   UNL     1      28.231  40.647  51.329  1.00  0.00     0.046 A 
BRANCH  13  15
HETATM   15  C   UNL     1      30.018  38.084  50.170  1.00  0.00     0.314 C 
HETATM   16  O   UNL     1      30.999  38.088  49.431  1.00  0.00    -0.257 OA
BRANCH  15  17
HETATM   17  O   UNL     1      30.044  37.623  51.458  1.00  0.00    -0.321 OA
HETATM   18  C   UNL     1      29.772  36.230  51.591  1.00  0.00     0.213 C 
ENDBRANCH  15  17
ENDBRANCH  13  15
ENDBRANCH   1   5
BRANCH   2  19
HETATM   19  C   UNL     1      28.126  44.609  53.775  1.00  0.00     0.063 A 
HETATM   20  C   UNL     1      29.174  44.408  54.746  1.00  0.00     0.046 A 
HETATM   21  C   UNL     1      29.028  45.389  55.735  1.00  0.00     0.046 A 
HETATM   22  C   UNL     1      30.249  43.505  54.906  1.00  0.00     0.130 A 
HETATM   23  C   UNL     1      29.884  45.499  56.840  1.00  0.00     0.030 A 
HETATM   24  N   UNL     1      27.941  46.155  55.393  1.00  0.00    -0.364 N 
HETATM   25  C   UNL     1      30.933  44.584  56.954  1.00  0.00     0.005 A 
HETATM   26  C   UNL     1      31.116  43.594  55.996  1.00  0.00     0.043 A 
HETATM   27  H   UNL     1      27.599  46.943  55.929  1.00  0.00     0.165 HD
HETATM   28  C   UNL     1      27.400  45.703  54.228  1.00  0.00     0.106 A 
HETATM   29  F   UNL     1      30.461  42.530  54.008  1.00  0.00    -0.205 F 
ENDBRANCH   2  19
TORSDOF 4
ENDMDL
MODEL 4
REMARK VINA RESULT:      -8.8      1.539      2.076
REMARK  4 active torsions:
REMARK  status: ('A' for Active; 'I' for Inactive)
REMARK    1  A    between atoms: O_2  and  C_3 
REMARK    2  A    between atoms: C_3  and  C_4 
REMARK    3  A    between atoms: C_12  and  N_13 
REMARK       I    between atoms: N_13  and  C_14 
REMARK    4  A    between atoms: C_14  and  C_15 
ROOT
HETATM    1  N   UNL     1      25.672  44.867  51.064  1.00  0.00    -0.323 N 
HETATM    2  C   UNL     1      25.595  44.576  52.411  1.00  0.00     0.258 C 
HETATM    3  O   UNL     1      24.554  44.545  53.061  1.00  0.00    -0.267 OA
HETATM    4  H   UNL     1      26.591  44.825  50.643  1.00  0.00     0.169 HD
ENDROOT
BRANCH   1   5
HETATM    5  C   UNL     1      24.623  45.216  50.186  1.00  0.00     0.036 A 
HETATM    6  C   UNL     1      23.697  44.306  49.671  1.00  0.00     0.032 A 
HETATM    7  C   UNL     1      22.668  44.710  48.809  1.00  0.00     0.034 A 
HETATM    8  C   UNL     1      22.602  46.064  48.480  1.00  0.00     0.063 A 
HETATM    9  N   UNL     1      21.739  46.763  47.685  1.00  0.00    -0.277 N 
HETATM   10  C   UNL     1      23.501  47.005  48.963  1.00  0.00     0.031 A 
HETATM   11  N   UNL     1      22.001  48.077  47.607  1.00  0.00    -0.167 NA
HETATM   12  H   UNL     1      20.948  46.399  47.166  1.00  0.00     0.189 HD
HETATM   13  C   UNL     1      23.088  48.248  48.387  1.00  0.00     0.164 A 
HETATM   14  C   UNL     1      24.526  46.574  49.832  1.00  0.00     0.046 A 
BRANCH  13  15
HETATM   15  C   UNL     1      23.728  49.559  48.584  1.00  0.00     0.314 C 
HETATM   16  O   UNL     1      23.509  50.278  49.555  1.00  0.00    -0.257 OA
BRANCH  15  17
HETATM   17  O   UNL     1      24.592  49.893  47.575  1.00  0.00    -0.321 OA
HETATM   18  C   UNL     1      25.961  49.956  47.969  1.00  0.00     0.213 C 
ENDBRANCH  15  17
ENDBRANCH  13  15
ENDBRANCH   1   5
BRANCH   2  19
HETATM   19  C   UNL     1      26.879  44.273  53.069  1.00  0.00     0.063 A 
HETATM   20  C   UNL     1      27.637  44.943  54.097  1.00  0.00     0.046 A 
HETATM   21  C   UNL     1      28.787  44.180  54.339  1.00  0.00     0.046 A 
HETATM   22  C   UNL     1      27.484  46.116  54.869  1.00  0.00     0.130 A 
HETATM   23  C   UNL     1      29.757  44.532  55.289  1.00  0.00     0.030 A 
HETATM   24  N   UNL     1      28.742  43.095  53.499  1.00  0.00    -0.364 N 
HETATM   25  C   UNL     1      29.560  45.701  56.028  1.00  0.00     0.005 A 
HETATM   26  C   UNL     1      28.434  46.489  55.821  1.00  0.00     0.043 A 
HETATM   27  H   UNL     1      29.446  42.369  53.456  1.00  0.00     0.165 HD
HETATM   28  C   UNL     1      27.610  43.138  52.742  1.00  0.00     0.106 A 
HETATM   29  F   UNL     1      26.415  46.910  54.699  1.00  0.00    -0.205 F 
ENDBRANCH   2  19
TORSDOF 4
ENDMDL
MODEL 5
REMARK VINA RESULT:      -8.5      3.992      5.390
REMARK  4 active torsions:
REMARK  status: ('A' for Active; 'I' for Inactive)
REMARK    1  A    between atoms: O_2  and  C_3 
REMARK    2  A    between atoms: C_3  and  C_4 
REMARK    3  A    between atoms: C_12  and  N_13 
REMARK       I    between atoms: N_13  and  C_14 
REMARK    4  A    between atoms: C_14  and  C_15 
ROOT
HETATM    1  N   UNL     1      26.640  44.297  53.162  1.00  0.00    -0.323 N 
HETATM    2  C   UNL     1      28.013  44.352  53.282  1.00  0.00     0.258 C 
HETATM    3  O   UNL     1      28.806  43.982  52.420  1.00  0.00    -0.267 OA
HETATM    4  H   UNL     1      26.102  44.667  53.935  1.00  0.00     0.169 HD
ENDROOT
BRANCH   1   5
HETATM    5  C   UNL     1      25.877  43.791  52.087  1.00  0.00     0.036 A 
HETATM    6  C   UNL     1      24.716  44.394  51.599  1.00  0.00     0.032 A 
HETATM    7  C   UNL     1      24.001  43.853  50.521  1.00  0.00     0.034 A 
HETATM    8  C   UNL     1      24.496  42.681  49.948  1.00  0.00     0.063 A 
HETATM    9  N   UNL     1      24.046  41.920  48.907  1.00  0.00    -0.277 N 
HETATM   10  C   UNL     1      25.644  42.043  50.400  1.00  0.00     0.031 A 
HETATM   11  N   UNL     1      24.800  40.841  48.644  1.00  0.00    -0.167 NA
HETATM   12  H   UNL     1      23.227  42.084  48.333  1.00  0.00     0.189 HD
HETATM   13  C   UNL     1      25.792  40.896  49.558  1.00  0.00     0.164 A 
HETATM   14  C   UNL     1      26.347  42.610  51.485  1.00  0.00     0.046 A 
BRANCH  13  15
HETATM   15  C   UNL     1      26.858  39.885  49.636  1.00  0.00     0.314 C 
HETATM   16  O   UNL     1      26.646  38.695  49.857  1.00  0.00    -0.257 OA
BRANCH  15  17
HETATM   17  O   UNL     1      28.109  40.405  49.437  1.00  0.00    -0.321 OA
HETATM   18  C   UNL     1      28.503  40.485  48.070  1.00  0.00     0.213 C 
ENDBRANCH  15  17
ENDBRANCH  13  15
ENDBRANCH   1   5
BRANCH   2  19
HETATM   19  C   UNL     1      28.518  44.916  54.547  1.00  0.00     0.063 A 
HETATM   20  C   UNL     1      29.561  44.507  55.457  1.00  0.00     0.046 A 
HETATM   21  C   UNL     1      29.604  45.445  56.497  1.00  0.00     0.046 A 
HETATM   22  C   UNL     1      30.490  43.446  55.524  1.00  0.00     0.130 A 
HETATM   23  C   UNL     1      30.510  45.365  57.565  1.00  0.00     0.030 A 
HETATM   24  N   UNL     1      28.635  46.383  56.244  1.00  0.00    -0.364 N 
HETATM   25  C   UNL     1      31.411  44.298  57.586  1.00  0.00     0.005 A 
HETATM   26  C   UNL     1      31.403  43.344  56.575  1.00  0.00     0.043 A 
HETATM   27  H   UNL     1      28.438  47.183  56.831  1.00  0.00     0.165 HD
HETATM   28  C   UNL     1      27.985  46.080  55.085  1.00  0.00     0.106 A 
HETATM   29  F   UNL     1      30.515  42.500  54.572  1.00  0.00    -0.205 F 
ENDBRANCH   2  19
TORSDOF 4
ENDMDL
MODEL 6
REMARK VINA RESULT:      -8.4      4.763      9.350
REMARK  4 active torsions:
REMARK  status: ('A' for Active; 'I' for Inactive)
REMARK    1  A    between atoms: O_2  and  C_3 
REMARK    2  A    between atoms: C_3  and  C_4 
REMARK    3  A    between atoms: C_12  and  N_13 
REMARK       I    between atoms: N_13  and  C_14 
REMARK    4  A    between atoms: C_14  and  C_15 
ROOT
HETATM    1  N   UNL     1      22.461  47.893  49.555  1.00  0.00    -0.323 N 
HETATM    2  C   UNL     1      21.641  48.049  48.456  1.00  0.00     0.258 C 
HETATM    3  O   UNL     1      21.955  47.763  47.304  1.00  0.00    -0.267 OA
HETATM    4  H   UNL     1      22.065  48.136  50.454  1.00  0.00     0.169 HD
ENDROOT
BRANCH   1   5
HETATM    5  C   UNL     1      23.794  47.430  49.592  1.00  0.00     0.036 A 
HETATM    6  C   UNL     1      24.912  48.266  49.643  1.00  0.00     0.032 A 
HETATM    7  C   UNL     1      26.215  47.751  49.688  1.00  0.00     0.034 A 
HETATM    8  C   UNL     1      26.357  46.363  49.678  1.00  0.00     0.063 A 
HETATM    9  N   UNL     1      27.464  45.565  49.714  1.00  0.00    -0.277 N 
HETATM   10  C   UNL     1      25.277  45.492  49.624  1.00  0.00     0.031 A 
HETATM   11  N   UNL     1      27.198  44.250  49.685  1.00  0.00    -0.167 NA
HETATM   12  H   UNL     1      28.434  45.857  49.759  1.00  0.00     0.189 HD
HETATM   13  C   UNL     1      25.852  44.182  49.626  1.00  0.00     0.164 A 
HETATM   14  C   UNL     1      23.975  46.035  49.583  1.00  0.00     0.046 A 
BRANCH  13  15
HETATM   15  C   UNL     1      25.121  42.906  49.571  1.00  0.00     0.314 C 
HETATM   16  O   UNL     1      24.400  42.581  48.631  1.00  0.00    -0.257 OA
BRANCH  15  17
HETATM   17  O   UNL     1      25.328  42.119  50.672  1.00  0.00    -0.321 OA
HETATM   18  C   UNL     1      25.915  40.852  50.389  1.00  0.00     0.213 C 
ENDBRANCH  15  17
ENDBRANCH  13  15
ENDBRANCH   1   5
BRANCH   2  19
HETATM   19  C   UNL     1      20.297  48.585  48.738  1.00  0.00     0.063 A 
HETATM   20  C   UNL     1      19.756  49.922  48.744  1.00  0.00     0.046 A 
HETATM   21  C   UNL     1      18.397  49.826  49.073  1.00  0.00     0.046 A 
HETATM   22  C   UNL     1      20.256  51.220  48.502  1.00  0.00     0.130 A 
HETATM   23  C   UNL     1      17.548  50.938  49.166  1.00  0.00     0.030 A 
HETATM   24  N   UNL     1      18.115  48.496  49.263  1.00  0.00    -0.364 N 
HETATM   25  C   UNL     1      18.090  52.202  48.917  1.00  0.00     0.005 A 
HETATM   26  C   UNL     1      19.433  52.345  48.587  1.00  0.00     0.043 A 
HETATM   27  H   UNL     1      17.206  48.128  49.510  1.00  0.00     0.165 HD
HETATM   28  C   UNL     1      19.237  47.748  49.063  1.00  0.00     0.106 A 
HETATM   29  F   UNL     1      21.547  51.406  48.186  1.00  0.00    -0.205 F 
ENDBRANCH   2  19
TORSDOF 4
ENDMDL
MODEL 7
REMARK VINA RESULT:      -8.2      2.595      3.629
REMARK  4 active torsions:
REMARK  status: ('A' for Active; 'I' for Inactive)
REMARK    1  A    between atoms: O_2  and  C_3 
REMARK    2  A    between atoms: C_3  and  C_4 
REMARK    3  A    between atoms: C_12  and  N_13 
REMARK       I    between atoms: N_13  and  C_14 
REMARK    4  A    between atoms: C_14  and  C_15 
ROOT
HETATM    1  N   UNL     1      26.410  46.750  50.978  1.00  0.00    -0.323 N 
HETATM    2  C   UNL     1      26.462  45.388  50.767  1.00  0.00     0.258 C 
HETATM    3  O   UNL     1      26.208  44.835  49.700  1.00  0.00    -0.267 OA
HETATM    4  H   UNL     1      26.677  47.077  51.897  1.00  0.00     0.169 HD
ENDROOT
BRANCH   1   5
HETATM    5  C   UNL     1      26.031  47.761  50.068  1.00  0.00     0.036 A 
HETATM    6  C   UNL     1      26.920  48.674  49.497  1.00  0.00     0.032 A 
HETATM    7  C   UNL     1      26.491  49.653  48.589  1.00  0.00     0.034 A 
HETATM    8  C   UNL     1      25.132  49.682  48.274  1.00  0.00     0.063 A 
HETATM    9  N   UNL     1      24.412  50.490  47.443  1.00  0.00    -0.277 N 
HETATM   10  C   UNL     1      24.210  48.798  48.818  1.00  0.00     0.031 A 
HETATM   11  N   UNL     1      23.100  50.212  47.400  1.00  0.00    -0.167 NA
HETATM   12  H   UNL     1      24.758  51.255  46.874  1.00  0.00     0.189 HD
HETATM   13  C   UNL     1      22.952  49.170  48.245  1.00  0.00     0.164 A 
HETATM   14  C   UNL     1      24.667  47.820  49.727  1.00  0.00     0.046 A 
BRANCH  13  15
HETATM   15  C   UNL     1      21.649  48.539  48.511  1.00  0.00     0.314 C 
HETATM   16  O   UNL     1      21.199  47.612  47.843  1.00  0.00    -0.257 OA
BRANCH  15  17
HETATM   17  O   UNL     1      20.992  49.090  49.578  1.00  0.00    -0.321 OA
HETATM   18  C   UNL     1      19.598  48.796  49.627  1.00  0.00     0.213 C 
ENDBRANCH  15  17
ENDBRANCH  13  15
ENDBRANCH   1   5
BRANCH   2  19
HETATM   19  C   UNL     1      26.873  44.580  51.930  1.00  0.00     0.063 A 
HETATM   20  C   UNL     1      27.425  43.254  52.058  1.00  0.00     0.046 A 
HETATM   21  C   UNL     1      27.633  43.013  53.422  1.00  0.00     0.046 A 
HETATM   22  C   UNL     1      27.784  42.215  51.171  1.00  0.00     0.130 A 
HETATM   23  C   UNL     1      28.169  41.815  53.918  1.00  0.00     0.030 A 
HETATM   24  N   UNL     1      27.227  44.134  54.102  1.00  0.00    -0.364 N 
HETATM   25  C   UNL     1      28.511  40.818  53.001  1.00  0.00     0.005 A 
HETATM   26  C   UNL     1      28.320  41.013  51.638  1.00  0.00     0.043 A 
HETATM   27  H   UNL     1      27.264  44.245  55.107  1.00  0.00     0.165 HD
HETATM   28  C   UNL     1      26.777  45.074  53.225  1.00  0.00     0.106 A 
HETATM   29  F   UNL     1      27.613  42.358  49.848  1.00  0.00    -0.205 F 
ENDBRANCH   2  19
TORSDOF 4
ENDMDL
MODEL 8
REMARK VINA RESULT:      -8.2      4.117      5.166
REMARK  4 active torsions:
REMARK  status: ('A' for Active; 'I' for Inactive)
REMARK    1  A    between atoms: O_2  and  C_3 
REMARK    2  A    between atoms: C_3  and  C_4 
REMARK    3  A    between atoms: C_12  and  N_13 
REMARK       I    between atoms: N_13  and  C_14 
REMARK    4  A    between atoms: C_14  and  C_15 
ROOT
HETATM    1  N   UNL     1      27.919  42.013  51.926  1.00  0.00    -0.323 N 
HETATM    2  C   UNL     1      28.236  43.335  52.160  1.00  0.00     0.258 C 
HETATM    3  O   UNL     1      27.877  44.275  51.456  1.00  0.00    -0.267 OA
HETATM    4  H   UNL     1      28.252  41.340  52.604  1.00  0.00     0.169 HD
ENDROOT
BRANCH   1   5
HETATM    5  C   UNL     1      27.180  41.469  50.853  1.00  0.00     0.036 A 
HETATM    6  C   UNL     1      27.646  40.452  50.017  1.00  0.00     0.032 A 
HETATM    7  C   UNL     1      26.865  39.941  48.971  1.00  0.00     0.034 A 
HETATM    8  C   UNL     1      25.595  40.490  48.793  1.00  0.00     0.063 A 
HETATM    9  N   UNL     1      24.609  40.219  47.888  1.00  0.00    -0.277 N 
HETATM   10  C   UNL     1      25.090  41.505  49.595  1.00  0.00     0.031 A 
HETATM   11  N   UNL     1      23.507  40.971  48.030  1.00  0.00    -0.167 NA
HETATM   12  H   UNL     1      24.627  39.529  47.145  1.00  0.00     0.189 HD
HETATM   13  C   UNL     1      23.783  41.775  49.077  1.00  0.00     0.164 A 
HETATM   14  C   UNL     1      25.894  42.000  50.643  1.00  0.00     0.046 A 
BRANCH  13  15
HETATM   15  C   UNL     1      22.834  42.782  49.580  1.00  0.00     0.314 C 
HETATM   16  O   UNL     1      22.790  43.141  50.754  1.00  0.00    -0.257 OA
BRANCH  15  17
HETATM   17  O   UNL     1      22.008  43.275  48.607  1.00  0.00    -0.321 OA
HETATM   18  C   UNL     1      21.697  44.660  48.744  1.00  0.00     0.213 C 
ENDBRANCH  15  17
ENDBRANCH  13  15
ENDBRANCH   1   5
BRANCH   2  19
HETATM   19  C   UNL     1      29.052  43.590  53.361  1.00  0.00     0.063 A 
HETATM   20  C   UNL     1      28.928  44.526  54.451  1.00  0.00     0.046 A 
HETATM   21  C   UNL     1      29.999  44.300  55.326  1.00  0.00     0.046 A 
HETATM   22  C   UNL     1      28.022  45.547  54.813  1.00  0.00     0.130 A 
HETATM   23  C   UNL     1      30.194  45.030  56.507  1.00  0.00     0.030 A 
HETATM   24  N   UNL     1      30.749  43.278  54.799  1.00  0.00    -0.364 N 
HETATM   25  C   UNL     1      29.270  46.030  56.822  1.00  0.00     0.005 A 
HETATM   26  C   UNL     1      28.192  46.289  55.984  1.00  0.00     0.043 A 
HETATM   27  H   UNL     1      31.587  42.900  55.221  1.00  0.00     0.165 HD
HETATM   28  C   UNL     1      30.193  42.845  53.633  1.00  0.00     0.106 A 
HETATM   29  F   UNL     1      26.970  45.835  54.031  1.00  0.00    -0.205 F 
ENDBRANCH   2  19
TORSDOF 4
ENDMDL
MODEL 9
REMARK VINA RESULT:      -8.1      4.960      7.473
REMARK  4 active torsions:
REMARK  status: ('A' for Active; 'I' for Inactive)
REMARK    1  A    between atoms: O_2  and  C_3 
REMARK    2  A    between atoms: C_3  and  C_4 
REMARK    3  A    between atoms: C_12  and  N_13 
REMARK       I    between atoms: N_13  and  C_14 
REMARK    4  A    between atoms: C_14  and  C_15 
ROOT
HETATM    1  N   UNL     1      21.331  47.864  49.282  1.00  0.00    -0.323 N 
HETATM    2  C   UNL     1      22.405  48.263  48.512  1.00  0.00     0.258 C 
HETATM    3  O   UNL     1      22.315  48.828  47.426  1.00  0.00    -0.267 OA
HETATM    4  H   UNL     1      21.546  47.438  50.174  1.00  0.00     0.169 HD
ENDROOT
BRANCH   1   5
HETATM    5  C   UNL     1      19.955  47.977  48.986  1.00  0.00     0.036 A 
HETATM    6  C   UNL     1      19.153  46.911  48.573  1.00  0.00     0.032 A 
HETATM    7  C   UNL     1      17.787  47.078  48.302  1.00  0.00     0.034 A 
HETATM    8  C   UNL     1      17.255  48.358  48.461  1.00  0.00     0.063 A 
HETATM    9  N   UNL     1      15.990  48.842  48.285  1.00  0.00    -0.277 N 
HETATM   10  C   UNL     1      18.012  49.449  48.866  1.00  0.00     0.031 A 
HETATM   11  N   UNL     1      15.859  50.153  48.536  1.00  0.00    -0.167 NA
HETATM   12  H   UNL     1      15.168  48.325  47.992  1.00  0.00     0.189 HD
HETATM   13  C   UNL     1      17.098  50.549  48.895  1.00  0.00     0.164 A 
HETATM   14  C   UNL     1      19.384  49.254  49.135  1.00  0.00     0.046 A 
BRANCH  13  15
HETATM   15  C   UNL     1      17.416  51.941  49.255  1.00  0.00     0.314 C 
HETATM   16  O   UNL     1      18.269  52.610  48.679  1.00  0.00    -0.257 OA
BRANCH  15  17
HETATM   17  O   UNL     1      16.663  52.411  50.297  1.00  0.00    -0.321 OA
HETATM   18  C   UNL     1      15.976  53.631  50.024  1.00  0.00     0.213 C 
ENDBRANCH  15  17
ENDBRANCH  13  15
ENDBRANCH   1   5
BRANCH   2  19
HETATM   19  C   UNL     1      23.734  47.982  49.083  1.00  0.00     0.063 A 
HETATM   20  C   UNL     1      25.012  48.642  48.967  1.00  0.00     0.046 A 
HETATM   21  C   UNL     1      25.929  47.929  49.751  1.00  0.00     0.046 A 
HETATM   22  C   UNL     1      25.509  49.777  48.289  1.00  0.00     0.130 A 
HETATM   23  C   UNL     1      27.277  48.294  49.879  1.00  0.00     0.030 A 
HETATM   24  N   UNL     1      25.251  46.879  50.320  1.00  0.00    -0.364 N 
HETATM   25  C   UNL     1      27.721  49.425  49.189  1.00  0.00     0.005 A 
HETATM   26  C   UNL     1      26.847  50.162  48.399  1.00  0.00     0.043 A 
HETATM   27  H   UNL     1      25.664  46.194  50.939  1.00  0.00     0.165 HD
HETATM   28  C   UNL     1      23.945  46.903  49.933  1.00  0.00     0.106 A 
HETATM   29  F   UNL     1      24.702  50.515  47.511  1.00  0.00    -0.205 F 
ENDBRANCH   2  19
TORSDOF 4
ENDMDL
MODEL 10
REMARK VINA RESULT:      -8.0      3.635      8.951
REMARK  4 active torsions:
REMARK  status: ('A' for Active; 'I' for Inactive)
REMARK    1  A    between atoms: O_2  and  C_3 
REMARK    2  A    between atoms: C_3  and  C_4 
REMARK    3  A    between atoms: C_12  and  N_13 
REMARK       I    between atoms: N_13  and  C_14 
REMARK    4  A    between atoms: C_14  and  C_15 
ROOT
HETATM    1  N   UNL     1      23.776  46.646  50.091  1.00  0.00    -0.323 N 
HETATM    2  C   UNL     1      23.732  47.888  49.492  1.00  0.00     0.258 C 
HETATM    3  O   UNL     1      24.613  48.738  49.581  1.00  0.00    -0.267 OA
HETATM    4  H   UNL     1      22.996  46.027  49.909  1.00  0.00     0.169 HD
ENDROOT
BRANCH   1   5
HETATM    5  C   UNL     1      24.779  46.117  50.933  1.00  0.00     0.036 A 
HETATM    6  C   UNL     1      25.354  46.813  51.998  1.00  0.00     0.032 A 
HETATM    7  C   UNL     1      26.340  46.235  52.810  1.00  0.00     0.034 A 
HETATM    8  C   UNL     1      26.731  44.929  52.511  1.00  0.00     0.063 A 
HETATM    9  N   UNL     1      27.644  44.100  53.097  1.00  0.00    -0.277 N 
HETATM   10  C   UNL     1      26.191  44.199  51.461  1.00  0.00     0.031 A 
HETATM   11  N   UNL     1      27.748  42.894  52.517  1.00  0.00    -0.167 NA
HETATM   12  H   UNL     1      28.232  44.299  53.899  1.00  0.00     0.189 HD
HETATM   13  C   UNL     1      26.861  42.935  51.501  1.00  0.00     0.164 A 
HETATM   14  C   UNL     1      25.197  44.802  50.661  1.00  0.00     0.046 A 
BRANCH  13  15
HETATM   15  C   UNL     1      26.649  41.803  50.584  1.00  0.00     0.314 C 
HETATM   16  O   UNL     1      25.809  40.928  50.774  1.00  0.00    -0.257 OA
BRANCH  15  17
HETATM   17  O   UNL     1      27.484  41.828  49.499  1.00  0.00    -0.321 OA
HETATM   18  C   UNL     1      28.166  40.601  49.252  1.00  0.00     0.213 C 
ENDBRANCH  15  17
ENDBRANCH  13  15
ENDBRANCH   1   5
BRANCH   2  19
HETATM   19  C   UNL     1      22.529  48.162  48.686  1.00  0.00     0.063 A 
HETATM   20  C   UNL     1      21.668  49.314  48.567  1.00  0.00     0.046 A 
HETATM   21  C   UNL     1      20.677  49.005  47.626  1.00  0.00     0.046 A 
HETATM   22  C   UNL     1      21.610  50.600  49.147  1.00  0.00     0.130 A 
HETATM   23  C   UNL     1      19.666  49.902  47.254  1.00  0.00     0.030 A 
HETATM   24  N   UNL     1      20.913  47.726  47.187  1.00  0.00    -0.364 N 
HETATM   25  C   UNL     1      19.651  51.164  47.854  1.00  0.00     0.005 A 
HETATM   26  C   UNL     1      20.614  51.513  48.793  1.00  0.00     0.043 A 
HETATM   27  H   UNL     1      20.353  47.239  46.500  1.00  0.00     0.165 HD
HETATM   28  C   UNL     1      22.014  47.216  47.808  1.00  0.00     0.106 A 
HETATM   29  F   UNL     1      22.516  50.978  50.062  1.00  0.00    -0.205 F 
ENDBRANCH   2  19
TORSDOF 4
ENDMDL
