MODEL 1
REMARK VINA RESULT:     -10.2      0.000      0.000
REMARK  4 active torsions:
REMARK  status: ('A' for Active; 'I' for Inactive)
REMARK    1  A    between atoms: C_3  and  C_4 
REMARK    2  A    between atoms: C_15  and  C_16 
REMARK       I    between atoms: C_16  and  N_17 
REMARK    3  A    between atoms: N_17  and  C_18 
REMARK    4  A    between atoms: C_18  and  C_19 
ROOT
HETATM    1  C   UNL     1      28.755  40.925  53.166  1.00  0.00     0.055 C 
HETATM    2  C   UNL     1      28.310  42.355  53.243  1.00  0.00     0.024 A 
HETATM    3  C   UNL     1      27.465  42.991  52.411  1.00  0.00     0.096 A 
HETATM    4  O   UNL     1      27.029  44.293  52.562  1.00  0.00    -0.307 OA
HETATM    5  C   UNL     1      27.544  45.067  53.570  1.00  0.00     0.106 A 
HETATM    6  C   UNL     1      28.474  44.552  54.474  1.00  0.00     0.050 A 
HETATM    7  C   UNL     1      28.872  43.139  54.369  1.00  0.00     0.193 A 
HETATM    8  O   UNL     1      29.647  42.642  55.178  1.00  0.00    -0.287 OA
HETATM    9  C   UNL     1      27.119  46.400  53.696  1.00  0.00     0.066 A 
HETATM   10  C   UNL     1      27.674  47.198  54.716  1.00  0.00     0.020 A 
HETATM   11  C   UNL     1      28.622  46.681  55.599  1.00  0.00     0.002 A 
HETATM   12  C   UNL     1      29.017  45.353  55.485  1.00  0.00     0.018 A 
ENDROOT
BRANCH   9  13
HETATM   13  C   UNL     1      26.059  47.038  52.853  1.00  0.00     0.255 C 
HETATM   14  N   UNL     1      26.001  46.707  51.521  1.00  0.00    -0.349 N 
HETATM   15  H   UNL     1      26.656  46.031  51.143  1.00  0.00     0.163 HD
HETATM   16  O   UNL     1      25.271  47.827  53.369  1.00  0.00    -0.268 OA
BRANCH  14  17
HETATM   17  C   UNL     1      24.906  47.130  50.667  1.00  0.00     0.114 C 
HETATM   18  C   UNL     1      24.251  45.913  50.006  1.00  0.00     0.037 C 
BRANCH  17  19
HETATM   19  C   UNL     1      25.403  48.172  49.687  1.00  0.00    -0.033 A 
HETATM   20  C   UNL     1      26.757  48.484  49.529  1.00  0.00     0.028 A 
HETATM   21  C   UNL     1      27.114  49.467  48.617  1.00  0.00     0.116 A 
HETATM   22  N   UNL     1      26.230  50.161  47.872  1.00  0.00    -0.273 NA
HETATM   23  C   UNL     1      24.926  49.863  48.049  1.00  0.00     0.116 A 
HETATM   24  C   UNL     1      24.471  48.898  48.933  1.00  0.00     0.028 A 
ENDBRANCH  17  19
ENDBRANCH  14  17
ENDBRANCH   9  13
BRANCH   3  25
HETATM   25  C   UNL     1      26.901  42.358  51.209  1.00  0.00    -0.002 A 
HETATM   26  C   UNL     1      25.526  42.416  50.955  1.00  0.00     0.014 A 
HETATM   27  C   UNL     1      25.000  41.829  49.804  1.00  0.00     0.001 A 
HETATM   28  C   UNL     1      25.841  41.187  48.896  1.00  0.00     0.000 A 
HETATM   29  C   UNL     1      27.213  41.134  49.136  1.00  0.00     0.001 A 
HETATM   30  C   UNL     1      27.742  41.720  50.287  1.00  0.00     0.014 A 
ENDBRANCH   3  25
TORSDOF 4
ENDMDL
MODEL 2
REMARK VINA RESULT:      -8.9      2.753      7.089
REMARK  4 active torsions:
REMARK  status: ('A' for Active; 'I' for Inactive)
REMARK    1  A    between atoms: C_3  and  C_4 
REMARK    2  A    between atoms: C_15  and  C_16 
REMARK       I    between atoms: C_16  and  N_17 
REMARK    3  A    between atoms: N_17  and  C_18 
REMARK    4  A    between atoms: C_18  and  C_19 
ROOT
HETATM    1  C   UNL     1      27.605  47.326  54.985  1.00  0.00     0.055 C 
HETATM    2  C   UNL     1      27.158  46.330  53.957  1.00  0.00     0.024 A 
HETATM    3  C   UNL     1      27.632  45.084  53.770  1.00  0.00     0.096 A 
HETATM    4  O   UNL     1      27.140  44.176  52.853  1.00  0.00    -0.307 OA
HETATM    5  C   UNL     1      26.157  44.560  51.978  1.00  0.00     0.106 A 
HETATM    6  C   UNL     1      25.612  45.844  52.021  1.00  0.00     0.050 A 
HETATM    7  C   UNL     1      26.071  46.785  53.056  1.00  0.00     0.193 A 
HETATM    8  O   UNL     1      25.578  47.903  53.154  1.00  0.00    -0.287 OA
HETATM    9  C   UNL     1      25.685  43.639  51.028  1.00  0.00     0.066 A 
HETATM   10  C   UNL     1      24.695  44.050  50.113  1.00  0.00     0.020 A 
HETATM   11  C   UNL     1      24.176  45.344  50.149  1.00  0.00     0.002 A 
HETATM   12  C   UNL     1      24.628  46.241  51.110  1.00  0.00     0.018 A 
ENDROOT
BRANCH   9  13
HETATM   13  C   UNL     1      26.117  42.208  50.944  1.00  0.00     0.255 C 
HETATM   14  N   UNL     1      27.452  41.922  51.100  1.00  0.00    -0.349 N 
HETATM   15  H   UNL     1      28.108  42.672  51.286  1.00  0.00     0.163 HD
HETATM   16  O   UNL     1      25.277  41.334  50.748  1.00  0.00    -0.268 OA
BRANCH  14  17
HETATM   17  C   UNL     1      27.941  40.559  51.214  1.00  0.00     0.114 C 
HETATM   18  C   UNL     1      29.183  40.518  52.109  1.00  0.00     0.037 C 
BRANCH  17  19
HETATM   19  C   UNL     1      28.157  39.983  49.831  1.00  0.00    -0.033 A 
HETATM   20  C   UNL     1      28.033  40.741  48.662  1.00  0.00     0.028 A 
HETATM   21  C   UNL     1      28.233  40.119  47.438  1.00  0.00     0.116 A 
HETATM   22  N   UNL     1      28.533  38.812  47.296  1.00  0.00    -0.273 NA
HETATM   23  C   UNL     1      28.630  38.088  48.431  1.00  0.00     0.116 A 
HETATM   24  C   UNL     1      28.449  38.619  49.699  1.00  0.00     0.028 A 
ENDBRANCH  17  19
ENDBRANCH  14  17
ENDBRANCH   9  13
BRANCH   3  25
HETATM   25  C   UNL     1      28.761  44.537  54.536  1.00  0.00    -0.002 A 
HETATM   26  C   UNL     1      29.331  43.309  54.180  1.00  0.00     0.014 A 
HETATM   27  C   UNL     1      30.414  42.804  54.901  1.00  0.00     0.001 A 
HETATM   28  C   UNL     1      30.940  43.522  55.973  1.00  0.00     0.000 A 
HETATM   29  C   UNL     1      30.385  44.751  56.327  1.00  0.00     0.001 A 
HETATM   30  C   UNL     1      29.302  45.259  55.609  1.00  0.00     0.014 A 
ENDBRANCH   3  25
TORSDOF 4
ENDMDL
MODEL 3
REMARK VINA RESULT:      -8.6      6.307     10.078
REMARK  4 active torsions:
REMARK  status: ('A' for Active; 'I' for Inactive)
REMARK    1  A    between atoms: C_3  and  C_4 
REMARK    2  A    between atoms: C_15  and  C_16 
REMARK       I    between atoms: C_16  and  N_17 
REMARK    3  A    between atoms: N_17  and  C_18 
REMARK    4  A    between atoms: C_18  and  C_19 
ROOT
HETATM    1  C   UNL     1      23.086  51.085  49.236  1.00  0.00     0.055 C 
HETATM    2  C   UNL     1      22.451  49.739  49.053  1.00  0.00     0.024 A 
HETATM    3  C   UNL     1      21.152  49.477  48.815  1.00  0.00     0.096 A 
HETATM    4  O   UNL     1      20.623  48.222  48.583  1.00  0.00    -0.307 OA
HETATM    5  C   UNL     1      21.429  47.118  48.688  1.00  0.00     0.106 A 
HETATM    6  C   UNL     1      22.787  47.238  48.986  1.00  0.00     0.050 A 
HETATM    7  C   UNL     1      23.371  48.580  49.145  1.00  0.00     0.193 A 
HETATM    8  O   UNL     1      24.570  48.724  49.356  1.00  0.00    -0.287 OA
HETATM    9  C   UNL     1      20.875  45.843  48.483  1.00  0.00     0.066 A 
HETATM   10  C   UNL     1      21.702  44.711  48.620  1.00  0.00     0.020 A 
HETATM   11  C   UNL     1      23.053  44.841  48.944  1.00  0.00     0.002 A 
HETATM   12  C   UNL     1      23.600  46.108  49.118  1.00  0.00     0.018 A 
ENDROOT
BRANCH   9  13
HETATM   13  C   UNL     1      19.461  45.588  48.063  1.00  0.00     0.255 C 
HETATM   14  N   UNL     1      18.837  46.527  47.276  1.00  0.00    -0.349 N 
HETATM   15  H   UNL     1      19.345  47.353  46.983  1.00  0.00     0.163 HD
HETATM   16  O   UNL     1      18.902  44.555  48.421  1.00  0.00    -0.268 OA
BRANCH  14  17
HETATM   17  C   UNL     1      17.539  46.287  46.673  1.00  0.00     0.114 C 
HETATM   18  C   UNL     1      17.707  45.846  45.216  1.00  0.00     0.037 C 
BRANCH  17  19
HETATM   19  C   UNL     1      16.667  47.513  46.849  1.00  0.00    -0.033 A 
HETATM   20  C   UNL     1      15.684  47.888  45.927  1.00  0.00     0.028 A 
HETATM   21  C   UNL     1      14.947  49.039  46.167  1.00  0.00     0.116 A 
HETATM   22  N   UNL     1      15.126  49.839  47.238  1.00  0.00    -0.273 NA
HETATM   23  C   UNL     1      16.091  49.476  48.108  1.00  0.00     0.116 A 
HETATM   24  C   UNL     1      16.877  48.345  47.957  1.00  0.00     0.028 A 
ENDBRANCH  17  19
ENDBRANCH  14  17
ENDBRANCH   9  13
BRANCH   3  25
HETATM   25  C   UNL     1      20.119  50.524  48.781  1.00  0.00    -0.002 A 
HETATM   26  C   UNL     1      19.667  51.035  47.560  1.00  0.00     0.014 A 
HETATM   27  C   UNL     1      18.674  52.016  47.536  1.00  0.00     0.001 A 
HETATM   28  C   UNL     1      18.122  52.486  48.726  1.00  0.00     0.000 A 
HETATM   29  C   UNL     1      18.560  51.974  49.946  1.00  0.00     0.001 A 
HETATM   30  C   UNL     1      19.552  50.993  49.974  1.00  0.00     0.014 A 
ENDBRANCH   3  25
TORSDOF 4
ENDMDL
MODEL 4
REMARK VINA RESULT:      -8.5      2.629      6.617
REMARK  4 active torsions:
REMARK  status: ('A' for Active; 'I' for Inactive)
REMARK    1  A    between atoms: C_3  and  C_4 
REMARK    2  A    between atoms: C_15  and  C_16 
REMARK       I    between atoms: C_16  and  N_17 
REMARK    3  A    between atoms: N_17  and  C_18 
REMARK    4  A    between atoms: C_18  and  C_19 
ROOT
HETATM    1  C   UNL     1      27.613  47.368  56.077  1.00  0.00     0.055 C 
HETATM    2  C   UNL     1      27.305  46.646  54.800  1.00  0.00     0.024 A 
HETATM    3  C   UNL     1      27.888  45.525  54.336  1.00  0.00     0.096 A 
HETATM    4  O   UNL     1      27.521  44.856  53.185  1.00  0.00    -0.307 OA
HETATM    5  C   UNL     1      26.558  45.389  52.368  1.00  0.00     0.106 A 
HETATM    6  C   UNL     1      25.909  46.580  52.697  1.00  0.00     0.050 A 
HETATM    7  C   UNL     1      26.234  47.248  53.968  1.00  0.00     0.193 A 
HETATM    8  O   UNL     1      25.646  48.267  54.312  1.00  0.00    -0.287 OA
HETATM    9  C   UNL     1      26.215  44.718  51.183  1.00  0.00     0.066 A 
HETATM   10  C   UNL     1      25.245  45.287  50.334  1.00  0.00     0.020 A 
HETATM   11  C   UNL     1      24.620  46.491  50.660  1.00  0.00     0.002 A 
HETATM   12  C   UNL     1      24.945  47.135  51.849  1.00  0.00     0.018 A 
ENDROOT
BRANCH   9  13
HETATM   13  C   UNL     1      26.766  43.389  50.768  1.00  0.00     0.255 C 
HETATM   14  N   UNL     1      26.382  42.276  51.478  1.00  0.00    -0.349 N 
HETATM   15  H   UNL     1      25.726  42.372  52.245  1.00  0.00     0.163 HD
HETATM   16  O   UNL     1      27.533  43.325  49.811  1.00  0.00    -0.268 OA
BRANCH  14  17
HETATM   17  C   UNL     1      26.716  40.932  51.044  1.00  0.00     0.114 C 
HETATM   18  C   UNL     1      28.226  40.702  51.156  1.00  0.00     0.037 C 
BRANCH  17  19
HETATM   19  C   UNL     1      26.157  40.695  49.657  1.00  0.00    -0.033 A 
HETATM   20  C   UNL     1      24.889  41.132  49.262  1.00  0.00     0.028 A 
HETATM   21  C   UNL     1      24.456  40.852  47.973  1.00  0.00     0.116 A 
HETATM   22  N   UNL     1      25.182  40.167  47.067  1.00  0.00    -0.273 NA
HETATM   23  C   UNL     1      26.396  39.735  47.468  1.00  0.00     0.116 A 
HETATM   24  C   UNL     1      26.916  39.966  48.732  1.00  0.00     0.028 A 
ENDBRANCH  17  19
ENDBRANCH  14  17
ENDBRANCH   9  13
BRANCH   3  25
HETATM   25  C   UNL     1      29.016  44.872  55.017  1.00  0.00    -0.002 A 
HETATM   26  C   UNL     1      29.613  45.469  56.133  1.00  0.00     0.014 A 
HETATM   27  C   UNL     1      30.672  44.835  56.784  1.00  0.00     0.001 A 
HETATM   28  C   UNL     1      31.136  43.600  56.333  1.00  0.00     0.000 A 
HETATM   29  C   UNL     1      30.539  42.994  55.229  1.00  0.00     0.001 A 
HETATM   30  C   UNL     1      29.481  43.625  54.575  1.00  0.00     0.014 A 
ENDBRANCH   3  25
TORSDOF 4
ENDMDL
MODEL 5
REMARK VINA RESULT:      -8.3     16.875     18.340
REMARK  4 active torsions:
REMARK  status: ('A' for Active; 'I' for Inactive)
REMARK    1  A    between atoms: C_3  and  C_4 
REMARK    2  A    between atoms: C_15  and  C_16 
REMARK       I    between atoms: C_16  and  N_17 
REMARK    3  A    between atoms: N_17  and  C_18 
REMARK    4  A    between atoms: C_18  and  C_19 
ROOT
HETATM    1  C   UNL     1      42.378  44.403  63.908  1.00  0.00     0.055 C 
HETATM    2  C   UNL     1      41.172  45.170  64.361  1.00  0.00     0.024 A 
HETATM    3  C   UNL     1      39.933  44.688  64.574  1.00  0.00     0.096 A 
HETATM    4  O   UNL     1      38.867  45.422  65.059  1.00  0.00    -0.307 OA
HETATM    5  C   UNL     1      39.009  46.770  65.264  1.00  0.00     0.106 A 
HETATM    6  C   UNL     1      40.225  47.413  65.029  1.00  0.00     0.050 A 
HETATM    7  C   UNL     1      41.387  46.618  64.598  1.00  0.00     0.193 A 
HETATM    8  O   UNL     1      42.482  47.143  64.432  1.00  0.00    -0.287 OA
HETATM    9  C   UNL     1      37.910  47.513  65.727  1.00  0.00     0.066 A 
HETATM   10  C   UNL     1      38.055  48.902  65.907  1.00  0.00     0.020 A 
HETATM   11  C   UNL     1      39.268  49.540  65.645  1.00  0.00     0.002 A 
HETATM   12  C   UNL     1      40.359  48.793  65.214  1.00  0.00     0.018 A 
ENDROOT
BRANCH   9  13
HETATM   13  C   UNL     1      36.587  46.926  66.108  1.00  0.00     0.255 C 
HETATM   14  N   UNL     1      36.574  45.694  66.719  1.00  0.00    -0.349 N 
HETATM   15  H   UNL     1      37.449  45.223  66.916  1.00  0.00     0.163 HD
HETATM   16  O   UNL     1      35.558  47.554  65.874  1.00  0.00    -0.268 OA
BRANCH  14  17
HETATM   17  C   UNL     1      35.363  45.127  67.285  1.00  0.00     0.114 C 
HETATM   18  C   UNL     1      35.479  45.051  68.810  1.00  0.00     0.037 C 
BRANCH  17  19
HETATM   19  C   UNL     1      35.071  43.798  66.621  1.00  0.00    -0.033 A 
HETATM   20  C   UNL     1      33.910  43.059  66.873  1.00  0.00     0.028 A 
HETATM   21  C   UNL     1      33.739  41.842  66.229  1.00  0.00     0.116 A 
HETATM   22  N   UNL     1      34.635  41.310  65.373  1.00  0.00    -0.273 NA
HETATM   23  C   UNL     1      35.759  42.024  65.154  1.00  0.00     0.116 A 
HETATM   24  C   UNL     1      36.020  43.249  65.748  1.00  0.00     0.028 A 
ENDBRANCH  17  19
ENDBRANCH  14  17
ENDBRANCH   9  13
BRANCH   3  25
HETATM   25  C   UNL     1      39.561  43.292  64.299  1.00  0.00    -0.002 A 
HETATM   26  C   UNL     1      39.113  42.914  63.029  1.00  0.00     0.014 A 
HETATM   27  C   UNL     1      38.778  41.584  62.771  1.00  0.00     0.001 A 
HETATM   28  C   UNL     1      38.896  40.623  63.774  1.00  0.00     0.000 A 
HETATM   29  C   UNL     1      39.352  40.990  65.039  1.00  0.00     0.001 A 
HETATM   30  C   UNL     1      39.687  42.319  65.300  1.00  0.00     0.014 A 
ENDBRANCH   3  25
TORSDOF 4
ENDMDL
MODEL 6
REMARK VINA RESULT:      -8.2      4.520      9.060
REMARK  4 active torsions:
REMARK  status: ('A' for Active; 'I' for Inactive)
REMARK    1  A    between atoms: C_3  and  C_4 
REMARK    2  A    between atoms: C_15  and  C_16 
REMARK       I    between atoms: C_16  and  N_17 
REMARK    3  A    between atoms: N_17  and  C_18 
REMARK    4  A    between atoms: C_18  and  C_19 
ROOT
HETATM    1  C   UNL     1      22.763  51.197  49.775  1.00  0.00     0.055 C 
HETATM    2  C   UNL     1      22.374  50.029  48.919  1.00  0.00     0.024 A 
HETATM    3  C   UNL     1      23.170  49.032  48.491  1.00  0.00     0.096 A 
HETATM    4  O   UNL     1      22.751  47.937  47.759  1.00  0.00    -0.307 OA
HETATM    5  C   UNL     1      21.450  47.866  47.332  1.00  0.00     0.106 A 
HETATM    6  C   UNL     1      20.527  48.861  47.656  1.00  0.00     0.050 A 
HETATM    7  C   UNL     1      20.949  49.982  48.510  1.00  0.00     0.193 A 
HETATM    8  O   UNL     1      20.150  50.846  48.855  1.00  0.00    -0.287 OA
HETATM    9  C   UNL     1      21.041  46.764  46.561  1.00  0.00     0.066 A 
HETATM   10  C   UNL     1      19.710  46.712  46.101  1.00  0.00     0.020 A 
HETATM   11  C   UNL     1      18.802  47.725  46.409  1.00  0.00     0.002 A 
HETATM   12  C   UNL     1      19.207  48.797  47.196  1.00  0.00     0.018 A 
ENDROOT
BRANCH   9  13
HETATM   13  C   UNL     1      21.907  45.588  46.232  1.00  0.00     0.255 C 
HETATM   14  N   UNL     1      22.319  44.776  47.261  1.00  0.00    -0.349 N 
HETATM   15  H   UNL     1      22.016  44.973  48.208  1.00  0.00     0.163 HD
HETATM   16  O   UNL     1      22.219  45.377  45.063  1.00  0.00    -0.268 OA
BRANCH  14  17
HETATM   17  C   UNL     1      23.005  43.519  47.024  1.00  0.00     0.114 C 
HETATM   18  C   UNL     1      21.988  42.404  46.762  1.00  0.00     0.037 C 
BRANCH  17  19
HETATM   19  C   UNL     1      23.950  43.235  48.173  1.00  0.00    -0.033 A 
HETATM   20  C   UNL     1      24.207  41.945  48.647  1.00  0.00     0.028 A 
HETATM   21  C   UNL     1      25.076  41.787  49.717  1.00  0.00     0.116 A 
HETATM   22  N   UNL     1      25.688  42.810  50.349  1.00  0.00    -0.273 NA
HETATM   23  C   UNL     1      25.414  44.050  49.894  1.00  0.00     0.116 A 
HETATM   24  C   UNL     1      24.564  44.309  48.831  1.00  0.00     0.028 A 
ENDBRANCH  17  19
ENDBRANCH  14  17
ENDBRANCH   9  13
BRANCH   3  25
HETATM   25  C   UNL     1      24.617  48.997  48.753  1.00  0.00    -0.002 A 
HETATM   26  C   UNL     1      25.469  49.928  48.150  1.00  0.00     0.014 A 
HETATM   27  C   UNL     1      26.839  49.900  48.416  1.00  0.00     0.001 A 
HETATM   28  C   UNL     1      27.365  48.950  49.291  1.00  0.00     0.000 A 
HETATM   29  C   UNL     1      26.520  48.026  49.904  1.00  0.00     0.001 A 
HETATM   30  C   UNL     1      25.151  48.051  49.639  1.00  0.00     0.014 A 
ENDBRANCH   3  25
TORSDOF 4
ENDMDL
MODEL 7
REMARK VINA RESULT:      -8.2      3.316      8.116
REMARK  4 active torsions:
REMARK  status: ('A' for Active; 'I' for Inactive)
REMARK    1  A    between atoms: C_3  and  C_4 
REMARK    2  A    between atoms: C_15  and  C_16 
REMARK       I    between atoms: C_16  and  N_17 
REMARK    3  A    between atoms: N_17  and  C_18 
REMARK    4  A    between atoms: C_18  and  C_19 
ROOT
HETATM    1  C   UNL     1      21.674  50.600  47.334  1.00  0.00     0.055 C 
HETATM    2  C   UNL     1      22.603  49.698  48.091  1.00  0.00     0.024 A 
HETATM    3  C   UNL     1      22.273  48.617  48.821  1.00  0.00     0.096 A 
HETATM    4  O   UNL     1      23.173  47.774  49.445  1.00  0.00    -0.307 OA
HETATM    5  C   UNL     1      24.510  48.076  49.426  1.00  0.00     0.106 A 
HETATM    6  C   UNL     1      24.988  49.201  48.753  1.00  0.00     0.050 A 
HETATM    7  C   UNL     1      24.041  50.051  48.012  1.00  0.00     0.193 A 
HETATM    8  O   UNL     1      24.434  51.018  47.368  1.00  0.00    -0.287 OA
HETATM    9  C   UNL     1      25.414  47.231  50.091  1.00  0.00     0.066 A 
HETATM   10  C   UNL     1      26.783  47.563  50.091  1.00  0.00     0.020 A 
HETATM   11  C   UNL     1      27.247  48.704  49.436  1.00  0.00     0.002 A 
HETATM   12  C   UNL     1      26.349  49.521  48.758  1.00  0.00     0.018 A 
ENDROOT
BRANCH   9  13
HETATM   13  C   UNL     1      25.039  45.946  50.763  1.00  0.00     0.255 C 
HETATM   14  N   UNL     1      25.852  45.478  51.768  1.00  0.00    -0.349 N 
HETATM   15  H   UNL     1      26.666  46.014  52.045  1.00  0.00     0.163 HD
HETATM   16  O   UNL     1      24.024  45.353  50.409  1.00  0.00    -0.268 OA
BRANCH  14  17
HETATM   17  C   UNL     1      25.479  44.346  52.597  1.00  0.00     0.114 C 
HETATM   18  C   UNL     1      25.181  44.812  54.025  1.00  0.00     0.037 C 
BRANCH  17  19
HETATM   19  C   UNL     1      26.551  43.280  52.506  1.00  0.00    -0.033 A 
HETATM   20  C   UNL     1      26.805  42.552  51.340  1.00  0.00     0.028 A 
HETATM   21  C   UNL     1      27.798  41.582  51.360  1.00  0.00     0.116 A 
HETATM   22  N   UNL     1      28.537  41.282  52.447  1.00  0.00    -0.273 NA
HETATM   23  C   UNL     1      28.268  41.979  53.571  1.00  0.00     0.116 A 
HETATM   24  C   UNL     1      27.298  42.967  53.650  1.00  0.00     0.028 A 
ENDBRANCH  17  19
ENDBRANCH  14  17
ENDBRANCH   9  13
BRANCH   3  25
HETATM   25  C   UNL     1      20.881  48.203  49.051  1.00  0.00    -0.002 A 
HETATM   26  C   UNL     1      20.048  48.951  49.890  1.00  0.00     0.014 A 
HETATM   27  C   UNL     1      18.722  48.563  50.090  1.00  0.00     0.001 A 
HETATM   28  C   UNL     1      18.218  47.431  49.449  1.00  0.00     0.000 A 
HETATM   29  C   UNL     1      19.039  46.687  48.604  1.00  0.00     0.001 A 
HETATM   30  C   UNL     1      20.364  47.073  48.402  1.00  0.00     0.014 A 
ENDBRANCH   3  25
TORSDOF 4
ENDMDL
MODEL 8
REMARK VINA RESULT:      -8.1      4.148      7.731
REMARK  4 active torsions:
REMARK  status: ('A' for Active; 'I' for Inactive)
REMARK    1  A    between atoms: C_3  and  C_4 
REMARK    2  A    between atoms: C_15  and  C_16 
REMARK       I    between atoms: C_16  and  N_17 
REMARK    3  A    between atoms: N_17  and  C_18 
REMARK    4  A    between atoms: C_18  and  C_19 
ROOT
HETATM    1  C   UNL     1      25.805  50.281  48.758  1.00  0.00     0.055 C 
HETATM    2  C   UNL     1      25.253  48.914  49.033  1.00  0.00     0.024 A 
HETATM    3  C   UNL     1      23.959  48.543  49.032  1.00  0.00     0.096 A 
HETATM    4  O   UNL     1      23.502  47.253  49.224  1.00  0.00    -0.307 OA
HETATM    5  C   UNL     1      24.392  46.258  49.537  1.00  0.00     0.106 A 
HETATM    6  C   UNL     1      25.760  46.514  49.627  1.00  0.00     0.050 A 
HETATM    7  C   UNL     1      26.260  47.868  49.335  1.00  0.00     0.193 A 
HETATM    8  O   UNL     1      27.460  48.114  49.356  1.00  0.00    -0.287 OA
HETATM    9  C   UNL     1      23.913  44.956  49.761  1.00  0.00     0.066 A 
HETATM   10  C   UNL     1      24.830  43.945  50.110  1.00  0.00     0.020 A 
HETATM   11  C   UNL     1      26.194  44.217  50.223  1.00  0.00     0.002 A 
HETATM   12  C   UNL     1      26.662  45.502  49.972  1.00  0.00     0.018 A 
ENDROOT
BRANCH   9  13
HETATM   13  C   UNL     1      22.486  44.535  49.599  1.00  0.00     0.255 C 
HETATM   14  N   UNL     1      21.695  45.242  48.724  1.00  0.00    -0.349 N 
HETATM   15  H   UNL     1      22.093  46.011  48.197  1.00  0.00     0.163 HD
HETATM   16  O   UNL     1      22.063  43.576  50.238  1.00  0.00    -0.268 OA
BRANCH  14  17
HETATM   17  C   UNL     1      20.359  44.802  48.364  1.00  0.00     0.114 C 
HETATM   18  C   UNL     1      20.366  44.184  46.963  1.00  0.00     0.037 C 
BRANCH  17  19
HETATM   19  C   UNL     1      19.389  45.954  48.527  1.00  0.00    -0.033 A 
HETATM   20  C   UNL     1      19.761  47.195  49.052  1.00  0.00     0.028 A 
HETATM   21  C   UNL     1      18.795  48.184  49.178  1.00  0.00     0.116 A 
HETATM   22  N   UNL     1      17.501  48.022  48.835  1.00  0.00    -0.273 NA
HETATM   23  C   UNL     1      17.153  46.813  48.348  1.00  0.00     0.116 A 
HETATM   24  C   UNL     1      18.044  45.764  48.183  1.00  0.00     0.028 A 
ENDBRANCH  17  19
ENDBRANCH  14  17
ENDBRANCH   9  13
BRANCH   3  25
HETATM   25  C   UNL     1      22.856  49.494  48.831  1.00  0.00    -0.002 A 
HETATM   26  C   UNL     1      22.251  49.623  47.576  1.00  0.00     0.014 A 
HETATM   27  C   UNL     1      21.192  50.515  47.396  1.00  0.00     0.001 A 
HETATM   28  C   UNL     1      20.727  51.276  48.467  1.00  0.00     0.000 A 
HETATM   29  C   UNL     1      21.317  51.146  49.722  1.00  0.00     0.001 A 
HETATM   30  C   UNL     1      22.376  50.255  49.905  1.00  0.00     0.014 A 
ENDBRANCH   3  25
TORSDOF 4
ENDMDL
MODEL 9
REMARK VINA RESULT:      -7.9      3.896      8.241
REMARK  4 active torsions:
REMARK  status: ('A' for Active; 'I' for Inactive)
REMARK    1  A    between atoms: C_3  and  C_4 
REMARK    2  A    between atoms: C_15  and  C_16 
REMARK       I    between atoms: C_16  and  N_17 
REMARK    3  A    between atoms: N_17  and  C_18 
REMARK    4  A    between atoms: C_18  and  C_19 
ROOT
HETATM    1  C   UNL     1      21.399  50.853  47.607  1.00  0.00     0.055 C 
HETATM    2  C   UNL     1      22.290  49.810  48.212  1.00  0.00     0.024 A 
HETATM    3  C   UNL     1      21.918  48.635  48.753  1.00  0.00     0.096 A 
HETATM    4  O   UNL     1      22.783  47.673  49.236  1.00  0.00    -0.307 OA
HETATM    5  C   UNL     1      24.129  47.930  49.277  1.00  0.00     0.106 A 
HETATM    6  C   UNL     1      24.650  49.134  48.801  1.00  0.00     0.050 A 
HETATM    7  C   UNL     1      23.740  50.124  48.203  1.00  0.00     0.193 A 
HETATM    8  O   UNL     1      24.170  51.170  47.729  1.00  0.00    -0.287 OA
HETATM    9  C   UNL     1      24.998  46.958  49.801  1.00  0.00     0.066 A 
HETATM   10  C   UNL     1      26.377  47.241  49.866  1.00  0.00     0.020 A 
HETATM   11  C   UNL     1      26.884  48.459  49.411  1.00  0.00     0.002 A 
HETATM   12  C   UNL     1      26.021  49.404  48.869  1.00  0.00     0.018 A 
ENDROOT
BRANCH   9  13
HETATM   13  C   UNL     1      24.576  45.594  50.250  1.00  0.00     0.255 C 
HETATM   14  N   UNL     1      24.325  44.642  49.290  1.00  0.00    -0.349 N 
HETATM   15  H   UNL     1      24.448  44.873  48.311  1.00  0.00     0.163 HD
HETATM   16  O   UNL     1      24.472  45.359  51.451  1.00  0.00    -0.268 OA
BRANCH  14  17
HETATM   17  C   UNL     1      24.088  43.250  49.628  1.00  0.00     0.114 C 
HETATM   18  C   UNL     1      25.420  42.518  49.813  1.00  0.00     0.037 C 
BRANCH  17  19
HETATM   19  C   UNL     1      23.180  42.627  48.589  1.00  0.00    -0.033 A 
HETATM   20  C   UNL     1      23.108  41.248  48.368  1.00  0.00     0.028 A 
HETATM   21  C   UNL     1      22.258  40.772  47.380  1.00  0.00     0.116 A 
HETATM   22  N   UNL     1      21.494  41.562  46.598  1.00  0.00    -0.273 NA
HETATM   23  C   UNL     1      21.588  42.892  46.808  1.00  0.00     0.116 A 
HETATM   24  C   UNL     1      22.406  43.462  47.772  1.00  0.00     0.028 A 
ENDBRANCH  17  19
ENDBRANCH  14  17
ENDBRANCH   9  13
BRANCH   3  25
HETATM   25  C   UNL     1      20.511  48.235  48.901  1.00  0.00    -0.002 A 
HETATM   26  C   UNL     1      19.694  48.852  49.854  1.00  0.00     0.014 A 
HETATM   27  C   UNL     1      18.355  48.479  49.978  1.00  0.00     0.001 A 
HETATM   28  C   UNL     1      17.821  47.495  49.146  1.00  0.00     0.000 A 
HETATM   29  C   UNL     1      18.625  46.883  48.187  1.00  0.00     0.001 A 
HETATM   30  C   UNL     1      19.965  47.254  48.061  1.00  0.00     0.014 A 
ENDBRANCH   3  25
TORSDOF 4
ENDMDL
MODEL 10
REMARK VINA RESULT:      -7.9     17.048     18.916
REMARK  4 active torsions:
REMARK  status: ('A' for Active; 'I' for Inactive)
REMARK    1  A    between atoms: C_3  and  C_4 
REMARK    2  A    between atoms: C_15  and  C_16 
REMARK       I    between atoms: C_16  and  N_17 
REMARK    3  A    between atoms: N_17  and  C_18 
REMARK    4  A    between atoms: C_18  and  C_19 
ROOT
HETATM    1  C   UNL     1      34.825  43.581  66.877  1.00  0.00     0.055 C 
HETATM    2  C   UNL     1      36.068  43.841  66.079  1.00  0.00     0.024 A 
HETATM    3  C   UNL     1      36.844  44.940  66.116  1.00  0.00     0.096 A 
HETATM    4  O   UNL     1      38.021  45.106  65.411  1.00  0.00    -0.307 OA
HETATM    5  C   UNL     1      38.419  44.143  64.520  1.00  0.00     0.106 A 
HETATM    6  C   UNL     1      37.677  42.975  64.338  1.00  0.00     0.050 A 
HETATM    7  C   UNL     1      36.471  42.755  65.152  1.00  0.00     0.193 A 
HETATM    8  O   UNL     1      35.826  41.718  65.054  1.00  0.00    -0.287 OA
HETATM    9  C   UNL     1      39.600  44.336  63.784  1.00  0.00     0.066 A 
HETATM   10  C   UNL     1      39.988  43.356  62.849  1.00  0.00     0.020 A 
HETATM   11  C   UNL     1      39.225  42.204  62.656  1.00  0.00     0.002 A 
HETATM   12  C   UNL     1      38.072  42.007  63.408  1.00  0.00     0.018 A 
ENDROOT
BRANCH   9  13
HETATM   13  C   UNL     1      40.532  45.495  63.959  1.00  0.00     0.255 C 
HETATM   14  N   UNL     1      40.072  46.602  64.633  1.00  0.00    -0.349 N 
HETATM   15  H   UNL     1      39.132  46.604  65.011  1.00  0.00     0.163 HD
HETATM   16  O   UNL     1      41.672  45.427  63.509  1.00  0.00    -0.268 OA
BRANCH  14  17
HETATM   17  C   UNL     1      40.950  47.695  65.009  1.00  0.00     0.114 C 
HETATM   18  C   UNL     1      42.179  47.156  65.747  1.00  0.00     0.037 C 
BRANCH  17  19
HETATM   19  C   UNL     1      40.164  48.727  65.791  1.00  0.00    -0.033 A 
HETATM   20  C   UNL     1      40.256  48.863  67.179  1.00  0.00     0.028 A 
HETATM   21  C   UNL     1      39.482  49.827  67.810  1.00  0.00     0.116 A 
HETATM   22  N   UNL     1      38.625  50.645  67.166  1.00  0.00    -0.273 NA
HETATM   23  C   UNL     1      38.532  50.489  65.829  1.00  0.00     0.116 A 
HETATM   24  C   UNL     1      39.264  49.557  65.110  1.00  0.00     0.028 A 
ENDBRANCH  17  19
ENDBRANCH  14  17
ENDBRANCH   9  13
BRANCH   3  25
HETATM   25  C   UNL     1      36.516  46.122  66.926  1.00  0.00    -0.002 A 
HETATM   26  C   UNL     1      37.048  46.272  68.211  1.00  0.00     0.014 A 
HETATM   27  C   UNL     1      36.746  47.405  68.968  1.00  0.00     0.001 A 
HETATM   28  C   UNL     1      35.920  48.399  68.444  1.00  0.00     0.000 A 
HETATM   29  C   UNL     1      35.395  48.262  67.160  1.00  0.00     0.001 A 
HETATM   30  C   UNL     1      35.695  47.130  66.402  1.00  0.00     0.014 A 
ENDBRANCH   3  25
TORSDOF 4
ENDMDL
