MODEL 1
REMARK VINA RESULT:      -9.1      0.000      0.000
REMARK  8 active torsions:
REMARK  status: ('A' for Active; 'I' for Inactive)
REMARK    1  A    between atoms: C_2  and  O_3 
REMARK    2  A    between atoms: O_3  and  C_4 
REMARK    3  A    between atoms: C_4  and  C_5 
REMARK    4  A    between atoms: C_6  and  C_8 
REMARK    5  A    between atoms: C_6  and  O_7 
REMARK    6  A    between atoms: C_16  and  C_17 
REMARK    7  A    between atoms: C_18  and  C_19 
REMARK    8  A    between atoms: N_26  and  C_27 
ROOT
HETATM    1  C   UNL     1      25.786  42.670  51.229  1.00  0.00     0.177 C 
HETATM    2  C   UNL     1      26.644  41.386  51.103  1.00  0.00     0.250 C 
HETATM    3  N   UNL     1      26.898  41.126  49.701  1.00  0.00    -0.303 N 
HETATM    4  C   UNL     1      27.258  42.109  48.834  1.00  0.00     0.319 C 
HETATM    5  O   UNL     1      27.762  41.849  47.751  1.00  0.00    -0.247 OA
HETATM    6  N   UNL     1      26.983  43.384  49.212  1.00  0.00    -0.333 N 
HETATM    7  C   UNL     1      26.562  43.794  50.538  1.00  0.00     0.142 C 
HETATM    8  H   UNL     1      27.207  40.198  49.438  1.00  0.00     0.167 HD
HETATM    9  H   UNL     1      27.318  44.079  48.552  1.00  0.00     0.165 HD
ENDROOT
BRANCH   7  10
HETATM   10  C   UNL     1      25.956  45.174  50.517  1.00  0.00     0.015 A 
HETATM   11  C   UNL     1      25.996  46.169  51.549  1.00  0.00     0.097 A 
HETATM   12  N   UNL     1      25.369  47.289  51.173  1.00  0.00    -0.167 NA
HETATM   13  N   UNL     1      24.884  47.048  49.938  1.00  0.00    -0.244 N 
HETATM   14  C   UNL     1      25.176  45.763  49.536  1.00  0.00     0.130 A 
BRANCH  11  15
HETATM   15  C   UNL     1      26.623  46.104  52.869  1.00  0.00    -0.005 A 
HETATM   16  C   UNL     1      26.502  47.187  53.750  1.00  0.00     0.014 A 
HETATM   17  C   UNL     1      27.105  47.149  55.009  1.00  0.00     0.001 A 
HETATM   18  C   UNL     1      27.832  46.026  55.400  1.00  0.00     0.000 A 
HETATM   19  C   UNL     1      27.946  44.937  54.538  1.00  0.00     0.001 A 
HETATM   20  C   UNL     1      27.338  44.971  53.280  1.00  0.00     0.014 A 
ENDBRANCH  11  15
BRANCH  13  21
HETATM   21  C   UNL     1      24.175  48.055  49.224  1.00  0.00     0.058 A 
HETATM   22  C   UNL     1      24.848  49.223  48.833  1.00  0.00     0.031 A 
HETATM   23  C   UNL     1      24.177  50.222  48.125  1.00  0.00     0.002 A 
HETATM   24  C   UNL     1      22.832  50.062  47.801  1.00  0.00     0.000 A 
HETATM   25  C   UNL     1      22.156  48.905  48.183  1.00  0.00     0.002 A 
HETATM   26  C   UNL     1      22.820  47.901  48.894  1.00  0.00     0.031 A 
ENDBRANCH  13  21
ENDBRANCH   7  10
BRANCH   1  27
HETATM   27  C   UNL     1      24.410  42.372  50.664  1.00  0.00     0.270 C 
HETATM   28  O   UNL     1      23.396  42.828  51.187  1.00  0.00    -0.265 OA
BRANCH  27  29
HETATM   29  O   UNL     1      24.397  41.542  49.597  1.00  0.00    -0.321 OA
BRANCH  29  30
HETATM   30  C   UNL     1      23.354  41.747  48.629  1.00  0.00     0.174 C 
HETATM   31  C   UNL     1      23.752  42.829  47.643  1.00  0.00     0.034 C 
ENDBRANCH  29  30
ENDBRANCH  27  29
ENDBRANCH   1  27
BRANCH   2  32
HETATM   32  C   UNL     1      27.985  41.516  51.931  1.00  0.00     0.439 C 
HETATM   33  F   UNL     1      27.722  41.677  53.252  1.00  0.00    -0.166 F 
HETATM   34  F   UNL     1      28.762  40.415  51.798  1.00  0.00    -0.166 F 
HETATM   35  F   UNL     1      28.744  42.568  51.550  1.00  0.00    -0.166 F 
ENDBRANCH   2  32
BRANCH   2  36
HETATM   36  O   UNL     1      25.967  40.214  51.581  1.00  0.00    -0.363 OA
HETATM   37  H   UNL     1      25.798  40.300  52.540  1.00  0.00     0.213 HD
ENDBRANCH   2  36
TORSDOF 8
ENDMDL
MODEL 2
REMARK VINA RESULT:      -8.8      6.221      9.346
REMARK  8 active torsions:
REMARK  status: ('A' for Active; 'I' for Inactive)
REMARK    1  A    between atoms: C_2  and  O_3 
REMARK    2  A    between atoms: O_3  and  C_4 
REMARK    3  A    between atoms: C_4  and  C_5 
REMARK    4  A    between atoms: C_6  and  C_8 
REMARK    5  A    between atoms: C_6  and  O_7 
REMARK    6  A    between atoms: C_16  and  C_17 
REMARK    7  A    between atoms: C_18  and  C_19 
REMARK    8  A    between atoms: N_26  and  C_27 
ROOT
HETATM    1  C   UNL     1      18.699  48.016  47.204  1.00  0.00     0.177 C 
HETATM    2  C   UNL     1      17.486  47.052  47.196  1.00  0.00     0.250 C 
HETATM    3  N   UNL     1      17.960  45.700  46.987  1.00  0.00    -0.303 N 
HETATM    4  C   UNL     1      19.045  45.203  47.637  1.00  0.00     0.319 C 
HETATM    5  O   UNL     1      19.256  44.000  47.696  1.00  0.00    -0.247 OA
HETATM    6  N   UNL     1      19.905  46.111  48.168  1.00  0.00    -0.333 N 
HETATM    7  C   UNL     1      19.645  47.532  48.305  1.00  0.00     0.142 C 
HETATM    8  H   UNL     1      17.289  45.001  46.691  1.00  0.00     0.167 HD
HETATM    9  H   UNL     1      20.668  45.685  48.685  1.00  0.00     0.165 HD
ENDROOT
BRANCH   7  10
HETATM   10  C   UNL     1      20.921  48.299  48.542  1.00  0.00     0.015 A 
HETATM   11  C   UNL     1      21.065  49.694  48.845  1.00  0.00     0.097 A 
HETATM   12  N   UNL     1      22.350  50.027  49.015  1.00  0.00    -0.167 NA
HETATM   13  N   UNL     1      23.059  48.901  48.796  1.00  0.00    -0.244 N 
HETATM   14  C   UNL     1      22.228  47.854  48.456  1.00  0.00     0.130 A 
BRANCH  11  15
HETATM   15  C   UNL     1      20.030  50.717  48.999  1.00  0.00    -0.005 A 
HETATM   16  C   UNL     1      19.064  50.580  50.004  1.00  0.00     0.014 A 
HETATM   17  C   UNL     1      18.060  51.539  50.159  1.00  0.00     0.001 A 
HETATM   18  C   UNL     1      18.016  52.644  49.310  1.00  0.00     0.000 A 
HETATM   19  C   UNL     1      18.981  52.797  48.317  1.00  0.00     0.001 A 
HETATM   20  C   UNL     1      19.990  51.842  48.165  1.00  0.00     0.014 A 
ENDBRANCH  11  15
BRANCH  13  21
HETATM   21  C   UNL     1      24.476  48.895  48.922  1.00  0.00     0.058 A 
HETATM   22  C   UNL     1      25.093  47.900  49.696  1.00  0.00     0.031 A 
HETATM   23  C   UNL     1      26.483  47.868  49.830  1.00  0.00     0.002 A 
HETATM   24  C   UNL     1      27.266  48.826  49.191  1.00  0.00     0.000 A 
HETATM   25  C   UNL     1      26.662  49.817  48.418  1.00  0.00     0.002 A 
HETATM   26  C   UNL     1      25.272  49.857  48.281  1.00  0.00     0.031 A 
ENDBRANCH  13  21
ENDBRANCH   7  10
BRANCH   1  27
HETATM   27  C   UNL     1      19.279  48.051  45.802  1.00  0.00     0.270 C 
HETATM   28  O   UNL     1      20.219  47.325  45.486  1.00  0.00    -0.265 OA
BRANCH  27  29
HETATM   29  O   UNL     1      18.721  48.961  44.974  1.00  0.00    -0.321 OA
BRANCH  29  30
HETATM   30  C   UNL     1      18.719  50.327  45.421  1.00  0.00     0.174 C 
HETATM   31  C   UNL     1      17.815  51.171  44.542  1.00  0.00     0.034 C 
ENDBRANCH  29  30
ENDBRANCH  27  29
ENDBRANCH   1  27
BRANCH   2  32
HETATM   32  C   UNL     1      16.648  47.184  48.531  1.00  0.00     0.439 C 
HETATM   33  F   UNL     1      16.429  45.965  49.085  1.00  0.00    -0.166 F 
HETATM   34  F   UNL     1      17.291  47.944  49.450  1.00  0.00    -0.166 F 
HETATM   35  F   UNL     1      15.437  47.753  48.343  1.00  0.00    -0.166 F 
ENDBRANCH   2  32
BRANCH   2  36
HETATM   36  O   UNL     1      16.583  47.301  46.108  1.00  0.00    -0.363 OA
HETATM   37  H   UNL     1      16.581  48.255  45.894  1.00  0.00     0.213 HD
ENDBRANCH   2  36
TORSDOF 8
ENDMDL
MODEL 3
REMARK VINA RESULT:      -8.5      1.761      2.426
REMARK  8 active torsions:
REMARK  status: ('A' for Active; 'I' for Inactive)
REMARK    1  A    between atoms: C_2  and  O_3 
REMARK    2  A    between atoms: O_3  and  C_4 
REMARK    3  A    between atoms: C_4  and  C_5 
REMARK    4  A    between atoms: C_6  and  C_8 
REMARK    5  A    between atoms: C_6  and  O_7 
REMARK    6  A    between atoms: C_16  and  C_17 
REMARK    7  A    between atoms: C_18  and  C_19 
REMARK    8  A    between atoms: N_26  and  C_27 
ROOT
HETATM    1  C   UNL     1      26.305  41.356  50.273  1.00  0.00     0.177 C 
HETATM    2  C   UNL     1      26.820  39.987  49.761  1.00  0.00     0.250 C 
HETATM    3  N   UNL     1      26.819  39.996  48.313  1.00  0.00    -0.303 N 
HETATM    4  C   UNL     1      27.278  41.054  47.593  1.00  0.00     0.319 C 
HETATM    5  O   UNL     1      27.559  40.944  46.409  1.00  0.00    -0.247 OA
HETATM    6  N   UNL     1      27.355  42.245  48.243  1.00  0.00    -0.333 N 
HETATM    7  C   UNL     1      27.219  42.428  49.676  1.00  0.00     0.142 C 
HETATM    8  H   UNL     1      26.869  39.106  47.832  1.00  0.00     0.167 HD
HETATM    9  H   UNL     1      27.750  42.986  47.674  1.00  0.00     0.165 HD
ENDROOT
BRANCH   7  10
HETATM   10  C   UNL     1      26.949  43.871  50.017  1.00  0.00     0.015 A 
HETATM   11  C   UNL     1      27.327  44.580  51.206  1.00  0.00     0.097 A 
HETATM   12  N   UNL     1      26.939  45.859  51.157  1.00  0.00    -0.167 NA
HETATM   13  N   UNL     1      26.282  46.005  49.988  1.00  0.00    -0.244 N 
HETATM   14  C   UNL     1      26.225  44.810  49.303  1.00  0.00     0.130 A 
BRANCH  11  15
HETATM   15  C   UNL     1      28.061  44.095  52.375  1.00  0.00    -0.005 A 
HETATM   16  C   UNL     1      29.221  43.329  52.198  1.00  0.00     0.014 A 
HETATM   17  C   UNL     1      29.927  42.845  53.302  1.00  0.00     0.001 A 
HETATM   18  C   UNL     1      29.481  43.126  54.592  1.00  0.00     0.000 A 
HETATM   19  C   UNL     1      28.338  43.900  54.779  1.00  0.00     0.001 A 
HETATM   20  C   UNL     1      27.633  44.390  53.677  1.00  0.00     0.014 A 
ENDBRANCH  11  15
BRANCH  13  21
HETATM   21  C   UNL     1      25.752  47.268  49.602  1.00  0.00     0.058 A 
HETATM   22  C   UNL     1      26.630  48.290  49.209  1.00  0.00     0.031 A 
HETATM   23  C   UNL     1      26.135  49.536  48.819  1.00  0.00     0.002 A 
HETATM   24  C   UNL     1      24.762  49.770  48.816  1.00  0.00     0.000 A 
HETATM   25  C   UNL     1      23.882  48.760  49.203  1.00  0.00     0.002 A 
HETATM   26  C   UNL     1      24.370  47.511  49.597  1.00  0.00     0.031 A 
ENDBRANCH  13  21
ENDBRANCH   7  10
BRANCH   1  27
HETATM   27  C   UNL     1      24.834  41.467  49.914  1.00  0.00     0.270 C 
HETATM   28  O   UNL     1      24.375  40.889  48.932  1.00  0.00    -0.265 OA
BRANCH  27  29
HETATM   29  O   UNL     1      24.108  42.276  50.718  1.00  0.00    -0.321 OA
BRANCH  29  30
HETATM   30  C   UNL     1      22.822  42.691  50.227  1.00  0.00     0.174 C 
HETATM   31  C   UNL     1      22.867  44.143  49.787  1.00  0.00     0.034 C 
ENDBRANCH  29  30
ENDBRANCH  27  29
ENDBRANCH   1  27
BRANCH   2  32
HETATM   32  C   UNL     1      28.252  39.665  50.348  1.00  0.00     0.439 C 
HETATM   33  F   UNL     1      28.425  38.328  50.494  1.00  0.00    -0.166 F 
HETATM   34  F   UNL     1      29.238  40.121  49.537  1.00  0.00    -0.166 F 
HETATM   35  F   UNL     1      28.466  40.224  51.560  1.00  0.00    -0.166 F 
ENDBRANCH   2  32
BRANCH   2  36
HETATM   36  O   UNL     1      25.962  38.896  50.126  1.00  0.00    -0.363 OA
HETATM   37  H   UNL     1      25.407  38.643  49.362  1.00  0.00     0.213 HD
ENDBRANCH   2  36
TORSDOF 8
ENDMDL
MODEL 4
REMARK VINA RESULT:      -8.4      2.764      5.813
REMARK  8 active torsions:
REMARK  status: ('A' for Active; 'I' for Inactive)
REMARK    1  A    between atoms: C_2  and  O_3 
REMARK    2  A    between atoms: O_3  and  C_4 
REMARK    3  A    between atoms: C_4  and  C_5 
REMARK    4  A    between atoms: C_6  and  C_8 
REMARK    5  A    between atoms: C_6  and  O_7 
REMARK    6  A    between atoms: C_16  and  C_17 
REMARK    7  A    between atoms: C_18  and  C_19 
REMARK    8  A    between atoms: N_26  and  C_27 
ROOT
HETATM    1  C   UNL     1      25.867  45.405  49.508  1.00  0.00     0.177 C 
HETATM    2  C   UNL     1      26.610  44.338  50.352  1.00  0.00     0.250 C 
HETATM    3  N   UNL     1      26.222  44.482  51.740  1.00  0.00    -0.303 N 
HETATM    4  C   UNL     1      24.930  44.672  52.116  1.00  0.00     0.319 C 
HETATM    5  O   UNL     1      24.569  44.487  53.270  1.00  0.00    -0.247 OA
HETATM    6  N   UNL     1      24.077  45.124  51.160  1.00  0.00    -0.333 N 
HETATM    7  C   UNL     1      24.370  45.194  49.741  1.00  0.00     0.142 C 
HETATM    8  H   UNL     1      26.807  44.051  52.445  1.00  0.00     0.167 HD
HETATM    9  H   UNL     1      23.118  45.198  51.482  1.00  0.00     0.165 HD
ENDROOT
BRANCH   7  10
HETATM   10  C   UNL     1      23.400  46.100  49.028  1.00  0.00     0.015 A 
HETATM   11  C   UNL     1      22.628  45.813  47.853  1.00  0.00     0.097 A 
HETATM   12  N   UNL     1      21.852  46.849  47.512  1.00  0.00    -0.167 NA
HETATM   13  N   UNL     1      22.119  47.824  48.405  1.00  0.00    -0.244 N 
HETATM   14  C   UNL     1      23.087  47.421  49.299  1.00  0.00     0.130 A 
BRANCH  11  15
HETATM   15  C   UNL     1      22.583  44.588  47.055  1.00  0.00    -0.005 A 
HETATM   16  C   UNL     1      22.838  44.645  45.678  1.00  0.00     0.014 A 
HETATM   17  C   UNL     1      22.786  43.488  44.898  1.00  0.00     0.001 A 
HETATM   18  C   UNL     1      22.482  42.263  45.488  1.00  0.00     0.000 A 
HETATM   19  C   UNL     1      22.242  42.192  46.859  1.00  0.00     0.001 A 
HETATM   20  C   UNL     1      22.300  43.347  47.642  1.00  0.00     0.014 A 
ENDBRANCH  11  15
BRANCH  13  21
HETATM   21  C   UNL     1      21.438  49.072  48.347  1.00  0.00     0.058 A 
HETATM   22  C   UNL     1      20.329  49.210  47.498  1.00  0.00     0.031 A 
HETATM   23  C   UNL     1      19.638  50.422  47.428  1.00  0.00     0.002 A 
HETATM   24  C   UNL     1      20.049  51.503  48.205  1.00  0.00     0.000 A 
HETATM   25  C   UNL     1      21.149  51.374  49.052  1.00  0.00     0.002 A 
HETATM   26  C   UNL     1      21.846  50.165  49.126  1.00  0.00     0.031 A 
ENDBRANCH  13  21
ENDBRANCH   7  10
BRANCH   1  27
HETATM   27  C   UNL     1      26.411  46.769  49.894  1.00  0.00     0.270 C 
HETATM   28  O   UNL     1      26.062  47.319  50.935  1.00  0.00    -0.265 OA
BRANCH  27  29
HETATM   29  O   UNL     1      27.246  47.328  48.990  1.00  0.00    -0.321 OA
BRANCH  29  30
HETATM   30  C   UNL     1      27.552  48.721  49.168  1.00  0.00     0.174 C 
HETATM   31  C   UNL     1      26.559  49.582  48.411  1.00  0.00     0.034 C 
ENDBRANCH  29  30
ENDBRANCH  27  29
ENDBRANCH   1  27
BRANCH   2  32
HETATM   32  C   UNL     1      26.321  42.882  49.807  1.00  0.00     0.439 C 
HETATM   33  F   UNL     1      27.478  42.210  49.589  1.00  0.00    -0.166 F 
HETATM   34  F   UNL     1      25.584  42.159  50.684  1.00  0.00    -0.166 F 
HETATM   35  F   UNL     1      25.639  42.878  48.640  1.00  0.00    -0.166 F 
ENDBRANCH   2  32
BRANCH   2  36
HETATM   36  O   UNL     1      28.035  44.514  50.345  1.00  0.00    -0.363 OA
HETATM   37  H   UNL     1      28.474  43.651  50.481  1.00  0.00     0.213 HD
ENDBRANCH   2  36
TORSDOF 8
ENDMDL
MODEL 5
REMARK VINA RESULT:      -8.3      3.736      6.629
REMARK  8 active torsions:
REMARK  status: ('A' for Active; 'I' for Inactive)
REMARK    1  A    between atoms: C_2  and  O_3 
REMARK    2  A    between atoms: O_3  and  C_4 
REMARK    3  A    between atoms: C_4  and  C_5 
REMARK    4  A    between atoms: C_6  and  C_8 
REMARK    5  A    between atoms: C_6  and  O_7 
REMARK    6  A    between atoms: C_16  and  C_17 
REMARK    7  A    between atoms: C_18  and  C_19 
REMARK    8  A    between atoms: N_26  and  C_27 
ROOT
HETATM    1  C   UNL     1      27.734  39.588  49.317  1.00  0.00     0.177 C 
HETATM    2  C   UNL     1      27.819  38.102  48.887  1.00  0.00     0.250 C 
HETATM    3  N   UNL     1      29.125  37.584  49.238  1.00  0.00    -0.303 N 
HETATM    4  C   UNL     1      29.707  37.837  50.440  1.00  0.00     0.319 C 
HETATM    5  O   UNL     1      30.643  37.166  50.848  1.00  0.00    -0.247 OA
HETATM    6  N   UNL     1      29.229  38.903  51.135  1.00  0.00    -0.333 N 
HETATM    7  C   UNL     1      28.017  39.634  50.819  1.00  0.00     0.142 C 
HETATM    8  H   UNL     1      29.433  36.728  48.793  1.00  0.00     0.167 HD
HETATM    9  H   UNL     1      29.664  39.014  52.045  1.00  0.00     0.165 HD
ENDROOT
BRANCH   7  10
HETATM   10  C   UNL     1      27.991  40.973  51.512  1.00  0.00     0.015 A 
HETATM   11  C   UNL     1      27.134  42.090  51.238  1.00  0.00     0.097 A 
HETATM   12  N   UNL     1      27.378  43.109  52.069  1.00  0.00    -0.167 NA
HETATM   13  N   UNL     1      28.396  42.711  52.859  1.00  0.00    -0.244 N 
HETATM   14  C   UNL     1      28.823  41.447  52.512  1.00  0.00     0.130 A 
BRANCH  11  15
HETATM   15  C   UNL     1      26.080  42.218  50.232  1.00  0.00    -0.005 A 
HETATM   16  C   UNL     1      25.893  43.442  49.574  1.00  0.00     0.014 A 
HETATM   17  C   UNL     1      24.883  43.588  48.620  1.00  0.00     0.001 A 
HETATM   18  C   UNL     1      24.054  42.511  48.313  1.00  0.00     0.000 A 
HETATM   19  C   UNL     1      24.242  41.285  48.949  1.00  0.00     0.001 A 
HETATM   20  C   UNL     1      25.255  41.136  49.899  1.00  0.00     0.014 A 
ENDBRANCH  11  15
BRANCH  13  21
HETATM   21  C   UNL     1      28.896  43.558  53.887  1.00  0.00     0.058 A 
HETATM   22  C   UNL     1      30.070  43.195  54.566  1.00  0.00     0.031 A 
HETATM   23  C   UNL     1      30.586  44.012  55.574  1.00  0.00     0.002 A 
HETATM   24  C   UNL     1      29.935  45.197  55.911  1.00  0.00     0.000 A 
HETATM   25  C   UNL     1      28.769  45.566  55.241  1.00  0.00     0.002 A 
HETATM   26  C   UNL     1      28.246  44.752  54.232  1.00  0.00     0.031 A 
ENDBRANCH  13  21
ENDBRANCH   7  10
BRANCH   1  27
HETATM   27  C   UNL     1      28.684  40.384  48.440  1.00  0.00     0.270 C 
HETATM   28  O   UNL     1      29.892  40.162  48.449  1.00  0.00    -0.265 OA
BRANCH  27  29
HETATM   29  O   UNL     1      28.105  41.365  47.712  1.00  0.00    -0.321 OA
BRANCH  29  30
HETATM   30  C   UNL     1      27.965  41.127  46.302  1.00  0.00     0.174 C 
HETATM   31  C   UNL     1      26.531  40.761  45.966  1.00  0.00     0.034 C 
ENDBRANCH  29  30
ENDBRANCH  27  29
ENDBRANCH   1  27
BRANCH   2  32
HETATM   32  C   UNL     1      26.654  37.256  49.540  1.00  0.00     0.439 C 
HETATM   33  F   UNL     1      25.876  36.688  48.585  1.00  0.00    -0.166 F 
HETATM   34  F   UNL     1      27.138  36.260  50.321  1.00  0.00    -0.166 F 
HETATM   35  F   UNL     1      25.837  37.994  50.324  1.00  0.00    -0.166 F 
ENDBRANCH   2  32
BRANCH   2  36
HETATM   36  O   UNL     1      27.720  37.926  47.465  1.00  0.00    -0.363 OA
HETATM   37  H   UNL     1      27.045  37.247  47.264  1.00  0.00     0.213 HD
ENDBRANCH   2  36
TORSDOF 8
ENDMDL
MODEL 6
REMARK VINA RESULT:      -8.3      5.807      8.856
REMARK  8 active torsions:
REMARK  status: ('A' for Active; 'I' for Inactive)
REMARK    1  A    between atoms: C_2  and  O_3 
REMARK    2  A    between atoms: O_3  and  C_4 
REMARK    3  A    between atoms: C_4  and  C_5 
REMARK    4  A    between atoms: C_6  and  C_8 
REMARK    5  A    between atoms: C_6  and  O_7 
REMARK    6  A    between atoms: C_16  and  C_17 
REMARK    7  A    between atoms: C_18  and  C_19 
REMARK    8  A    between atoms: N_26  and  C_27 
ROOT
HETATM    1  C   UNL     1      19.813  46.051  47.020  1.00  0.00     0.177 C 
HETATM    2  C   UNL     1      18.408  45.538  46.614  1.00  0.00     0.250 C 
HETATM    3  N   UNL     1      17.507  45.696  47.736  1.00  0.00    -0.303 N 
HETATM    4  C   UNL     1      17.477  46.827  48.490  1.00  0.00     0.319 C 
HETATM    5  O   UNL     1      16.531  47.079  49.221  1.00  0.00    -0.247 OA
HETATM    6  N   UNL     1      18.571  47.630  48.425  1.00  0.00    -0.333 N 
HETATM    7  C   UNL     1      19.646  47.507  47.459  1.00  0.00     0.142 C 
HETATM    8  H   UNL     1      16.640  45.172  47.728  1.00  0.00     0.167 HD
HETATM    9  H   UNL     1      18.473  48.484  48.966  1.00  0.00     0.165 HD
ENDROOT
BRANCH   7  10
HETATM   10  C   UNL     1      20.870  48.266  47.905  1.00  0.00     0.015 A 
HETATM   11  C   UNL     1      20.946  49.627  48.354  1.00  0.00     0.097 A 
HETATM   12  N   UNL     1      22.197  49.960  48.693  1.00  0.00    -0.167 NA
HETATM   13  N   UNL     1      22.953  48.871  48.446  1.00  0.00    -0.244 N 
HETATM   14  C   UNL     1      22.190  47.850  47.920  1.00  0.00     0.130 A 
BRANCH  11  15
HETATM   15  C   UNL     1      19.876  50.615  48.491  1.00  0.00    -0.005 A 
HETATM   16  C   UNL     1      19.534  51.096  49.763  1.00  0.00     0.014 A 
HETATM   17  C   UNL     1      18.506  52.029  49.915  1.00  0.00     0.001 A 
HETATM   18  C   UNL     1      17.813  52.491  48.798  1.00  0.00     0.000 A 
HETATM   19  C   UNL     1      18.155  52.031  47.528  1.00  0.00     0.001 A 
HETATM   20  C   UNL     1      19.188  51.103  47.373  1.00  0.00     0.014 A 
ENDBRANCH  11  15
BRANCH  13  21
HETATM   21  C   UNL     1      24.349  48.873  48.724  1.00  0.00     0.058 A 
HETATM   22  C   UNL     1      24.878  47.906  49.592  1.00  0.00     0.031 A 
HETATM   23  C   UNL     1      26.245  47.882  49.876  1.00  0.00     0.002 A 
HETATM   24  C   UNL     1      27.093  48.821  49.294  1.00  0.00     0.000 A 
HETATM   25  C   UNL     1      26.577  49.785  48.429  1.00  0.00     0.002 A 
HETATM   26  C   UNL     1      25.209  49.816  48.142  1.00  0.00     0.031 A 
ENDBRANCH  13  21
ENDBRANCH   7  10
BRANCH   1  27
HETATM   27  C   UNL     1      20.373  45.105  48.067  1.00  0.00     0.270 C 
HETATM   28  O   UNL     1      20.172  45.293  49.265  1.00  0.00    -0.265 OA
BRANCH  27  29
HETATM   29  O   UNL     1      21.134  44.099  47.581  1.00  0.00    -0.321 OA
BRANCH  29  30
HETATM   30  C   UNL     1      22.252  43.687  48.385  1.00  0.00     0.174 C 
HETATM   31  C   UNL     1      23.490  44.483  48.018  1.00  0.00     0.034 C 
ENDBRANCH  29  30
ENDBRANCH  27  29
ENDBRANCH   1  27
BRANCH   2  32
HETATM   32  C   UNL     1      17.882  46.287  45.325  1.00  0.00     0.439 C 
HETATM   33  F   UNL     1      18.915  46.795  44.607  1.00  0.00    -0.166 F 
HETATM   34  F   UNL     1      17.187  45.455  44.513  1.00  0.00    -0.166 F 
HETATM   35  F   UNL     1      17.058  47.320  45.611  1.00  0.00    -0.166 F 
ENDBRANCH   2  32
BRANCH   2  36
HETATM   36  O   UNL     1      18.392  44.133  46.319  1.00  0.00    -0.363 OA
HETATM   37  H   UNL     1      19.183  43.707  46.702  1.00  0.00     0.213 HD
ENDBRANCH   2  36
TORSDOF 8
ENDMDL
MODEL 7
REMARK VINA RESULT:      -8.3      6.745      9.441
REMARK  8 active torsions:
REMARK  status: ('A' for Active; 'I' for Inactive)
REMARK    1  A    between atoms: C_2  and  O_3 
REMARK    2  A    between atoms: O_3  and  C_4 
REMARK    3  A    between atoms: C_4  and  C_5 
REMARK    4  A    between atoms: C_6  and  C_8 
REMARK    5  A    between atoms: C_6  and  O_7 
REMARK    6  A    between atoms: C_16  and  C_17 
REMARK    7  A    between atoms: C_18  and  C_19 
REMARK    8  A    between atoms: N_26  and  C_27 
ROOT
HETATM    1  C   UNL     1      18.836  49.309  48.136  1.00  0.00     0.177 C 
HETATM    2  C   UNL     1      18.346  50.497  49.004  1.00  0.00     0.250 C 
HETATM    3  N   UNL     1      17.948  49.997  50.303  1.00  0.00    -0.303 N 
HETATM    4  C   UNL     1      18.692  49.090  50.991  1.00  0.00     0.319 C 
HETATM    5  O   UNL     1      18.524  48.907  52.188  1.00  0.00    -0.247 OA
HETATM    6  N   UNL     1      19.588  48.367  50.271  1.00  0.00    -0.333 N 
HETATM    7  C   UNL     1      19.980  48.641  48.901  1.00  0.00     0.142 C 
HETATM    8  H   UNL     1      17.364  50.589  50.881  1.00  0.00     0.167 HD
HETATM    9  H   UNL     1      20.150  47.743  50.841  1.00  0.00     0.165 HD
ENDROOT
BRANCH   7  10
HETATM   10  C   UNL     1      20.656  47.446  48.278  1.00  0.00     0.015 A 
HETATM   11  C   UNL     1      22.054  47.268  48.007  1.00  0.00     0.097 A 
HETATM   12  N   UNL     1      22.298  46.069  47.468  1.00  0.00    -0.167 NA
HETATM   13  N   UNL     1      21.098  45.466  47.339  1.00  0.00    -0.244 N 
HETATM   14  C   UNL     1      20.083  46.293  47.770  1.00  0.00     0.130 A 
BRANCH  11  15
HETATM   15  C   UNL     1      23.166  48.184  48.260  1.00  0.00    -0.005 A 
HETATM   16  C   UNL     1      24.254  47.758  49.034  1.00  0.00     0.014 A 
HETATM   17  C   UNL     1      25.319  48.622  49.297  1.00  0.00     0.001 A 
HETATM   18  C   UNL     1      25.307  49.918  48.787  1.00  0.00     0.000 A 
HETATM   19  C   UNL     1      24.238  50.347  48.003  1.00  0.00     0.001 A 
HETATM   20  C   UNL     1      23.174  49.482  47.733  1.00  0.00     0.014 A 
ENDBRANCH  11  15
BRANCH  13  21
HETATM   21  C   UNL     1      20.997  44.147  46.815  1.00  0.00     0.058 A 
HETATM   22  C   UNL     1      22.010  43.217  47.095  1.00  0.00     0.031 A 
HETATM   23  C   UNL     1      21.932  41.914  46.599  1.00  0.00     0.002 A 
HETATM   24  C   UNL     1      20.842  41.530  45.821  1.00  0.00     0.000 A 
HETATM   25  C   UNL     1      19.829  42.447  45.539  1.00  0.00     0.002 A 
HETATM   26  C   UNL     1      19.903  43.753  46.031  1.00  0.00     0.031 A 
ENDBRANCH  13  21
ENDBRANCH   7  10
BRANCH   1  27
HETATM   27  C   UNL     1      17.639  48.427  47.832  1.00  0.00     0.270 C 
HETATM   28  O   UNL     1      17.054  47.819  48.726  1.00  0.00    -0.265 OA
BRANCH  27  29
HETATM   29  O   UNL     1      17.317  48.330  46.522  1.00  0.00    -0.321 OA
BRANCH  29  30
HETATM   30  C   UNL     1      18.303  48.779  45.578  1.00  0.00     0.174 C 
HETATM   31  C   UNL     1      18.708  47.645  44.655  1.00  0.00     0.034 C 
ENDBRANCH  29  30
ENDBRANCH  27  29
ENDBRANCH   1  27
BRANCH   2  32
HETATM   32  C   UNL     1      19.460  51.613  49.116  1.00  0.00     0.439 C 
HETATM   33  F   UNL     1      20.394  51.463  48.144  1.00  0.00    -0.166 F 
HETATM   34  F   UNL     1      18.935  52.856  48.992  1.00  0.00    -0.166 F 
HETATM   35  F   UNL     1      20.116  51.591  50.298  1.00  0.00    -0.166 F 
ENDBRANCH   2  32
BRANCH   2  36
HETATM   36  O   UNL     1      17.171  51.128  48.473  1.00  0.00    -0.363 OA
HETATM   37  H   UNL     1      16.780  50.564  47.777  1.00  0.00     0.213 HD
ENDBRANCH   2  36
TORSDOF 8
ENDMDL
MODEL 8
REMARK VINA RESULT:      -8.2      3.437      6.593
REMARK  8 active torsions:
REMARK  status: ('A' for Active; 'I' for Inactive)
REMARK    1  A    between atoms: C_2  and  O_3 
REMARK    2  A    between atoms: O_3  and  C_4 
REMARK    3  A    between atoms: C_4  and  C_5 
REMARK    4  A    between atoms: C_6  and  C_8 
REMARK    5  A    between atoms: C_6  and  O_7 
REMARK    6  A    between atoms: C_16  and  C_17 
REMARK    7  A    between atoms: C_18  and  C_19 
REMARK    8  A    between atoms: N_26  and  C_27 
ROOT
HETATM    1  C   UNL     1      22.968  44.195  48.394  1.00  0.00     0.177 C 
HETATM    2  C   UNL     1      21.892  43.946  47.306  1.00  0.00     0.250 C 
HETATM    3  N   UNL     1      20.608  44.392  47.805  1.00  0.00    -0.303 N 
HETATM    4  C   UNL     1      20.454  45.571  48.463  1.00  0.00     0.319 C 
HETATM    5  O   UNL     1      19.353  46.081  48.606  1.00  0.00    -0.247 OA
HETATM    6  N   UNL     1      21.576  46.122  48.995  1.00  0.00    -0.333 N 
HETATM    7  C   UNL     1      22.934  45.689  48.721  1.00  0.00     0.142 C 
HETATM    8  H   UNL     1      19.774  44.059  47.335  1.00  0.00     0.167 HD
HETATM    9  H   UNL     1      21.412  47.024  49.430  1.00  0.00     0.165 HD
ENDROOT
BRANCH   7  10
HETATM   10  C   UNL     1      23.894  46.218  49.756  1.00  0.00     0.015 A 
HETATM   11  C   UNL     1      24.270  47.582  49.992  1.00  0.00     0.097 A 
HETATM   12  N   UNL     1      25.131  47.683  51.010  1.00  0.00    -0.167 NA
HETATM   13  N   UNL     1      25.364  46.422  51.428  1.00  0.00    -0.244 N 
HETATM   14  C   UNL     1      24.673  45.512  50.656  1.00  0.00     0.130 A 
BRANCH  11  15
HETATM   15  C   UNL     1      23.827  48.794  49.301  1.00  0.00    -0.005 A 
HETATM   16  C   UNL     1      22.548  49.310  49.555  1.00  0.00     0.014 A 
HETATM   17  C   UNL     1      22.103  50.457  48.896  1.00  0.00     0.001 A 
HETATM   18  C   UNL     1      22.932  51.101  47.980  1.00  0.00     0.000 A 
HETATM   19  C   UNL     1      24.211  50.606  47.731  1.00  0.00     0.001 A 
HETATM   20  C   UNL     1      24.661  49.461  48.394  1.00  0.00     0.014 A 
ENDBRANCH  11  15
BRANCH  13  21
HETATM   21  C   UNL     1      26.227  46.166  52.530  1.00  0.00     0.058 A 
HETATM   22  C   UNL     1      26.863  44.919  52.629  1.00  0.00     0.031 A 
HETATM   23  C   UNL     1      27.720  44.645  53.696  1.00  0.00     0.002 A 
HETATM   24  C   UNL     1      27.951  45.614  54.670  1.00  0.00     0.000 A 
HETATM   25  C   UNL     1      27.325  46.856  54.579  1.00  0.00     0.002 A 
HETATM   26  C   UNL     1      26.464  47.137  53.515  1.00  0.00     0.031 A 
ENDBRANCH  13  21
ENDBRANCH   7  10
BRANCH   1  27
HETATM   27  C   UNL     1      22.687  43.257  49.553  1.00  0.00     0.270 C 
HETATM   28  O   UNL     1      21.945  43.591  50.474  1.00  0.00    -0.265 OA
BRANCH  27  29
HETATM   29  O   UNL     1      23.349  42.079  49.511  1.00  0.00    -0.321 OA
BRANCH  29  30
HETATM   30  C   UNL     1      24.689  42.108  48.990  1.00  0.00     0.174 C 
HETATM   31  C   UNL     1      24.888  40.994  47.980  1.00  0.00     0.034 C 
ENDBRANCH  29  30
ENDBRANCH  27  29
ENDBRANCH   1  27
BRANCH   2  32
HETATM   32  C   UNL     1      22.280  44.663  45.951  1.00  0.00     0.439 C 
HETATM   33  F   UNL     1      22.040  45.996  46.024  1.00  0.00    -0.166 F 
HETATM   34  F   UNL     1      23.592  44.497  45.657  1.00  0.00    -0.166 F 
HETATM   35  F   UNL     1      21.588  44.197  44.888  1.00  0.00    -0.166 F 
ENDBRANCH   2  32
BRANCH   2  36
HETATM   36  O   UNL     1      21.712  42.554  47.008  1.00  0.00    -0.363 OA
HETATM   37  H   UNL     1      22.402  42.028  47.459  1.00  0.00     0.213 HD
ENDBRANCH   2  36
TORSDOF 8
ENDMDL
MODEL 9
REMARK VINA RESULT:      -8.1      3.001      6.508
REMARK  8 active torsions:
REMARK  status: ('A' for Active; 'I' for Inactive)
REMARK    1  A    between atoms: C_2  and  O_3 
REMARK    2  A    between atoms: O_3  and  C_4 
REMARK    3  A    between atoms: C_4  and  C_5 
REMARK    4  A    between atoms: C_6  and  C_8 
REMARK    5  A    between atoms: C_6  and  O_7 
REMARK    6  A    between atoms: C_16  and  C_17 
REMARK    7  A    between atoms: C_18  and  C_19 
REMARK    8  A    between atoms: N_26  and  C_27 
ROOT
HETATM    1  C   UNL     1      25.610  45.238  50.209  1.00  0.00     0.177 C 
HETATM    2  C   UNL     1      25.315  46.749  50.392  1.00  0.00     0.250 C 
HETATM    3  N   UNL     1      25.014  47.004  51.784  1.00  0.00    -0.303 N 
HETATM    4  C   UNL     1      25.744  46.466  52.797  1.00  0.00     0.319 C 
HETATM    5  O   UNL     1      25.687  46.915  53.932  1.00  0.00    -0.247 OA
HETATM    6  N   UNL     1      26.496  45.376  52.491  1.00  0.00    -0.333 N 
HETATM    7  C   UNL     1      26.766  44.892  51.150  1.00  0.00     0.142 C 
HETATM    8  H   UNL     1      24.545  47.871  52.018  1.00  0.00     0.167 HD
HETATM    9  H   UNL     1      27.059  45.047  53.269  1.00  0.00     0.165 HD
ENDROOT
BRANCH   7  10
HETATM   10  C   UNL     1      27.269  43.472  51.174  1.00  0.00     0.015 A 
HETATM   11  C   UNL     1      28.134  42.861  52.142  1.00  0.00     0.097 A 
HETATM   12  N   UNL     1      28.354  41.572  51.857  1.00  0.00    -0.167 NA
HETATM   13  N   UNL     1      27.691  41.326  50.708  1.00  0.00    -0.244 N 
HETATM   14  C   UNL     1      27.071  42.466  50.244  1.00  0.00     0.130 A 
BRANCH  11  15
HETATM   15  C   UNL     1      28.742  43.448  53.337  1.00  0.00    -0.005 A 
HETATM   16  C   UNL     1      27.978  44.282  54.165  1.00  0.00     0.014 A 
HETATM   17  C   UNL     1      28.544  44.861  55.303  1.00  0.00     0.001 A 
HETATM   18  C   UNL     1      29.877  44.610  55.623  1.00  0.00     0.000 A 
HETATM   19  C   UNL     1      30.640  43.770  54.815  1.00  0.00     0.001 A 
HETATM   20  C   UNL     1      30.074  43.184  53.680  1.00  0.00     0.014 A 
ENDBRANCH  11  15
BRANCH  13  21
HETATM   21  C   UNL     1      27.693  40.026  50.130  1.00  0.00     0.058 A 
HETATM   22  C   UNL     1      26.568  39.593  49.409  1.00  0.00     0.031 A 
HETATM   23  C   UNL     1      26.547  38.325  48.826  1.00  0.00     0.002 A 
HETATM   24  C   UNL     1      27.648  37.482  48.954  1.00  0.00     0.000 A 
HETATM   25  C   UNL     1      28.770  37.903  49.666  1.00  0.00     0.002 A 
HETATM   26  C   UNL     1      28.798  39.171  50.255  1.00  0.00     0.031 A 
ENDBRANCH  13  21
ENDBRANCH   7  10
BRANCH   1  27
HETATM   27  C   UNL     1      24.317  44.478  50.442  1.00  0.00     0.270 C 
HETATM   28  O   UNL     1      24.006  44.084  51.564  1.00  0.00    -0.265 OA
BRANCH  27  29
HETATM   29  O   UNL     1      23.587  44.234  49.331  1.00  0.00    -0.321 OA
BRANCH  29  30
HETATM   30  C   UNL     1      22.795  43.035  49.327  1.00  0.00     0.174 C 
HETATM   31  C   UNL     1      23.609  41.865  48.807  1.00  0.00     0.034 C 
ENDBRANCH  29  30
ENDBRANCH  27  29
ENDBRANCH   1  27
BRANCH   2  32
HETATM   32  C   UNL     1      26.526  47.628  49.880  1.00  0.00     0.439 C 
HETATM   33  F   UNL     1      26.094  48.601  49.040  1.00  0.00    -0.166 F 
HETATM   34  F   UNL     1      27.175  48.228  50.906  1.00  0.00    -0.166 F 
HETATM   35  F   UNL     1      27.454  46.911  49.207  1.00  0.00    -0.166 F 
ENDBRANCH   2  32
BRANCH   2  36
HETATM   36  O   UNL     1      24.150  47.181  49.674  1.00  0.00    -0.363 OA
HETATM   37  H   UNL     1      24.186  48.148  49.539  1.00  0.00     0.213 HD
ENDBRANCH   2  36
TORSDOF 8
ENDMDL
MODEL 10
REMARK VINA RESULT:      -8.0      3.385      6.641
REMARK  8 active torsions:
REMARK  status: ('A' for Active; 'I' for Inactive)
REMARK    1  A    between atoms: C_2  and  O_3 
REMARK    2  A    between atoms: O_3  and  C_4 
REMARK    3  A    between atoms: C_4  and  C_5 
REMARK    4  A    between atoms: C_6  and  C_8 
REMARK    5  A    between atoms: C_6  and  O_7 
REMARK    6  A    between atoms: C_16  and  C_17 
REMARK    7  A    between atoms: C_18  and  C_19 
REMARK    8  A    between atoms: N_26  and  C_27 
ROOT
HETATM    1  C   UNL     1      26.842  40.736  48.245  1.00  0.00     0.177 C 
HETATM    2  C   UNL     1      26.243  39.554  47.442  1.00  0.00     0.250 C 
HETATM    3  N   UNL     1      26.518  38.319  48.146  1.00  0.00    -0.303 N 
HETATM    4  C   UNL     1      26.359  38.199  49.491  1.00  0.00     0.319 C 
HETATM    5  O   UNL     1      26.293  37.104  50.028  1.00  0.00    -0.247 OA
HETATM    6  N   UNL     1      26.331  39.354  50.205  1.00  0.00    -0.333 N 
HETATM    7  C   UNL     1      26.219  40.687  49.642  1.00  0.00     0.142 C 
HETATM    8  H   UNL     1      26.433  37.450  47.632  1.00  0.00     0.167 HD
HETATM    9  H   UNL     1      26.159  39.209  51.195  1.00  0.00     0.165 HD
ENDROOT
BRANCH   7  10
HETATM   10  C   UNL     1      26.622  41.738  50.644  1.00  0.00     0.015 A 
HETATM   11  C   UNL     1      25.995  43.004  50.891  1.00  0.00     0.097 A 
HETATM   12  N   UNL     1      26.612  43.672  51.873  1.00  0.00    -0.167 NA
HETATM   13  N   UNL     1      27.651  42.900  52.253  1.00  0.00    -0.244 N 
HETATM   14  C   UNL     1      27.715  41.751  51.494  1.00  0.00     0.130 A 
BRANCH  11  15
HETATM   15  C   UNL     1      24.822  43.594  50.247  1.00  0.00    -0.005 A 
HETATM   16  C   UNL     1      24.953  44.788  49.525  1.00  0.00     0.014 A 
HETATM   17  C   UNL     1      23.841  45.374  48.914  1.00  0.00     0.001 A 
HETATM   18  C   UNL     1      22.590  44.769  49.018  1.00  0.00     0.000 A 
HETATM   19  C   UNL     1      22.452  43.573  49.720  1.00  0.00     0.001 A 
HETATM   20  C   UNL     1      23.563  42.983  50.326  1.00  0.00     0.014 A 
ENDBRANCH  11  15
BRANCH  13  21
HETATM   21  C   UNL     1      28.513  43.306  53.310  1.00  0.00     0.058 A 
HETATM   22  C   UNL     1      28.156  44.409  54.102  1.00  0.00     0.031 A 
HETATM   23  C   UNL     1      28.980  44.823  55.150  1.00  0.00     0.002 A 
HETATM   24  C   UNL     1      30.165  44.140  55.416  1.00  0.00     0.000 A 
HETATM   25  C   UNL     1      30.527  43.043  54.635  1.00  0.00     0.002 A 
HETATM   26  C   UNL     1      29.707  42.623  53.584  1.00  0.00     0.031 A 
ENDBRANCH  13  21
ENDBRANCH   7  10
BRANCH   1  27
HETATM   27  C   UNL     1      28.354  40.620  48.191  1.00  0.00     0.270 C 
HETATM   28  O   UNL     1      28.995  41.105  47.261  1.00  0.00    -0.265 OA
BRANCH  27  29
HETATM   29  O   UNL     1      28.911  39.912  49.199  1.00  0.00    -0.321 OA
BRANCH  29  30
HETATM   30  C   UNL     1      29.753  38.809  48.827  1.00  0.00     0.174 C 
HETATM   31  C   UNL     1      29.978  37.890  50.013  1.00  0.00     0.034 C 
ENDBRANCH  29  30
ENDBRANCH  27  29
ENDBRANCH   1  27
BRANCH   2  32
HETATM   32  C   UNL     1      24.694  39.762  47.198  1.00  0.00     0.439 C 
HETATM   33  F   UNL     1      24.475  40.472  46.064  1.00  0.00    -0.166 F 
HETATM   34  F   UNL     1      24.046  38.579  47.073  1.00  0.00    -0.166 F 
HETATM   35  F   UNL     1      24.084  40.429  48.203  1.00  0.00    -0.166 F 
ENDBRANCH   2  32
BRANCH   2  36
HETATM   36  O   UNL     1      26.852  39.390  46.152  1.00  0.00    -0.363 OA
HETATM   37  H   UNL     1      27.628  39.980  46.077  1.00  0.00     0.213 HD
ENDBRANCH   2  36
TORSDOF 8
ENDMDL
