MODEL 1
REMARK VINA RESULT:      -8.9      0.000      0.000
REMARK  5 active torsions:
REMARK  status: ('A' for Active; 'I' for Inactive)
REMARK    1  A    between atoms: N_2  and  C_4 
REMARK    2  A    between atoms: C_4  and  C_5 
REMARK    3  A    between atoms: C_5  and  N_6 
REMARK    4  A    between atoms: C_11  and  C_12 
REMARK    5  A    between atoms: C_15  and  O_16 
ROOT
HETATM    1  N   UNL     1      25.250  45.416  51.930  1.00  0.00    -0.332 N 
HETATM    2  C   UNL     1      25.829  46.318  52.806  1.00  0.00     0.279 C 
HETATM    3  O   UNL     1      25.472  47.468  52.971  1.00  0.00    -0.265 OA
HETATM    4  C   UNL     1      26.893  45.593  53.522  1.00  0.00     0.156 A 
HETATM    5  C   UNL     1      26.790  44.315  53.155  1.00  0.00     0.060 A 
HETATM    6  C   UNL     1      25.647  44.044  52.249  1.00  0.00     0.161 C 
HETATM    7  O   UNL     1      27.785  46.151  54.393  1.00  0.00    -0.303 OA
HETATM    8  C   UNL     1      28.746  45.298  54.895  1.00  0.00     0.090 A 
HETATM    9  C   UNL     1      28.785  43.929  54.585  1.00  0.00     0.051 A 
HETATM   10  C   UNL     1      27.724  43.352  53.725  1.00  0.00     0.196 A 
HETATM   11  O   UNL     1      27.612  42.153  53.527  1.00  0.00    -0.287 OA
HETATM   12  C   UNL     1      29.706  45.854  55.741  1.00  0.00     0.041 A 
HETATM   13  C   UNL     1      30.719  45.042  56.257  1.00  0.00     0.045 A 
HETATM   14  C   UNL     1      30.761  43.689  55.921  1.00  0.00     0.117 A 
HETATM   15  F   UNL     1      31.744  42.924  56.411  1.00  0.00    -0.206 F 
HETATM   16  C   UNL     1      29.801  43.119  55.092  1.00  0.00     0.060 A 
ENDROOT
BRANCH   6  17
HETATM   17  C   UNL     1      25.862  43.171  51.041  1.00  0.00    -0.030 A 
HETATM   18  C   UNL     1      24.850  42.263  50.672  1.00  0.00     0.012 A 
HETATM   19  C   UNL     1      24.971  41.477  49.525  1.00  0.00     0.037 A 
HETATM   20  C   UNL     1      26.110  41.594  48.742  1.00  0.00     0.065 A 
HETATM   21  C   UNL     1      27.127  42.475  49.092  1.00  0.00     0.037 A 
HETATM   22  C   UNL     1      27.009  43.261  50.241  1.00  0.00     0.012 A 
BRANCH  20  23
HETATM   23  O   UNL     1      26.269  40.857  47.608  1.00  0.00    -0.361 OA
HETATM   24  H   UNL     1      27.212  40.657  47.487  1.00  0.00     0.217 HD
ENDBRANCH  20  23
ENDBRANCH   6  17
BRANCH   1  25
HETATM   25  C   UNL     1      24.341  45.806  50.854  1.00  0.00     0.155 C 
BRANCH  25  26
HETATM   26  C   UNL     1      25.032  46.433  49.640  1.00  0.00     0.254 C 
BRANCH  26  27
HETATM   27  N   UNL     1      25.286  47.917  49.828  1.00  0.00    -0.077 N 
HETATM   28  C   UNL     1      24.340  48.748  49.011  1.00  0.00     0.269 C 
HETATM   29  H   UNL     1      25.123  48.133  50.826  1.00  0.00     0.279 HD
HETATM   30  C   UNL     1      26.717  48.320  49.584  1.00  0.00     0.269 C 
ENDBRANCH  26  27
ENDBRANCH  25  26
ENDBRANCH   1  25
TORSDOF 5
ENDMDL
MODEL 2
REMARK VINA RESULT:      -8.3      1.264      1.411
REMARK  5 active torsions:
REMARK  status: ('A' for Active; 'I' for Inactive)
REMARK    1  A    between atoms: N_2  and  C_4 
REMARK    2  A    between atoms: C_4  and  C_5 
REMARK    3  A    between atoms: C_5  and  N_6 
REMARK    4  A    between atoms: C_11  and  C_12 
REMARK    5  A    between atoms: C_15  and  O_16 
ROOT
HETATM    1  N   UNL     1      25.255  44.042  51.569  1.00  0.00    -0.332 N 
HETATM    2  C   UNL     1      25.579  45.080  52.425  1.00  0.00     0.279 C 
HETATM    3  O   UNL     1      24.968  46.125  52.527  1.00  0.00    -0.265 OA
HETATM    4  C   UNL     1      26.745  44.637  53.209  1.00  0.00     0.156 A 
HETATM    5  C   UNL     1      26.946  43.356  52.894  1.00  0.00     0.060 A 
HETATM    6  C   UNL     1      25.933  42.805  51.960  1.00  0.00     0.161 C 
HETATM    7  O   UNL     1      27.450  45.409  54.087  1.00  0.00    -0.303 OA
HETATM    8  C   UNL     1      28.553  44.811  54.659  1.00  0.00     0.090 A 
HETATM    9  C   UNL     1      28.910  43.476  54.410  1.00  0.00     0.051 A 
HETATM   10  C   UNL     1      28.044  42.647  53.538  1.00  0.00     0.196 A 
HETATM   11  O   UNL     1      28.211  41.447  53.388  1.00  0.00    -0.287 OA
HETATM   12  C   UNL     1      29.327  45.596  55.514  1.00  0.00     0.041 A 
HETATM   13  C   UNL     1      30.471  45.050  56.100  1.00  0.00     0.045 A 
HETATM   14  C   UNL     1      30.829  43.731  55.825  1.00  0.00     0.117 A 
HETATM   15  F   UNL     1      31.934  43.223  56.382  1.00  0.00    -0.206 F 
HETATM   16  C   UNL     1      30.058  42.933  54.988  1.00  0.00     0.060 A 
ENDROOT
BRANCH   6  17
HETATM   17  C   UNL     1      26.391  41.962  50.799  1.00  0.00    -0.030 A 
HETATM   18  C   UNL     1      26.029  40.601  50.766  1.00  0.00     0.012 A 
HETATM   19  C   UNL     1      26.372  39.791  49.682  1.00  0.00     0.037 A 
HETATM   20  C   UNL     1      27.084  40.341  48.626  1.00  0.00     0.065 A 
HETATM   21  C   UNL     1      27.462  41.679  48.641  1.00  0.00     0.037 A 
HETATM   22  C   UNL     1      27.121  42.490  49.726  1.00  0.00     0.012 A 
BRANCH  20  23
HETATM   23  O   UNL     1      27.432  39.594  47.541  1.00  0.00    -0.361 OA
HETATM   24  H   UNL     1      26.747  38.924  47.381  1.00  0.00     0.217 HD
ENDBRANCH  20  23
ENDBRANCH   6  17
BRANCH   1  25
HETATM   25  C   UNL     1      24.331  44.181  50.445  1.00  0.00     0.155 C 
BRANCH  25  26
HETATM   26  C   UNL     1      24.656  45.341  49.500  1.00  0.00     0.254 C 
BRANCH  26  27
HETATM   27  N   UNL     1      23.629  46.454  49.585  1.00  0.00    -0.077 N 
HETATM   28  C   UNL     1      22.624  46.366  48.472  1.00  0.00     0.269 C 
HETATM   29  H   UNL     1      23.126  46.342  50.480  1.00  0.00     0.279 HD
HETATM   30  C   UNL     1      24.236  47.831  49.663  1.00  0.00     0.269 C 
ENDBRANCH  26  27
ENDBRANCH  25  26
ENDBRANCH   1  25
TORSDOF 5
ENDMDL
MODEL 3
REMARK VINA RESULT:      -8.0      1.914      2.635
REMARK  5 active torsions:
REMARK  status: ('A' for Active; 'I' for Inactive)
REMARK    1  A    between atoms: N_2  and  C_4 
REMARK    2  A    between atoms: C_4  and  C_5 
REMARK    3  A    between atoms: C_5  and  N_6 
REMARK    4  A    between atoms: C_11  and  C_12 
REMARK    5  A    between atoms: C_15  and  O_16 
ROOT
HETATM    1  N   UNL     1      25.333  43.875  51.229  1.00  0.00    -0.332 N 
HETATM    2  C   UNL     1      25.622  44.954  52.046  1.00  0.00     0.279 C 
HETATM    3  O   UNL     1      25.014  46.006  52.063  1.00  0.00    -0.265 OA
HETATM    4  C   UNL     1      26.742  44.545  52.911  1.00  0.00     0.156 A 
HETATM    5  C   UNL     1      26.948  43.249  52.673  1.00  0.00     0.060 A 
HETATM    6  C   UNL     1      25.981  42.657  51.718  1.00  0.00     0.161 C 
HETATM    7  O   UNL     1      27.408  45.358  53.784  1.00  0.00    -0.303 OA
HETATM    8  C   UNL     1      28.475  44.785  54.443  1.00  0.00     0.090 A 
HETATM    9  C   UNL     1      28.833  43.437  54.281  1.00  0.00     0.051 A 
HETATM   10  C   UNL     1      28.006  42.569  53.409  1.00  0.00     0.196 A 
HETATM   11  O   UNL     1      28.171  41.362  53.329  1.00  0.00    -0.287 OA
HETATM   12  C   UNL     1      29.210  45.608  55.295  1.00  0.00     0.041 A 
HETATM   13  C   UNL     1      30.318  45.087  55.967  1.00  0.00     0.045 A 
HETATM   14  C   UNL     1      30.678  43.753  55.778  1.00  0.00     0.117 A 
HETATM   15  F   UNL     1      31.750  43.269  56.417  1.00  0.00    -0.206 F 
HETATM   16  C   UNL     1      29.945  42.917  54.944  1.00  0.00     0.060 A 
ENDROOT
BRANCH   6  17
HETATM   17  C   UNL     1      26.490  41.752  50.627  1.00  0.00    -0.030 A 
HETATM   18  C   UNL     1      26.194  40.376  50.692  1.00  0.00     0.012 A 
HETATM   19  C   UNL     1      26.587  39.505  49.675  1.00  0.00     0.037 A 
HETATM   20  C   UNL     1      27.284  40.008  48.586  1.00  0.00     0.065 A 
HETATM   21  C   UNL     1      27.598  41.361  48.504  1.00  0.00     0.037 A 
HETATM   22  C   UNL     1      27.208  42.233  49.523  1.00  0.00     0.012 A 
BRANCH  20  23
HETATM   23  O   UNL     1      27.679  39.201  47.563  1.00  0.00    -0.361 OA
HETATM   24  H   UNL     1      28.003  38.360  47.926  1.00  0.00     0.217 HD
ENDBRANCH  20  23
ENDBRANCH   6  17
BRANCH   1  25
HETATM   25  C   UNL     1      24.469  43.961  50.053  1.00  0.00     0.155 C 
BRANCH  25  26
HETATM   26  C   UNL     1      23.186  43.130  50.150  1.00  0.00     0.254 C 
BRANCH  26  27
HETATM   27  N   UNL     1      22.723  42.630  48.795  1.00  0.00    -0.077 N 
HETATM   28  C   UNL     1      23.573  41.494  48.305  1.00  0.00     0.269 C 
HETATM   29  H   UNL     1      21.757  42.282  48.909  1.00  0.00     0.279 HD
HETATM   30  C   UNL     1      22.612  43.716  47.757  1.00  0.00     0.269 C 
ENDBRANCH  26  27
ENDBRANCH  25  26
ENDBRANCH   1  25
TORSDOF 5
ENDMDL
MODEL 4
REMARK VINA RESULT:      -7.8      3.173      5.357
REMARK  5 active torsions:
REMARK  status: ('A' for Active; 'I' for Inactive)
REMARK    1  A    between atoms: N_2  and  C_4 
REMARK    2  A    between atoms: C_4  and  C_5 
REMARK    3  A    between atoms: C_5  and  N_6 
REMARK    4  A    between atoms: C_11  and  C_12 
REMARK    5  A    between atoms: C_15  and  O_16 
ROOT
HETATM    1  N   UNL     1      27.018  41.704  51.342  1.00  0.00    -0.332 N 
HETATM    2  C   UNL     1      27.726  41.792  52.528  1.00  0.00     0.279 C 
HETATM    3  O   UNL     1      28.364  40.891  53.036  1.00  0.00    -0.265 OA
HETATM    4  C   UNL     1      27.603  43.184  52.995  1.00  0.00     0.156 A 
HETATM    5  C   UNL     1      26.981  43.853  52.023  1.00  0.00     0.060 A 
HETATM    6  C   UNL     1      26.699  43.033  50.820  1.00  0.00     0.161 C 
HETATM    7  O   UNL     1      28.059  43.663  54.190  1.00  0.00    -0.303 OA
HETATM    8  C   UNL     1      27.771  44.985  54.455  1.00  0.00     0.090 A 
HETATM    9  C   UNL     1      27.102  45.816  53.542  1.00  0.00     0.051 A 
HETATM   10  C   UNL     1      26.731  45.277  52.212  1.00  0.00     0.196 A 
HETATM   11  O   UNL     1      26.276  45.973  51.318  1.00  0.00    -0.287 OA
HETATM   12  C   UNL     1      28.173  45.485  55.694  1.00  0.00     0.041 A 
HETATM   13  C   UNL     1      27.883  46.810  56.026  1.00  0.00     0.045 A 
HETATM   14  C   UNL     1      27.195  47.618  55.120  1.00  0.00     0.117 A 
HETATM   15  F   UNL     1      26.912  48.882  55.456  1.00  0.00    -0.206 F 
HETATM   16  C   UNL     1      26.804  47.137  53.876  1.00  0.00     0.060 A 
ENDROOT
BRANCH   6  17
HETATM   17  C   UNL     1      25.343  43.128  50.172  1.00  0.00    -0.030 A 
HETATM   18  C   UNL     1      25.269  43.385  48.788  1.00  0.00     0.012 A 
HETATM   19  C   UNL     1      24.041  43.419  48.126  1.00  0.00     0.037 A 
HETATM   20  C   UNL     1      22.878  43.200  48.849  1.00  0.00     0.065 A 
HETATM   21  C   UNL     1      22.924  42.955  50.217  1.00  0.00     0.037 A 
HETATM   22  C   UNL     1      24.152  42.923  50.881  1.00  0.00     0.012 A 
BRANCH  20  23
HETATM   23  O   UNL     1      21.656  43.211  48.246  1.00  0.00    -0.361 OA
HETATM   24  H   UNL     1      21.656  43.877  47.538  1.00  0.00     0.217 HD
ENDBRANCH  20  23
ENDBRANCH   6  17
BRANCH   1  25
HETATM   25  C   UNL     1      26.672  40.437  50.701  1.00  0.00     0.155 C 
BRANCH  25  26
HETATM   26  C   UNL     1      27.788  39.841  49.837  1.00  0.00     0.254 C 
BRANCH  26  27
HETATM   27  N   UNL     1      28.096  38.404  50.210  1.00  0.00    -0.077 N 
HETATM   28  C   UNL     1      29.551  38.084  50.023  1.00  0.00     0.269 C 
HETATM   29  H   UNL     1      27.870  38.290  51.212  1.00  0.00     0.279 HD
HETATM   30  C   UNL     1      27.222  37.397  49.509  1.00  0.00     0.269 C 
ENDBRANCH  26  27
ENDBRANCH  25  26
ENDBRANCH   1  25
TORSDOF 5
ENDMDL
MODEL 5
REMARK VINA RESULT:      -7.7      4.873      8.337
REMARK  5 active torsions:
REMARK  status: ('A' for Active; 'I' for Inactive)
REMARK    1  A    between atoms: N_2  and  C_4 
REMARK    2  A    between atoms: C_4  and  C_5 
REMARK    3  A    between atoms: C_5  and  N_6 
REMARK    4  A    between atoms: C_11  and  C_12 
REMARK    5  A    between atoms: C_15  and  O_16 
ROOT
HETATM    1  N   UNL     1      21.027  47.198  47.142  1.00  0.00    -0.332 N 
HETATM    2  C   UNL     1      21.642  45.966  47.285  1.00  0.00     0.279 C 
HETATM    3  O   UNL     1      21.393  44.974  46.630  1.00  0.00    -0.265 OA
HETATM    4  C   UNL     1      22.677  46.126  48.321  1.00  0.00     0.156 A 
HETATM    5  C   UNL     1      22.718  47.427  48.615  1.00  0.00     0.060 A 
HETATM    6  C   UNL     1      21.806  48.254  47.789  1.00  0.00     0.161 C 
HETATM    7  O   UNL     1      23.436  45.119  48.846  1.00  0.00    -0.303 OA
HETATM    8  C   UNL     1      24.297  45.483  49.861  1.00  0.00     0.090 A 
HETATM    9  C   UNL     1      24.437  46.809  50.299  1.00  0.00     0.051 A 
HETATM   10  C   UNL     1      23.674  47.881  49.617  1.00  0.00     0.196 A 
HETATM   11  O   UNL     1      23.848  49.067  49.848  1.00  0.00    -0.287 OA
HETATM   12  C   UNL     1      25.041  44.464  50.456  1.00  0.00     0.041 A 
HETATM   13  C   UNL     1      25.908  44.772  51.507  1.00  0.00     0.045 A 
HETATM   14  C   UNL     1      26.020  46.089  51.950  1.00  0.00     0.117 A 
HETATM   15  F   UNL     1      26.844  46.369  52.967  1.00  0.00    -0.206 F 
HETATM   16  C   UNL     1      25.296  47.116  51.355  1.00  0.00     0.060 A 
ENDROOT
BRANCH   6  17
HETATM   17  C   UNL     1      20.968  49.311  48.460  1.00  0.00    -0.030 A 
HETATM   18  C   UNL     1      20.987  50.621  47.941  1.00  0.00     0.012 A 
HETATM   19  C   UNL     1      20.180  51.622  48.485  1.00  0.00     0.037 A 
HETATM   20  C   UNL     1      19.353  51.317  49.555  1.00  0.00     0.065 A 
HETATM   21  C   UNL     1      19.325  50.034  50.092  1.00  0.00     0.037 A 
HETATM   22  C   UNL     1      20.133  49.032  49.550  1.00  0.00     0.012 A 
BRANCH  20  23
HETATM   23  O   UNL     1      18.539  52.256  50.113  1.00  0.00    -0.361 OA
HETATM   24  H   UNL     1      18.400  52.977  49.475  1.00  0.00     0.217 HD
ENDBRANCH  20  23
ENDBRANCH   6  17
BRANCH   1  25
HETATM   25  C   UNL     1      19.777  47.395  46.410  1.00  0.00     0.155 C 
BRANCH  25  26
HETATM   26  C   UNL     1      18.561  46.712  47.042  1.00  0.00     0.254 C 
BRANCH  26  27
HETATM   27  N   UNL     1      17.372  47.647  47.155  1.00  0.00    -0.077 N 
HETATM   28  C   UNL     1      17.719  49.038  46.709  1.00  0.00     0.269 C 
HETATM   29  H   UNL     1      16.634  47.285  46.529  1.00  0.00     0.279 HD
HETATM   30  C   UNL     1      16.737  47.654  48.521  1.00  0.00     0.269 C 
ENDBRANCH  26  27
ENDBRANCH  25  26
ENDBRANCH   1  25
TORSDOF 5
ENDMDL
MODEL 6
REMARK VINA RESULT:      -7.7      5.927      9.585
REMARK  5 active torsions:
REMARK  status: ('A' for Active; 'I' for Inactive)
REMARK    1  A    between atoms: N_2  and  C_4 
REMARK    2  A    between atoms: C_4  and  C_5 
REMARK    3  A    between atoms: C_5  and  N_6 
REMARK    4  A    between atoms: C_11  and  C_12 
REMARK    5  A    between atoms: C_15  and  O_16 
ROOT
HETATM    1  N   UNL     1      19.902  47.446  48.341  1.00  0.00    -0.332 N 
HETATM    2  C   UNL     1      20.876  46.544  48.733  1.00  0.00     0.279 C 
HETATM    3  O   UNL     1      20.685  45.373  48.999  1.00  0.00    -0.265 OA
HETATM    4  C   UNL     1      22.162  47.261  48.696  1.00  0.00     0.156 A 
HETATM    5  C   UNL     1      21.910  48.457  48.161  1.00  0.00     0.060 A 
HETATM    6  C   UNL     1      20.502  48.634  47.731  1.00  0.00     0.161 C 
HETATM    7  O   UNL     1      23.360  46.764  49.123  1.00  0.00    -0.303 OA
HETATM    8  C   UNL     1      24.426  47.637  49.064  1.00  0.00     0.090 A 
HETATM    9  C   UNL     1      24.317  48.938  48.547  1.00  0.00     0.051 A 
HETATM   10  C   UNL     1      23.019  49.388  47.991  1.00  0.00     0.196 A 
HETATM   11  O   UNL     1      22.883  50.448  47.401  1.00  0.00    -0.287 OA
HETATM   12  C   UNL     1      25.650  47.175  49.549  1.00  0.00     0.041 A 
HETATM   13  C   UNL     1      26.757  48.026  49.539  1.00  0.00     0.045 A 
HETATM   14  C   UNL     1      26.629  49.325  49.046  1.00  0.00     0.117 A 
HETATM   15  F   UNL     1      27.694  50.135  49.054  1.00  0.00    -0.206 F 
HETATM   16  C   UNL     1      25.420  49.792  48.545  1.00  0.00     0.060 A 
ENDROOT
BRANCH   6  17
HETATM   17  C   UNL     1      19.791  49.919  48.065  1.00  0.00    -0.030 A 
HETATM   18  C   UNL     1      19.005  50.537  47.072  1.00  0.00     0.012 A 
HETATM   19  C   UNL     1      18.275  51.694  47.348  1.00  0.00     0.037 A 
HETATM   20  C   UNL     1      18.331  52.242  48.620  1.00  0.00     0.065 A 
HETATM   21  C   UNL     1      19.109  51.657  49.614  1.00  0.00     0.037 A 
HETATM   22  C   UNL     1      19.842  50.500  49.339  1.00  0.00     0.012 A 
BRANCH  20  23
HETATM   23  O   UNL     1      17.628  53.363  48.942  1.00  0.00    -0.361 OA
HETATM   24  H   UNL     1      18.014  53.766  49.737  1.00  0.00     0.217 HD
ENDBRANCH  20  23
ENDBRANCH   6  17
BRANCH   1  25
HETATM   25  C   UNL     1      18.469  47.208  48.500  1.00  0.00     0.155 C 
BRANCH  25  26
HETATM   26  C   UNL     1      17.792  46.590  47.273  1.00  0.00     0.254 C 
BRANCH  26  27
HETATM   27  N   UNL     1      16.434  47.206  46.996  1.00  0.00    -0.077 N 
HETATM   28  C   UNL     1      16.340  47.729  45.592  1.00  0.00     0.269 C 
HETATM   29  H   UNL     1      15.728  46.460  47.109  1.00  0.00     0.279 HD
HETATM   30  C   UNL     1      16.033  48.258  47.998  1.00  0.00     0.269 C 
ENDBRANCH  26  27
ENDBRANCH  25  26
ENDBRANCH   1  25
TORSDOF 5
ENDMDL
MODEL 7
REMARK VINA RESULT:      -7.3      2.190      3.039
REMARK  5 active torsions:
REMARK  status: ('A' for Active; 'I' for Inactive)
REMARK    1  A    between atoms: N_2  and  C_4 
REMARK    2  A    between atoms: C_4  and  C_5 
REMARK    3  A    between atoms: C_5  and  N_6 
REMARK    4  A    between atoms: C_11  and  C_12 
REMARK    5  A    between atoms: C_15  and  O_16 
ROOT
HETATM    1  N   UNL     1      24.048  46.001  49.884  1.00  0.00    -0.332 N 
HETATM    2  C   UNL     1      24.447  47.149  50.548  1.00  0.00     0.279 C 
HETATM    3  O   UNL     1      24.141  48.283  50.237  1.00  0.00    -0.265 OA
HETATM    4  C   UNL     1      25.239  46.715  51.711  1.00  0.00     0.156 A 
HETATM    5  C   UNL     1      25.143  45.385  51.757  1.00  0.00     0.060 A 
HETATM    6  C   UNL     1      24.254  44.815  50.717  1.00  0.00     0.161 C 
HETATM    7  O   UNL     1      25.915  47.541  52.564  1.00  0.00    -0.303 OA
HETATM    8  C   UNL     1      26.653  46.916  53.546  1.00  0.00     0.090 A 
HETATM    9  C   UNL     1      26.674  45.521  53.710  1.00  0.00     0.051 A 
HETATM   10  C   UNL     1      25.830  44.677  52.830  1.00  0.00     0.196 A 
HETATM   11  O   UNL     1      25.688  43.477  53.002  1.00  0.00    -0.287 OA
HETATM   12  C   UNL     1      27.402  47.733  54.393  1.00  0.00     0.041 A 
HETATM   13  C   UNL     1      28.189  47.151  55.389  1.00  0.00     0.045 A 
HETATM   14  C   UNL     1      28.221  45.763  55.525  1.00  0.00     0.117 A 
HETATM   15  F   UNL     1      28.990  45.217  56.474  1.00  0.00    -0.206 F 
HETATM   16  C   UNL     1      27.467  44.938  54.698  1.00  0.00     0.060 A 
ENDROOT
BRANCH   6  17
HETATM   17  C   UNL     1      24.708  43.600  49.952  1.00  0.00    -0.030 A 
HETATM   18  C   UNL     1      26.058  43.512  49.558  1.00  0.00     0.012 A 
HETATM   19  C   UNL     1      26.545  42.380  48.903  1.00  0.00     0.037 A 
HETATM   20  C   UNL     1      25.680  41.329  48.636  1.00  0.00     0.065 A 
HETATM   21  C   UNL     1      24.341  41.397  49.004  1.00  0.00     0.037 A 
HETATM   22  C   UNL     1      23.852  42.530  49.657  1.00  0.00     0.012 A 
BRANCH  20  23
HETATM   23  O   UNL     1      26.111  40.198  48.010  1.00  0.00    -0.361 OA
HETATM   24  H   UNL     1      26.433  40.428  47.122  1.00  0.00     0.217 HD
ENDBRANCH  20  23
ENDBRANCH   6  17
BRANCH   1  25
HETATM   25  C   UNL     1      23.474  46.003  48.540  1.00  0.00     0.155 C 
BRANCH  25  26
HETATM   26  C   UNL     1      21.978  45.679  48.492  1.00  0.00     0.254 C 
BRANCH  26  27
HETATM   27  N   UNL     1      21.208  46.654  47.621  1.00  0.00    -0.077 N 
HETATM   28  C   UNL     1      21.166  46.201  46.190  1.00  0.00     0.269 C 
HETATM   29  H   UNL     1      20.239  46.684  47.976  1.00  0.00     0.279 HD
HETATM   30  C   UNL     1      21.695  48.075  47.730  1.00  0.00     0.269 C 
ENDBRANCH  26  27
ENDBRANCH  25  26
ENDBRANCH   1  25
TORSDOF 5
ENDMDL
MODEL 8
REMARK VINA RESULT:      -7.1      2.673      4.188
REMARK  5 active torsions:
REMARK  status: ('A' for Active; 'I' for Inactive)
REMARK    1  A    between atoms: N_2  and  C_4 
REMARK    2  A    between atoms: C_4  and  C_5 
REMARK    3  A    between atoms: C_5  and  N_6 
REMARK    4  A    between atoms: C_11  and  C_12 
REMARK    5  A    between atoms: C_15  and  O_16 
ROOT
HETATM    1  N   UNL     1      24.711  42.430  49.769  1.00  0.00    -0.332 N 
HETATM    2  C   UNL     1      24.681  43.430  50.725  1.00  0.00     0.279 C 
HETATM    3  O   UNL     1      23.801  44.258  50.850  1.00  0.00    -0.265 OA
HETATM    4  C   UNL     1      25.869  43.241  51.576  1.00  0.00     0.156 A 
HETATM    5  C   UNL     1      26.434  42.097  51.186  1.00  0.00     0.060 A 
HETATM    6  C   UNL     1      25.676  41.389  50.127  1.00  0.00     0.161 C 
HETATM    7  O   UNL     1      26.276  44.086  52.570  1.00  0.00    -0.303 OA
HETATM    8  C   UNL     1      27.460  43.752  53.193  1.00  0.00     0.090 A 
HETATM    9  C   UNL     1      28.185  42.592  52.878  1.00  0.00     0.051 A 
HETATM   10  C   UNL     1      27.639  41.649  51.872  1.00  0.00     0.196 A 
HETATM   11  O   UNL     1      28.138  40.558  51.648  1.00  0.00    -0.287 OA
HETATM   12  C   UNL     1      27.930  44.630  54.170  1.00  0.00     0.041 A 
HETATM   13  C   UNL     1      29.139  44.356  54.814  1.00  0.00     0.045 A 
HETATM   14  C   UNL     1      29.862  43.212  54.474  1.00  0.00     0.117 A 
HETATM   15  F   UNL     1      31.025  42.968  55.089  1.00  0.00    -0.206 F 
HETATM   16  C   UNL     1      29.397  42.322  53.514  1.00  0.00     0.060 A 
ENDROOT
BRANCH   6  17
HETATM   17  C   UNL     1      26.423  40.814  48.952  1.00  0.00    -0.030 A 
HETATM   18  C   UNL     1      26.193  39.471  48.593  1.00  0.00     0.012 A 
HETATM   19  C   UNL     1      26.811  38.909  47.475  1.00  0.00     0.037 A 
HETATM   20  C   UNL     1      27.666  39.689  46.711  1.00  0.00     0.065 A 
HETATM   21  C   UNL     1      27.917  41.014  47.051  1.00  0.00     0.037 A 
HETATM   22  C   UNL     1      27.301  41.578  48.171  1.00  0.00     0.012 A 
BRANCH  20  23
HETATM   23  O   UNL     1      28.283  39.190  45.604  1.00  0.00    -0.361 OA
HETATM   24  H   UNL     1      27.613  38.821  45.004  1.00  0.00     0.217 HD
ENDBRANCH  20  23
ENDBRANCH   6  17
BRANCH   1  25
HETATM   25  C   UNL     1      23.861  42.425  48.580  1.00  0.00     0.155 C 
BRANCH  25  26
HETATM   26  C   UNL     1      22.839  41.285  48.540  1.00  0.00     0.254 C 
BRANCH  26  27
HETATM   27  N   UNL     1      22.515  40.855  47.122  1.00  0.00    -0.077 N 
HETATM   28  C   UNL     1      21.767  39.553  47.096  1.00  0.00     0.269 C 
HETATM   29  H   UNL     1      21.908  41.582  46.710  1.00  0.00     0.279 HD
HETATM   30  C   UNL     1      23.718  40.811  46.215  1.00  0.00     0.269 C 
ENDBRANCH  26  27
ENDBRANCH  25  26
ENDBRANCH   1  25
TORSDOF 5
ENDMDL
MODEL 9
REMARK VINA RESULT:      -7.0     12.192     13.943
REMARK  5 active torsions:
REMARK  status: ('A' for Active; 'I' for Inactive)
REMARK    1  A    between atoms: N_2  and  C_4 
REMARK    2  A    between atoms: C_4  and  C_5 
REMARK    3  A    between atoms: C_5  and  N_6 
REMARK    4  A    between atoms: C_11  and  C_12 
REMARK    5  A    between atoms: C_15  and  O_16 
ROOT
HETATM    1  N   UNL     1      28.303  50.026  38.752  1.00  0.00    -0.332 N 
HETATM    2  C   UNL     1      29.199  51.021  38.401  1.00  0.00     0.279 C 
HETATM    3  O   UNL     1      28.998  51.889  37.574  1.00  0.00    -0.265 OA
HETATM    4  C   UNL     1      30.383  50.851  39.260  1.00  0.00     0.156 A 
HETATM    5  C   UNL     1      30.074  49.898  40.142  1.00  0.00     0.060 A 
HETATM    6  C   UNL     1      28.684  49.400  40.020  1.00  0.00     0.161 C 
HETATM    7  O   UNL     1      31.547  51.558  39.156  1.00  0.00    -0.303 OA
HETATM    8  C   UNL     1      32.555  51.185  40.020  1.00  0.00     0.090 A 
HETATM    9  C   UNL     1      32.393  50.182  40.989  1.00  0.00     0.051 A 
HETATM   10  C   UNL     1      31.072  49.526  41.137  1.00  0.00     0.196 A 
HETATM   11  O   UNL     1      30.816  48.751  42.044  1.00  0.00    -0.287 OA
HETATM   12  C   UNL     1      33.775  51.849  39.895  1.00  0.00     0.041 A 
HETATM   13  C   UNL     1      34.839  51.492  40.725  1.00  0.00     0.045 A 
HETATM   14  C   UNL     1      34.673  50.478  41.668  1.00  0.00     0.117 A 
HETATM   15  F   UNL     1      35.705  50.136  42.449  1.00  0.00    -0.206 F 
HETATM   16  C   UNL     1      33.458  49.819  41.814  1.00  0.00     0.060 A 
ENDROOT
BRANCH   6  17
HETATM   17  C   UNL     1      28.431  47.916  40.071  1.00  0.00    -0.030 A 
HETATM   18  C   UNL     1      29.279  47.058  39.342  1.00  0.00     0.012 A 
HETATM   19  C   UNL     1      29.128  45.672  39.407  1.00  0.00     0.037 A 
HETATM   20  C   UNL     1      28.123  45.137  40.199  1.00  0.00     0.065 A 
HETATM   21  C   UNL     1      27.267  45.964  40.919  1.00  0.00     0.037 A 
HETATM   22  C   UNL     1      27.415  47.351  40.853  1.00  0.00     0.012 A 
BRANCH  20  23
HETATM   23  O   UNL     1      27.943  43.791  40.304  1.00  0.00    -0.361 OA
HETATM   24  H   UNL     1      26.991  43.595  40.305  1.00  0.00     0.217 HD
ENDBRANCH  20  23
ENDBRANCH   6  17
BRANCH   1  25
HETATM   25  C   UNL     1      27.124  49.684  37.959  1.00  0.00     0.155 C 
BRANCH  25  26
HETATM   26  C   UNL     1      25.794  50.103  38.592  1.00  0.00     0.254 C 
BRANCH  26  27
HETATM   27  N   UNL     1      24.607  49.760  37.712  1.00  0.00    -0.077 N 
HETATM   28  C   UNL     1      23.305  50.023  38.412  1.00  0.00     0.269 C 
HETATM   29  H   UNL     1      24.653  50.371  36.880  1.00  0.00     0.279 HD
HETATM   30  C   UNL     1      24.654  48.361  37.155  1.00  0.00     0.269 C 
ENDBRANCH  26  27
ENDBRANCH  25  26
ENDBRANCH   1  25
TORSDOF 5
ENDMDL
MODEL 10
REMARK VINA RESULT:      -6.9     11.793     13.312
REMARK  5 active torsions:
REMARK  status: ('A' for Active; 'I' for Inactive)
REMARK    1  A    between atoms: N_2  and  C_4 
REMARK    2  A    between atoms: C_4  and  C_5 
REMARK    3  A    between atoms: C_5  and  N_6 
REMARK    4  A    between atoms: C_11  and  C_12 
REMARK    5  A    between atoms: C_15  and  O_16 
ROOT
HETATM    1  N   UNL     1      27.129  49.026  38.827  1.00  0.00    -0.332 N 
HETATM    2  C   UNL     1      27.680  50.290  38.711  1.00  0.00     0.279 C 
HETATM    3  O   UNL     1      27.337  51.137  37.910  1.00  0.00    -0.265 OA
HETATM    4  C   UNL     1      28.693  50.413  39.774  1.00  0.00     0.156 A 
HETATM    5  C   UNL     1      28.584  49.316  40.525  1.00  0.00     0.060 A 
HETATM    6  C   UNL     1      27.484  48.414  40.108  1.00  0.00     0.161 C 
HETATM    7  O   UNL     1      29.550  51.465  39.936  1.00  0.00    -0.303 OA
HETATM    8  C   UNL     1      30.467  51.338  40.957  1.00  0.00     0.090 A 
HETATM    9  C   UNL     1      30.496  50.232  41.821  1.00  0.00     0.051 A 
HETATM   10  C   UNL     1      29.470  49.173  41.674  1.00  0.00     0.196 A 
HETATM   11  O   UNL     1      29.345  48.256  42.471  1.00  0.00    -0.287 OA
HETATM   12  C   UNL     1      31.394  52.370  41.108  1.00  0.00     0.041 A 
HETATM   13  C   UNL     1      32.363  52.282  42.109  1.00  0.00     0.045 A 
HETATM   14  C   UNL     1      32.397  51.166  42.944  1.00  0.00     0.117 A 
HETATM   15  F   UNL     1      33.340  51.086  43.891  1.00  0.00    -0.206 F 
HETATM   16  C   UNL     1      31.470  50.138  42.816  1.00  0.00     0.060 A 
ENDROOT
BRANCH   6  17
HETATM   17  C   UNL     1      27.743  46.933  40.029  1.00  0.00    -0.030 A 
HETATM   18  C   UNL     1      28.840  46.475  39.271  1.00  0.00     0.012 A 
HETATM   19  C   UNL     1      29.162  45.118  39.217  1.00  0.00     0.037 A 
HETATM   20  C   UNL     1      28.384  44.210  39.919  1.00  0.00     0.065 A 
HETATM   21  C   UNL     1      27.290  44.636  40.665  1.00  0.00     0.037 A 
HETATM   22  C   UNL     1      26.965  45.993  40.718  1.00  0.00     0.012 A 
BRANCH  20  23
HETATM   23  O   UNL     1      28.665  42.877  39.907  1.00  0.00    -0.361 OA
HETATM   24  H   UNL     1      29.629  42.754  39.890  1.00  0.00     0.217 HD
ENDBRANCH  20  23
ENDBRANCH   6  17
BRANCH   1  25
HETATM   25  C   UNL     1      26.283  48.417  37.803  1.00  0.00     0.155 C 
BRANCH  25  26
HETATM   26  C   UNL     1      24.812  48.274  38.202  1.00  0.00     0.254 C 
BRANCH  26  27
HETATM   27  N   UNL     1      23.925  49.280  37.492  1.00  0.00    -0.077 N 
HETATM   28  C   UNL     1      23.136  50.106  38.466  1.00  0.00     0.269 C 
HETATM   29  H   UNL     1      24.544  49.915  36.961  1.00  0.00     0.279 HD
HETATM   30  C   UNL     1      23.031  48.665  36.448  1.00  0.00     0.269 C 
ENDBRANCH  26  27
ENDBRANCH  25  26
ENDBRANCH   1  25
TORSDOF 5
ENDMDL
