MODEL 1
REMARK VINA RESULT:      -8.7      0.000      0.000
REMARK  7 active torsions:
REMARK  status: ('A' for Active; 'I' for Inactive)
REMARK    1  A    between atoms: C_2  and  N_3 
REMARK    2  A    between atoms: C_2  and  C_10 
REMARK    3  A    between atoms: N_11  and  C_12 
REMARK    4  A    between atoms: C_19  and  S_20 
REMARK    5  A    between atoms: S_20  and  C_21 
REMARK    6  A    between atoms: C_21  and  C_22 
REMARK    7  A    between atoms: C_21  and  C_28 
REMARK       I    between atoms: C_22  and  N_23 
REMARK       I    between atoms: N_23  and  C_24 
REMARK       I    between atoms: C_24  and  N_25 
ROOT
HETATM    1  C   UNL     1      25.709  45.069  50.317  1.00  0.00     0.166 A 
HETATM    2  N   UNL     1      26.102  43.864  50.892  1.00  0.00    -0.274 N 
HETATM    3  C   UNL     1      25.486  42.903  50.112  1.00  0.00     0.197 A 
HETATM    4  N   UNL     1      24.741  43.479  49.197  1.00  0.00    -0.122 NA
HETATM    5  N   UNL     1      24.869  44.830  49.330  1.00  0.00    -0.131 NA
ENDROOT
BRANCH   3   6
HETATM    6  S   UNL     1      25.561  41.204  50.418  1.00  0.00    -0.070 SA
BRANCH   6   7
HETATM    7  C   UNL     1      26.599  40.555  49.047  1.00  0.00     0.180 C 
BRANCH   7   8
HETATM    8  C   UNL     1      25.824  40.405  47.717  1.00  0.00     0.244 C 
HETATM    9  N   UNL     1      26.544  40.231  46.550  1.00  0.00    -0.278 N 
HETATM   10  C   UNL     1      27.728  40.851  46.253  1.00  0.00     0.320 C 
HETATM   11  H   UNL     1      25.946  40.094  45.752  1.00  0.00     0.173 HD
HETATM   12  N   UNL     1      28.146  40.630  44.979  1.00  0.00    -0.352 N 
HETATM   13  O   UNL     1      28.414  41.503  47.024  1.00  0.00    -0.247 OA
HETATM   14  H   UNL     1      27.525  40.375  44.226  1.00  0.00     0.160 HD
HETATM   15  H   UNL     1      29.004  41.102  44.715  1.00  0.00     0.160 HD
HETATM   16  O   UNL     1      24.592  40.487  47.608  1.00  0.00    -0.271 OA
ENDBRANCH   7   8
BRANCH   7  17
HETATM   17  C   UNL     1      27.397  39.334  49.486  1.00  0.00    -0.035 A 
HETATM   18  C   UNL     1      28.673  39.520  50.048  1.00  0.00     0.009 A 
HETATM   19  C   UNL     1      29.438  38.433  50.475  1.00  0.00     0.001 A 
HETATM   20  C   UNL     1      28.938  37.141  50.348  1.00  0.00     0.000 A 
HETATM   21  C   UNL     1      27.674  36.936  49.799  1.00  0.00     0.001 A 
HETATM   22  C   UNL     1      26.906  38.024  49.375  1.00  0.00     0.009 A 
ENDBRANCH   7  17
ENDBRANCH   6   7
ENDBRANCH   3   6
BRANCH   2  23
HETATM   23  C   UNL     1      26.999  43.696  51.979  1.00  0.00     0.043 A 
HETATM   24  C   UNL     1      26.502  43.660  53.292  1.00  0.00     0.033 A 
HETATM   25  C   UNL     1      27.388  43.514  54.362  1.00  0.00     0.044 A 
HETATM   26  C   UNL     1      28.752  43.404  54.120  1.00  0.00     0.116 A 
HETATM   27  F   UNL     1      29.595  43.270  55.150  1.00  0.00    -0.206 F 
HETATM   28  C   UNL     1      29.253  43.431  52.823  1.00  0.00     0.044 A 
HETATM   29  C   UNL     1      28.377  43.576  51.745  1.00  0.00     0.033 A 
ENDBRANCH   2  23
BRANCH   1  30
HETATM   30  C   UNL     1      26.271  46.419  50.636  1.00  0.00     0.255 C 
HETATM   31  C   UNL     1      25.847  46.879  52.034  1.00  0.00     0.049 C 
BRANCH  30  32
HETATM   32  N   UNL     1      25.919  47.518  49.611  1.00  0.00    -0.060 N 
HETATM   33  H   UNL     1      25.936  47.051  48.696  1.00  0.00     0.280 HD
HETATM   34  C   UNL     1      24.507  48.036  49.811  1.00  0.00     0.236 C 
HETATM   35  C   UNL     1      24.121  48.905  48.622  1.00  0.00     0.028 C 
HETATM   36  C   UNL     1      25.109  50.046  48.409  1.00  0.00     0.003 C 
HETATM   37  C   UNL     1      26.543  49.532  48.320  1.00  0.00     0.028 C 
HETATM   38  C   UNL     1      26.903  48.670  49.526  1.00  0.00     0.236 C 
ENDBRANCH  30  32
ENDBRANCH   1  30
TORSDOF 7
ENDMDL
MODEL 2
REMARK VINA RESULT:      -8.4      3.611      5.942
REMARK  7 active torsions:
REMARK  status: ('A' for Active; 'I' for Inactive)
REMARK    1  A    between atoms: C_2  and  N_3 
REMARK    2  A    between atoms: C_2  and  C_10 
REMARK    3  A    between atoms: N_11  and  C_12 
REMARK    4  A    between atoms: C_19  and  S_20 
REMARK    5  A    between atoms: S_20  and  C_21 
REMARK    6  A    between atoms: C_21  and  C_22 
REMARK    7  A    between atoms: C_21  and  C_28 
REMARK       I    between atoms: C_22  and  N_23 
REMARK       I    between atoms: N_23  and  C_24 
REMARK       I    between atoms: C_24  and  N_25 
ROOT
HETATM    1  C   UNL     1      26.140  47.141  51.004  1.00  0.00     0.166 A 
HETATM    2  N   UNL     1      25.779  45.897  51.513  1.00  0.00    -0.274 N 
HETATM    3  C   UNL     1      25.955  46.029  52.879  1.00  0.00     0.197 A 
HETATM    4  N   UNL     1      26.439  47.218  53.155  1.00  0.00    -0.122 NA
HETATM    5  N   UNL     1      26.565  47.910  51.986  1.00  0.00    -0.131 NA
ENDROOT
BRANCH   3   6
HETATM    6  S   UNL     1      25.729  44.751  54.019  1.00  0.00    -0.070 SA
BRANCH   6   7
HETATM    7  C   UNL     1      27.341  43.867  54.015  1.00  0.00     0.180 C 
BRANCH   7   8
HETATM    8  C   UNL     1      27.196  42.338  54.202  1.00  0.00     0.244 C 
HETATM    9  N   UNL     1      28.060  41.505  53.516  1.00  0.00    -0.278 N 
HETATM   10  C   UNL     1      28.504  41.710  52.237  1.00  0.00     0.320 C 
HETATM   11  H   UNL     1      27.914  40.536  53.746  1.00  0.00     0.173 HD
HETATM   12  N   UNL     1      29.215  40.662  51.742  1.00  0.00    -0.352 N 
HETATM   13  O   UNL     1      28.358  42.725  51.576  1.00  0.00    -0.247 OA
HETATM   14  H   UNL     1      29.127  39.718  52.085  1.00  0.00     0.160 HD
HETATM   15  H   UNL     1      29.533  40.767  50.784  1.00  0.00     0.160 HD
HETATM   16  O   UNL     1      26.317  41.794  54.885  1.00  0.00    -0.271 OA
ENDBRANCH   7   8
BRANCH   7  17
HETATM   17  C   UNL     1      28.350  44.549  54.930  1.00  0.00    -0.035 A 
HETATM   18  C   UNL     1      29.670  44.064  54.969  1.00  0.00     0.009 A 
HETATM   19  C   UNL     1      30.633  44.662  55.784  1.00  0.00     0.001 A 
HETATM   20  C   UNL     1      30.293  45.757  56.571  1.00  0.00     0.000 A 
HETATM   21  C   UNL     1      28.993  46.257  56.541  1.00  0.00     0.001 A 
HETATM   22  C   UNL     1      28.029  45.661  55.724  1.00  0.00     0.009 A 
ENDBRANCH   7  17
ENDBRANCH   6   7
ENDBRANCH   3   6
BRANCH   2  23
HETATM   23  C   UNL     1      25.272  44.794  50.779  1.00  0.00     0.043 A 
HETATM   24  C   UNL     1      23.919  44.440  50.899  1.00  0.00     0.033 A 
HETATM   25  C   UNL     1      23.426  43.342  50.191  1.00  0.00     0.044 A 
HETATM   26  C   UNL     1      24.277  42.610  49.371  1.00  0.00     0.116 A 
HETATM   27  F   UNL     1      23.799  41.556  48.700  1.00  0.00    -0.206 F 
HETATM   28  C   UNL     1      25.616  42.957  49.239  1.00  0.00     0.044 A 
HETATM   29  C   UNL     1      26.120  44.053  49.943  1.00  0.00     0.033 A 
ENDBRANCH   2  23
BRANCH   1  30
HETATM   30  C   UNL     1      25.923  47.612  49.600  1.00  0.00     0.255 C 
HETATM   31  C   UNL     1      27.127  48.410  49.092  1.00  0.00     0.049 C 
BRANCH  30  32
HETATM   32  N   UNL     1      24.639  48.442  49.394  1.00  0.00    -0.060 N 
HETATM   33  H   UNL     1      24.431  48.852  50.312  1.00  0.00     0.280 HD
HETATM   34  C   UNL     1      24.870  49.598  48.440  1.00  0.00     0.236 C 
HETATM   35  C   UNL     1      23.667  50.530  48.485  1.00  0.00     0.028 C 
HETATM   36  C   UNL     1      22.368  49.797  48.169  1.00  0.00     0.003 C 
HETATM   37  C   UNL     1      22.193  48.568  49.057  1.00  0.00     0.028 C 
HETATM   38  C   UNL     1      23.409  47.650  48.986  1.00  0.00     0.236 C 
ENDBRANCH  30  32
ENDBRANCH   1  30
TORSDOF 7
ENDMDL
MODEL 3
REMARK VINA RESULT:      -8.3      4.175      6.329
REMARK  7 active torsions:
REMARK  status: ('A' for Active; 'I' for Inactive)
REMARK    1  A    between atoms: C_2  and  N_3 
REMARK    2  A    between atoms: C_2  and  C_10 
REMARK    3  A    between atoms: N_11  and  C_12 
REMARK    4  A    between atoms: C_19  and  S_20 
REMARK    5  A    between atoms: S_20  and  C_21 
REMARK    6  A    between atoms: C_21  and  C_22 
REMARK    7  A    between atoms: C_21  and  C_28 
REMARK       I    between atoms: C_22  and  N_23 
REMARK       I    between atoms: N_23  and  C_24 
REMARK       I    between atoms: C_24  and  N_25 
ROOT
HETATM    1  C   UNL     1      25.822  46.997  51.503  1.00  0.00     0.166 A 
HETATM    2  N   UNL     1      25.882  45.756  52.131  1.00  0.00    -0.274 N 
HETATM    3  C   UNL     1      25.727  46.051  53.473  1.00  0.00     0.197 A 
HETATM    4  N   UNL     1      25.648  47.351  53.641  1.00  0.00    -0.122 NA
HETATM    5  N   UNL     1      25.718  47.944  52.414  1.00  0.00    -0.131 NA
ENDROOT
BRANCH   3   6
HETATM    6  S   UNL     1      25.801  44.881  54.743  1.00  0.00    -0.070 SA
BRANCH   6   7
HETATM    7  C   UNL     1      27.602  44.686  55.057  1.00  0.00     0.180 C 
BRANCH   7   8
HETATM    8  C   UNL     1      28.381  46.021  54.978  1.00  0.00     0.244 C 
HETATM    9  N   UNL     1      29.366  46.266  55.916  1.00  0.00    -0.278 N 
HETATM   10  C   UNL     1      29.299  45.922  57.240  1.00  0.00     0.320 C 
HETATM   11  H   UNL     1      29.844  47.135  55.746  1.00  0.00     0.173 HD
HETATM   12  N   UNL     1      30.328  46.418  57.976  1.00  0.00    -0.352 N 
HETATM   13  O   UNL     1      28.459  45.202  57.757  1.00  0.00    -0.247 OA
HETATM   14  H   UNL     1      30.864  47.228  57.708  1.00  0.00     0.160 HD
HETATM   15  H   UNL     1      30.292  46.210  58.969  1.00  0.00     0.160 HD
HETATM   16  O   UNL     1      28.148  46.923  54.162  1.00  0.00    -0.271 OA
ENDBRANCH   7   8
BRANCH   7  17
HETATM   17  C   UNL     1      28.185  43.535  54.248  1.00  0.00    -0.035 A 
HETATM   18  C   UNL     1      29.464  43.681  53.681  1.00  0.00     0.009 A 
HETATM   19  C   UNL     1      30.045  42.650  52.940  1.00  0.00     0.001 A 
HETATM   20  C   UNL     1      29.357  41.455  52.756  1.00  0.00     0.000 A 
HETATM   21  C   UNL     1      28.092  41.288  53.315  1.00  0.00     0.001 A 
HETATM   22  C   UNL     1      27.511  42.318  54.060  1.00  0.00     0.009 A 
ENDBRANCH   7  17
ENDBRANCH   6   7
ENDBRANCH   3   6
BRANCH   2  23
HETATM   23  C   UNL     1      25.994  44.491  51.499  1.00  0.00     0.043 A 
HETATM   24  C   UNL     1      27.177  44.153  50.823  1.00  0.00     0.033 A 
HETATM   25  C   UNL     1      27.278  42.915  50.184  1.00  0.00     0.044 A 
HETATM   26  C   UNL     1      26.209  42.027  50.225  1.00  0.00     0.116 A 
HETATM   27  F   UNL     1      26.311  40.845  49.606  1.00  0.00    -0.206 F 
HETATM   28  C   UNL     1      25.037  42.350  50.898  1.00  0.00     0.044 A 
HETATM   29  C   UNL     1      24.924  43.584  51.540  1.00  0.00     0.033 A 
ENDBRANCH   2  23
BRANCH   1  30
HETATM   30  C   UNL     1      25.713  47.232  50.029  1.00  0.00     0.255 C 
HETATM   31  C   UNL     1      27.026  47.774  49.457  1.00  0.00     0.049 C 
BRANCH  30  32
HETATM   32  N   UNL     1      24.554  48.162  49.613  1.00  0.00    -0.060 N 
HETATM   33  H   UNL     1      24.224  48.592  50.485  1.00  0.00     0.280 HD
HETATM   34  C   UNL     1      25.037  49.291  48.723  1.00  0.00     0.236 C 
HETATM   35  C   UNL     1      23.923  50.317  48.569  1.00  0.00     0.028 C 
HETATM   36  C   UNL     1      22.643  49.689  48.028  1.00  0.00     0.003 C 
HETATM   37  C   UNL     1      22.220  48.482  48.861  1.00  0.00     0.028 C 
HETATM   38  C   UNL     1      23.354  47.469  48.992  1.00  0.00     0.236 C 
ENDBRANCH  30  32
ENDBRANCH   1  30
TORSDOF 7
ENDMDL
MODEL 4
REMARK VINA RESULT:      -8.3      4.017      6.518
REMARK  7 active torsions:
REMARK  status: ('A' for Active; 'I' for Inactive)
REMARK    1  A    between atoms: C_2  and  N_3 
REMARK    2  A    between atoms: C_2  and  C_10 
REMARK    3  A    between atoms: N_11  and  C_12 
REMARK    4  A    between atoms: C_19  and  S_20 
REMARK    5  A    between atoms: S_20  and  C_21 
REMARK    6  A    between atoms: C_21  and  C_22 
REMARK    7  A    between atoms: C_21  and  C_28 
REMARK       I    between atoms: C_22  and  N_23 
REMARK       I    between atoms: N_23  and  C_24 
REMARK       I    between atoms: C_24  and  N_25 
ROOT
HETATM    1  C   UNL     1      23.141  47.609  49.158  1.00  0.00     0.166 A 
HETATM    2  N   UNL     1      23.991  46.516  49.292  1.00  0.00    -0.274 N 
HETATM    3  C   UNL     1      25.181  47.067  49.730  1.00  0.00     0.197 A 
HETATM    4  N   UNL     1      25.074  48.375  49.790  1.00  0.00    -0.122 NA
HETATM    5  N   UNL     1      23.806  48.716  49.423  1.00  0.00    -0.131 NA
ENDROOT
BRANCH   3   6
HETATM    6  S   UNL     1      26.634  46.169  49.991  1.00  0.00    -0.070 SA
BRANCH   6   7
HETATM    7  C   UNL     1      26.279  45.188  51.505  1.00  0.00     0.180 C 
BRANCH   7   8
HETATM    8  C   UNL     1      26.375  46.021  52.805  1.00  0.00     0.244 C 
HETATM    9  N   UNL     1      26.134  45.390  54.012  1.00  0.00    -0.278 N 
HETATM   10  C   UNL     1      25.180  44.430  54.223  1.00  0.00     0.320 C 
HETATM   11  H   UNL     1      26.271  46.006  54.796  1.00  0.00     0.173 HD
HETATM   12  N   UNL     1      25.042  44.091  55.532  1.00  0.00    -0.352 N 
HETATM   13  O   UNL     1      24.527  43.860  53.364  1.00  0.00    -0.247 OA
HETATM   14  H   UNL     1      25.306  44.695  56.294  1.00  0.00     0.160 HD
HETATM   15  H   UNL     1      24.321  43.405  55.729  1.00  0.00     0.160 HD
HETATM   16  O   UNL     1      26.601  47.239  52.845  1.00  0.00    -0.271 OA
ENDBRANCH   7   8
BRANCH   7  17
HETATM   17  C   UNL     1      27.048  43.874  51.507  1.00  0.00    -0.035 A 
HETATM   18  C   UNL     1      26.540  42.787  50.771  1.00  0.00     0.009 A 
HETATM   19  C   UNL     1      27.214  41.565  50.734  1.00  0.00     0.001 A 
HETATM   20  C   UNL     1      28.408  41.410  51.429  1.00  0.00     0.000 A 
HETATM   21  C   UNL     1      28.932  42.476  52.157  1.00  0.00     0.001 A 
HETATM   22  C   UNL     1      28.259  43.700  52.193  1.00  0.00     0.009 A 
ENDBRANCH   7  17
ENDBRANCH   6   7
ENDBRANCH   3   6
BRANCH   2  23
HETATM   23  C   UNL     1      23.655  45.151  49.096  1.00  0.00     0.043 A 
HETATM   24  C   UNL     1      23.767  44.584  47.816  1.00  0.00     0.033 A 
HETATM   25  C   UNL     1      23.417  43.247  47.620  1.00  0.00     0.044 A 
HETATM   26  C   UNL     1      22.963  42.487  48.692  1.00  0.00     0.116 A 
HETATM   27  F   UNL     1      22.624  41.208  48.496  1.00  0.00    -0.206 F 
HETATM   28  C   UNL     1      22.855  43.037  49.964  1.00  0.00     0.044 A 
HETATM   29  C   UNL     1      23.202  44.374  50.172  1.00  0.00     0.033 A 
ENDBRANCH   2  23
BRANCH   1  30
HETATM   30  C   UNL     1      21.664  47.551  48.925  1.00  0.00     0.255 C 
HETATM   31  C   UNL     1      21.341  47.501  47.429  1.00  0.00     0.049 C 
BRANCH  30  32
HETATM   32  N   UNL     1      20.866  48.698  49.580  1.00  0.00    -0.060 N 
HETATM   33  H   UNL     1      21.345  48.890  50.467  1.00  0.00     0.280 HD
HETATM   34  C   UNL     1      20.942  49.970  48.757  1.00  0.00     0.236 C 
HETATM   35  C   UNL     1      20.378  51.126  49.572  1.00  0.00     0.028 C 
HETATM   36  C   UNL     1      18.953  50.848  50.040  1.00  0.00     0.003 C 
HETATM   37  C   UNL     1      18.858  49.512  50.771  1.00  0.00     0.028 C 
HETATM   38  C   UNL     1      19.424  48.374  49.929  1.00  0.00     0.236 C 
ENDBRANCH  30  32
ENDBRANCH   1  30
TORSDOF 7
ENDMDL
MODEL 5
REMARK VINA RESULT:      -8.2     18.529     20.766
REMARK  7 active torsions:
REMARK  status: ('A' for Active; 'I' for Inactive)
REMARK    1  A    between atoms: C_2  and  N_3 
REMARK    2  A    between atoms: C_2  and  C_10 
REMARK    3  A    between atoms: N_11  and  C_12 
REMARK    4  A    between atoms: C_19  and  S_20 
REMARK    5  A    between atoms: S_20  and  C_21 
REMARK    6  A    between atoms: C_21  and  C_22 
REMARK    7  A    between atoms: C_21  and  C_28 
REMARK       I    between atoms: C_22  and  N_23 
REMARK       I    between atoms: N_23  and  C_24 
REMARK       I    between atoms: C_24  and  N_25 
ROOT
HETATM    1  C   UNL     1      39.129  47.372  64.945  1.00  0.00     0.166 A 
HETATM    2  N   UNL     1      39.401  46.041  64.644  1.00  0.00    -0.274 N 
HETATM    3  C   UNL     1      40.764  46.021  64.410  1.00  0.00     0.197 A 
HETATM    4  N   UNL     1      41.252  47.236  64.498  1.00  0.00    -0.122 NA
HETATM    5  N   UNL     1      40.232  48.083  64.820  1.00  0.00    -0.131 NA
ENDROOT
BRANCH   3   6
HETATM    6  S   UNL     1      41.646  44.622  63.911  1.00  0.00    -0.070 SA
BRANCH   6   7
HETATM    7  C   UNL     1      41.560  43.504  65.368  1.00  0.00     0.180 C 
BRANCH   7   8
HETATM    8  C   UNL     1      42.922  43.331  66.082  1.00  0.00     0.244 C 
HETATM    9  N   UNL     1      42.978  43.519  67.450  1.00  0.00    -0.278 N 
HETATM   10  C   UNL     1      42.282  44.472  68.145  1.00  0.00     0.320 C 
HETATM   11  H   UNL     1      43.895  43.334  67.822  1.00  0.00     0.173 HD
HETATM   12  N   UNL     1      42.637  44.548  69.454  1.00  0.00    -0.352 N 
HETATM   13  O   UNL     1      41.386  45.176  67.705  1.00  0.00    -0.247 OA
HETATM   14  H   UNL     1      43.528  44.239  69.808  1.00  0.00     0.160 HD
HETATM   15  H   UNL     1      42.164  45.267  69.992  1.00  0.00     0.160 HD
HETATM   16  O   UNL     1      43.992  43.088  65.506  1.00  0.00    -0.271 OA
ENDBRANCH   7   8
BRANCH   7  17
HETATM   17  C   UNL     1      40.824  42.213  65.034  1.00  0.00    -0.035 A 
HETATM   18  C   UNL     1      40.338  42.025  63.727  1.00  0.00     0.009 A 
HETATM   19  C   UNL     1      39.666  40.855  63.370  1.00  0.00     0.001 A 
HETATM   20  C   UNL     1      39.470  39.852  64.313  1.00  0.00     0.000 A 
HETATM   21  C   UNL     1      39.949  40.016  65.611  1.00  0.00     0.001 A 
HETATM   22  C   UNL     1      40.625  41.186  65.969  1.00  0.00     0.009 A 
ENDBRANCH   7  17
ENDBRANCH   6   7
ENDBRANCH   3   6
BRANCH   2  23
HETATM   23  C   UNL     1      38.479  44.962  64.663  1.00  0.00     0.043 A 
HETATM   24  C   UNL     1      38.169  44.332  65.879  1.00  0.00     0.033 A 
HETATM   25  C   UNL     1      37.278  43.258  65.893  1.00  0.00     0.044 A 
HETATM   26  C   UNL     1      36.703  42.821  64.705  1.00  0.00     0.116 A 
HETATM   27  F   UNL     1      35.853  41.788  64.726  1.00  0.00    -0.206 F 
HETATM   28  C   UNL     1      36.998  43.443  63.497  1.00  0.00     0.044 A 
HETATM   29  C   UNL     1      37.888  44.518  63.471  1.00  0.00     0.033 A 
ENDBRANCH   2  23
BRANCH   1  30
HETATM   30  C   UNL     1      37.843  47.905  65.493  1.00  0.00     0.255 C 
HETATM   31  C   UNL     1      36.856  48.234  64.369  1.00  0.00     0.049 C 
BRANCH  30  32
HETATM   32  N   UNL     1      37.998  49.135  66.411  1.00  0.00    -0.060 N 
HETATM   33  H   UNL     1      38.976  49.119  66.723  1.00  0.00     0.280 HD
HETATM   34  C   UNL     1      37.804  50.430  65.645  1.00  0.00     0.236 C 
HETATM   35  C   UNL     1      38.232  51.598  66.522  1.00  0.00     0.028 C 
HETATM   36  C   UNL     1      37.482  51.617  67.850  1.00  0.00     0.003 C 
HETATM   37  C   UNL     1      37.586  50.274  68.567  1.00  0.00     0.028 C 
HETATM   38  C   UNL     1      37.144  49.124  67.666  1.00  0.00     0.236 C 
ENDBRANCH  30  32
ENDBRANCH   1  30
TORSDOF 7
ENDMDL
MODEL 6
REMARK VINA RESULT:      -8.2      9.958     13.405
REMARK  7 active torsions:
REMARK  status: ('A' for Active; 'I' for Inactive)
REMARK    1  A    between atoms: C_2  and  N_3 
REMARK    2  A    between atoms: C_2  and  C_10 
REMARK    3  A    between atoms: N_11  and  C_12 
REMARK    4  A    between atoms: C_19  and  S_20 
REMARK    5  A    between atoms: S_20  and  C_21 
REMARK    6  A    between atoms: C_21  and  C_22 
REMARK    7  A    between atoms: C_21  and  C_28 
REMARK       I    between atoms: C_22  and  N_23 
REMARK       I    between atoms: N_23  and  C_24 
REMARK       I    between atoms: C_24  and  N_25 
ROOT
HETATM    1  C   UNL     1      16.654  52.429  48.105  1.00  0.00     0.166 A 
HETATM    2  N   UNL     1      17.075  51.285  47.434  1.00  0.00    -0.274 N 
HETATM    3  C   UNL     1      18.409  51.164  47.782  1.00  0.00     0.197 A 
HETATM    4  N   UNL     1      18.769  52.176  48.537  1.00  0.00    -0.122 NA
HETATM    5  N   UNL     1      17.679  52.973  48.731  1.00  0.00    -0.131 NA
ENDROOT
BRANCH   3   6
HETATM    6  S   UNL     1      19.469  49.947  47.166  1.00  0.00    -0.070 SA
BRANCH   6   7
HETATM    7  C   UNL     1      18.895  48.406  47.986  1.00  0.00     0.180 C 
BRANCH   7   8
HETATM    8  C   UNL     1      19.913  47.845  49.007  1.00  0.00     0.244 C 
HETATM    9  N   UNL     1      19.511  47.685  50.320  1.00  0.00    -0.278 N 
HETATM   10  C   UNL     1      18.692  48.543  51.004  1.00  0.00     0.320 C 
HETATM   11  H   UNL     1      20.230  47.269  50.889  1.00  0.00     0.173 HD
HETATM   12  N   UNL     1      18.582  48.241  52.325  1.00  0.00    -0.352 N 
HETATM   13  O   UNL     1      18.055  49.468  50.527  1.00  0.00    -0.247 OA
HETATM   14  H   UNL     1      19.274  47.713  52.834  1.00  0.00     0.160 HD
HETATM   15  H   UNL     1      18.008  48.876  52.869  1.00  0.00     0.160 HD
HETATM   16  O   UNL     1      21.095  47.577  48.747  1.00  0.00    -0.271 OA
ENDBRANCH   7   8
BRANCH   7  17
HETATM   17  C   UNL     1      18.360  47.403  46.972  1.00  0.00    -0.035 A 
HETATM   18  C   UNL     1      18.464  47.701  45.600  1.00  0.00     0.009 A 
HETATM   19  C   UNL     1      17.999  46.810  44.632  1.00  0.00     0.001 A 
HETATM   20  C   UNL     1      17.423  45.604  45.019  1.00  0.00     0.000 A 
HETATM   21  C   UNL     1      17.317  45.288  46.372  1.00  0.00     0.001 A 
HETATM   22  C   UNL     1      17.785  46.178  47.341  1.00  0.00     0.009 A 
ENDBRANCH   7  17
ENDBRANCH   6   7
ENDBRANCH   3   6
BRANCH   2  23
HETATM   23  C   UNL     1      16.272  50.419  46.648  1.00  0.00     0.043 A 
HETATM   24  C   UNL     1      16.267  50.552  45.250  1.00  0.00     0.033 A 
HETATM   25  C   UNL     1      15.461  49.712  44.480  1.00  0.00     0.044 A 
HETATM   26  C   UNL     1      14.672  48.750  45.101  1.00  0.00     0.116 A 
HETATM   27  F   UNL     1      13.897  47.953  44.356  1.00  0.00    -0.206 F 
HETATM   28  C   UNL     1      14.675  48.607  46.483  1.00  0.00     0.044 A 
HETATM   29  C   UNL     1      15.478  49.441  47.264  1.00  0.00     0.033 A 
ENDBRANCH   2  23
BRANCH   1  30
HETATM   30  C   UNL     1      15.238  52.890  48.253  1.00  0.00     0.255 C 
HETATM   31  C   UNL     1      14.676  53.387  46.918  1.00  0.00     0.049 C 
BRANCH  30  32
HETATM   32  N   UNL     1      15.027  53.976  49.330  1.00  0.00    -0.060 N 
HETATM   33  H   UNL     1      15.962  54.352  49.522  1.00  0.00     0.280 HD
HETATM   34  C   UNL     1      14.191  55.127  48.804  1.00  0.00     0.236 C 
HETATM   35  C   UNL     1      14.243  56.277  49.800  1.00  0.00     0.028 C 
HETATM   36  C   UNL     1      13.788  55.846  51.190  1.00  0.00     0.003 C 
HETATM   37  C   UNL     1      14.554  54.617  51.670  1.00  0.00     0.028 C 
HETATM   38  C   UNL     1      14.479  53.480  50.656  1.00  0.00     0.236 C 
ENDBRANCH  30  32
ENDBRANCH   1  30
TORSDOF 7
ENDMDL
MODEL 7
REMARK VINA RESULT:      -8.1     10.003     13.967
REMARK  7 active torsions:
REMARK  status: ('A' for Active; 'I' for Inactive)
REMARK    1  A    between atoms: C_2  and  N_3 
REMARK    2  A    between atoms: C_2  and  C_10 
REMARK    3  A    between atoms: N_11  and  C_12 
REMARK    4  A    between atoms: C_19  and  S_20 
REMARK    5  A    between atoms: S_20  and  C_21 
REMARK    6  A    between atoms: C_21  and  C_22 
REMARK    7  A    between atoms: C_21  and  C_28 
REMARK       I    between atoms: C_22  and  N_23 
REMARK       I    between atoms: N_23  and  C_24 
REMARK       I    between atoms: C_24  and  N_25 
ROOT
HETATM    1  C   UNL     1      15.828  52.292  46.653  1.00  0.00     0.166 A 
HETATM    2  N   UNL     1      16.318  52.431  47.949  1.00  0.00    -0.274 N 
HETATM    3  C   UNL     1      17.607  51.936  47.875  1.00  0.00     0.197 A 
HETATM    4  N   UNL     1      17.845  51.483  46.666  1.00  0.00    -0.122 NA
HETATM    5  N   UNL     1      16.732  51.694  45.904  1.00  0.00    -0.131 NA
ENDROOT
BRANCH   3   6
HETATM    6  S   UNL     1      18.673  51.788  49.227  1.00  0.00    -0.070 SA
BRANCH   6   7
HETATM    7  C   UNL     1      19.287  50.060  49.116  1.00  0.00     0.180 C 
BRANCH   7   8
HETATM    8  C   UNL     1      18.740  49.147  50.240  1.00  0.00     0.244 C 
HETATM    9  N   UNL     1      18.194  47.926  49.891  1.00  0.00    -0.278 N 
HETATM   10  C   UNL     1      17.428  47.693  48.781  1.00  0.00     0.320 C 
HETATM   11  H   UNL     1      17.915  47.391  50.697  1.00  0.00     0.173 HD
HETATM   12  N   UNL     1      16.884  46.447  48.756  1.00  0.00    -0.352 N 
HETATM   13  O   UNL     1      17.256  48.461  47.848  1.00  0.00    -0.247 OA
HETATM   14  H   UNL     1      16.731  45.891  49.582  1.00  0.00     0.160 HD
HETATM   15  H   UNL     1      16.284  46.251  47.962  1.00  0.00     0.160 HD
HETATM   16  O   UNL     1      18.703  49.456  51.440  1.00  0.00    -0.271 OA
ENDBRANCH   7   8
BRANCH   7  17
HETATM   17  C   UNL     1      20.795  50.019  48.911  1.00  0.00    -0.035 A 
HETATM   18  C   UNL     1      21.462  48.783  49.003  1.00  0.00     0.009 A 
HETATM   19  C   UNL     1      22.842  48.693  48.813  1.00  0.00     0.001 A 
HETATM   20  C   UNL     1      23.579  49.838  48.525  1.00  0.00     0.000 A 
HETATM   21  C   UNL     1      22.936  51.069  48.422  1.00  0.00     0.001 A 
HETATM   22  C   UNL     1      21.554  51.160  48.610  1.00  0.00     0.009 A 
ENDBRANCH   7  17
ENDBRANCH   6   7
ENDBRANCH   3   6
BRANCH   2  23
HETATM   23  C   UNL     1      15.648  53.026  49.049  1.00  0.00     0.043 A 
HETATM   24  C   UNL     1      15.858  54.383  49.341  1.00  0.00     0.033 A 
HETATM   25  C   UNL     1      15.214  54.961  50.437  1.00  0.00     0.044 A 
HETATM   26  C   UNL     1      14.369  54.191  51.228  1.00  0.00     0.116 A 
HETATM   27  F   UNL     1      13.759  54.750  52.280  1.00  0.00    -0.206 F 
HETATM   28  C   UNL     1      14.149  52.848  50.943  1.00  0.00     0.044 A 
HETATM   29  C   UNL     1      14.788  52.259  49.849  1.00  0.00     0.033 A 
ENDBRANCH   2  23
BRANCH   1  30
HETATM   30  C   UNL     1      14.554  52.877  46.128  1.00  0.00     0.255 C 
HETATM   31  C   UNL     1      13.863  51.916  45.157  1.00  0.00     0.049 C 
BRANCH  30  32
HETATM   32  N   UNL     1      14.714  54.256  45.452  1.00  0.00    -0.060 N 
HETATM   33  H   UNL     1      15.612  54.620  45.789  1.00  0.00     0.280 HD
HETATM   34  C   UNL     1      14.830  54.127  43.945  1.00  0.00     0.236 C 
HETATM   35  C   UNL     1      15.255  55.468  43.362  1.00  0.00     0.028 C 
HETATM   36  C   UNL     1      14.296  56.587  43.754  1.00  0.00     0.003 C 
HETATM   37  C   UNL     1      14.093  56.642  45.266  1.00  0.00     0.028 C 
HETATM   38  C   UNL     1      13.663  55.287  45.820  1.00  0.00     0.236 C 
ENDBRANCH  30  32
ENDBRANCH   1  30
TORSDOF 7
ENDMDL
MODEL 8
REMARK VINA RESULT:      -8.0      9.473     13.729
REMARK  7 active torsions:
REMARK  status: ('A' for Active; 'I' for Inactive)
REMARK    1  A    between atoms: C_2  and  N_3 
REMARK    2  A    between atoms: C_2  and  C_10 
REMARK    3  A    between atoms: N_11  and  C_12 
REMARK    4  A    between atoms: C_19  and  S_20 
REMARK    5  A    between atoms: S_20  and  C_21 
REMARK    6  A    between atoms: C_21  and  C_22 
REMARK    7  A    between atoms: C_21  and  C_28 
REMARK       I    between atoms: C_22  and  N_23 
REMARK       I    between atoms: N_23  and  C_24 
REMARK       I    between atoms: C_24  and  N_25 
ROOT
HETATM    1  C   UNL     1      15.879  49.292  45.662  1.00  0.00     0.166 A 
HETATM    2  N   UNL     1      16.914  50.216  45.543  1.00  0.00    -0.274 N 
HETATM    3  C   UNL     1      17.736  49.940  46.621  1.00  0.00     0.197 A 
HETATM    4  N   UNL     1      17.210  48.985  47.353  1.00  0.00    -0.122 NA
HETATM    5  N   UNL     1      16.046  48.586  46.763  1.00  0.00    -0.131 NA
ENDROOT
BRANCH   3   6
HETATM    6  S   UNL     1      19.153  50.843  47.021  1.00  0.00    -0.070 SA
BRANCH   6   7
HETATM    7  C   UNL     1      19.781  50.026  48.543  1.00  0.00     0.180 C 
BRANCH   7   8
HETATM    8  C   UNL     1      19.267  50.687  49.845  1.00  0.00     0.244 C 
HETATM    9  N   UNL     1      19.168  49.911  50.984  1.00  0.00    -0.278 N 
HETATM   10  C   UNL     1      18.764  48.603  51.016  1.00  0.00     0.320 C 
HETATM   11  H   UNL     1      18.873  50.447  51.784  1.00  0.00     0.173 HD
HETATM   12  N   UNL     1      18.601  48.122  52.276  1.00  0.00    -0.352 N 
HETATM   13  O   UNL     1      18.601  47.875  50.050  1.00  0.00    -0.247 OA
HETATM   14  H   UNL     1      18.424  48.709  53.077  1.00  0.00     0.160 HD
HETATM   15  H   UNL     1      18.270  47.165  52.337  1.00  0.00     0.160 HD
HETATM   16  O   UNL     1      18.880  51.861  49.931  1.00  0.00    -0.271 OA
ENDBRANCH   7   8
BRANCH   7  17
HETATM   17  C   UNL     1      21.285  49.798  48.470  1.00  0.00    -0.035 A 
HETATM   18  C   UNL     1      22.135  50.908  48.321  1.00  0.00     0.009 A 
HETATM   19  C   UNL     1      23.521  50.751  48.260  1.00  0.00     0.001 A 
HETATM   20  C   UNL     1      24.080  49.481  48.349  1.00  0.00     0.000 A 
HETATM   21  C   UNL     1      23.255  48.369  48.504  1.00  0.00     0.001 A 
HETATM   22  C   UNL     1      21.868  48.525  48.568  1.00  0.00     0.009 A 
ENDBRANCH   7  17
ENDBRANCH   6   7
ENDBRANCH   3   6
BRANCH   2  23
HETATM   23  C   UNL     1      17.094  51.156  44.497  1.00  0.00     0.043 A 
HETATM   24  C   UNL     1      17.823  50.794  43.353  1.00  0.00     0.033 A 
HETATM   25  C   UNL     1      18.017  51.727  42.333  1.00  0.00     0.044 A 
HETATM   26  C   UNL     1      17.486  53.006  42.456  1.00  0.00     0.116 A 
HETATM   27  F   UNL     1      17.680  53.897  41.477  1.00  0.00    -0.206 F 
HETATM   28  C   UNL     1      16.757  53.373  43.581  1.00  0.00     0.044 A 
HETATM   29  C   UNL     1      16.557  52.447  44.608  1.00  0.00     0.033 A 
ENDBRANCH   2  23
BRANCH   1  30
HETATM   30  C   UNL     1      14.833  49.007  44.631  1.00  0.00     0.255 C 
HETATM   31  C   UNL     1      13.587  49.869  44.854  1.00  0.00     0.049 C 
BRANCH  30  32
HETATM   32  N   UNL     1      14.415  47.524  44.536  1.00  0.00    -0.060 N 
HETATM   33  H   UNL     1      14.492  47.159  45.493  1.00  0.00     0.280 HD
HETATM   34  C   UNL     1      12.961  47.380  44.129  1.00  0.00     0.236 C 
HETATM   35  C   UNL     1      12.531  45.931  44.315  1.00  0.00     0.028 C 
HETATM   36  C   UNL     1      13.426  44.970  43.540  1.00  0.00     0.003 C 
HETATM   37  C   UNL     1      14.899  45.193  43.868  1.00  0.00     0.028 C 
HETATM   38  C   UNL     1      15.301  46.651  43.667  1.00  0.00     0.236 C 
ENDBRANCH  30  32
ENDBRANCH   1  30
TORSDOF 7
ENDMDL
MODEL 9
REMARK VINA RESULT:      -8.0      8.411     12.536
REMARK  7 active torsions:
REMARK  status: ('A' for Active; 'I' for Inactive)
REMARK    1  A    between atoms: C_2  and  N_3 
REMARK    2  A    between atoms: C_2  and  C_10 
REMARK    3  A    between atoms: N_11  and  C_12 
REMARK    4  A    between atoms: C_19  and  S_20 
REMARK    5  A    between atoms: S_20  and  C_21 
REMARK    6  A    between atoms: C_21  and  C_22 
REMARK    7  A    between atoms: C_21  and  C_28 
REMARK       I    between atoms: C_22  and  N_23 
REMARK       I    between atoms: N_23  and  C_24 
REMARK       I    between atoms: C_24  and  N_25 
ROOT
HETATM    1  C   UNL     1      18.321  44.839  46.017  1.00  0.00     0.166 A 
HETATM    2  N   UNL     1      17.752  46.045  46.413  1.00  0.00    -0.274 N 
HETATM    3  C   UNL     1      17.795  45.999  47.795  1.00  0.00     0.197 A 
HETATM    4  N   UNL     1      18.283  44.847  48.190  1.00  0.00    -0.122 NA
HETATM    5  N   UNL     1      18.602  44.116  47.083  1.00  0.00    -0.131 NA
ENDROOT
BRANCH   3   6
HETATM    6  S   UNL     1      17.141  47.217  48.831  1.00  0.00    -0.070 SA
BRANCH   6   7
HETATM    7  C   UNL     1      18.320  48.617  48.664  1.00  0.00     0.180 C 
BRANCH   7   8
HETATM    8  C   UNL     1      19.065  48.944  49.980  1.00  0.00     0.244 C 
HETATM    9  N   UNL     1      20.444  49.028  49.954  1.00  0.00    -0.278 N 
HETATM   10  C   UNL     1      21.270  48.219  49.219  1.00  0.00     0.320 C 
HETATM   11  H   UNL     1      20.826  49.294  50.846  1.00  0.00     0.173 HD
HETATM   12  N   UNL     1      22.588  48.406  49.494  1.00  0.00    -0.352 N 
HETATM   13  O   UNL     1      20.925  47.432  48.352  1.00  0.00    -0.247 OA
HETATM   14  H   UNL     1      22.926  48.790  50.363  1.00  0.00     0.160 HD
HETATM   15  H   UNL     1      23.227  47.799  48.991  1.00  0.00     0.160 HD
HETATM   16  O   UNL     1      18.516  49.084  51.083  1.00  0.00    -0.271 OA
ENDBRANCH   7   8
BRANCH   7  17
HETATM   17  C   UNL     1      17.675  49.804  47.961  1.00  0.00    -0.035 A 
HETATM   18  C   UNL     1      16.272  49.872  47.887  1.00  0.00     0.009 A 
HETATM   19  C   UNL     1      15.634  50.945  47.261  1.00  0.00     0.001 A 
HETATM   20  C   UNL     1      16.390  51.970  46.701  1.00  0.00     0.000 A 
HETATM   21  C   UNL     1      17.781  51.925  46.769  1.00  0.00     0.001 A 
HETATM   22  C   UNL     1      18.419  50.852  47.398  1.00  0.00     0.009 A 
ENDBRANCH   7  17
ENDBRANCH   6   7
ENDBRANCH   3   6
BRANCH   2  23
HETATM   23  C   UNL     1      17.313  47.095  45.565  1.00  0.00     0.043 A 
HETATM   24  C   UNL     1      18.252  47.978  45.008  1.00  0.00     0.033 A 
HETATM   25  C   UNL     1      17.817  49.023  44.190  1.00  0.00     0.044 A 
HETATM   26  C   UNL     1      16.460  49.180  43.932  1.00  0.00     0.116 A 
HETATM   27  F   UNL     1      16.051  50.187  43.152  1.00  0.00    -0.206 F 
HETATM   28  C   UNL     1      15.524  48.307  44.474  1.00  0.00     0.044 A 
HETATM   29  C   UNL     1      15.947  47.258  45.293  1.00  0.00     0.033 A 
ENDBRANCH   2  23
BRANCH   1  30
HETATM   30  C   UNL     1      18.722  44.472  44.623  1.00  0.00     0.255 C 
HETATM   31  C   UNL     1      18.696  42.955  44.420  1.00  0.00     0.049 C 
BRANCH  30  32
HETATM   32  N   UNL     1      20.097  45.020  44.186  1.00  0.00    -0.060 N 
HETATM   33  H   UNL     1      20.212  45.903  44.698  1.00  0.00     0.280 HD
HETATM   34  C   UNL     1      21.226  44.108  44.628  1.00  0.00     0.236 C 
HETATM   35  C   UNL     1      22.555  44.821  44.417  1.00  0.00     0.028 C 
HETATM   36  C   UNL     1      22.734  45.271  42.972  1.00  0.00     0.003 C 
HETATM   37  C   UNL     1      21.543  46.096  42.493  1.00  0.00     0.028 C 
HETATM   38  C   UNL     1      20.227  45.355  42.711  1.00  0.00     0.236 C 
ENDBRANCH  30  32
ENDBRANCH   1  30
TORSDOF 7
ENDMDL
MODEL 10
REMARK VINA RESULT:      -7.9     18.993     20.800
REMARK  7 active torsions:
REMARK  status: ('A' for Active; 'I' for Inactive)
REMARK    1  A    between atoms: C_2  and  N_3 
REMARK    2  A    between atoms: C_2  and  C_10 
REMARK    3  A    between atoms: N_11  and  C_12 
REMARK    4  A    between atoms: C_19  and  S_20 
REMARK    5  A    between atoms: S_20  and  C_21 
REMARK    6  A    between atoms: C_21  and  C_22 
REMARK    7  A    between atoms: C_21  and  C_28 
REMARK       I    between atoms: C_22  and  N_23 
REMARK       I    between atoms: N_23  and  C_24 
REMARK       I    between atoms: C_24  and  N_25 
ROOT
HETATM    1  C   UNL     1      39.272  47.969  66.289  1.00  0.00     0.166 A 
HETATM    2  N   UNL     1      39.337  46.578  66.307  1.00  0.00    -0.274 N 
HETATM    3  C   UNL     1      40.639  46.309  66.688  1.00  0.00     0.197 A 
HETATM    4  N   UNL     1      41.309  47.430  66.821  1.00  0.00    -0.122 NA
HETATM    5  N   UNL     1      40.461  48.467  66.561  1.00  0.00    -0.131 NA
ENDROOT
BRANCH   3   6
HETATM    6  S   UNL     1      41.312  44.722  66.801  1.00  0.00    -0.070 SA
BRANCH   6   7
HETATM    7  C   UNL     1      41.628  44.251  65.052  1.00  0.00     0.180 C 
BRANCH   7   8
HETATM    8  C   UNL     1      41.940  45.465  64.143  1.00  0.00     0.244 C 
HETATM    9  N   UNL     1      43.251  45.686  63.766  1.00  0.00    -0.278 N 
HETATM   10  C   UNL     1      44.345  45.496  64.568  1.00  0.00     0.320 C 
HETATM   11  H   UNL     1      43.339  46.467  63.138  1.00  0.00     0.173 HD
HETATM   12  N   UNL     1      45.503  45.939  64.009  1.00  0.00    -0.352 N 
HETATM   13  O   UNL     1      44.356  44.944  65.657  1.00  0.00    -0.247 OA
HETATM   14  H   UNL     1      45.539  46.644  63.290  1.00  0.00     0.160 HD
HETATM   15  H   UNL     1      46.329  45.843  64.590  1.00  0.00     0.160 HD
HETATM   16  O   UNL     1      41.101  46.296  63.769  1.00  0.00    -0.271 OA
ENDBRANCH   7   8
BRANCH   7  17
HETATM   17  C   UNL     1      40.560  43.298  64.533  1.00  0.00    -0.035 A 
HETATM   18  C   UNL     1      39.909  42.444  65.442  1.00  0.00     0.009 A 
HETATM   19  C   UNL     1      38.917  41.559  65.016  1.00  0.00     0.001 A 
HETATM   20  C   UNL     1      38.556  41.517  63.673  1.00  0.00     0.000 A 
HETATM   21  C   UNL     1      39.183  42.359  62.758  1.00  0.00     0.001 A 
HETATM   22  C   UNL     1      40.175  43.247  63.184  1.00  0.00     0.009 A 
ENDBRANCH   7  17
ENDBRANCH   6   7
ENDBRANCH   3   6
BRANCH   2  23
HETATM   23  C   UNL     1      38.269  45.676  66.066  1.00  0.00     0.043 A 
HETATM   24  C   UNL     1      37.790  45.498  64.759  1.00  0.00     0.033 A 
HETATM   25  C   UNL     1      36.726  44.625  64.526  1.00  0.00     0.044 A 
HETATM   26  C   UNL     1      36.150  43.937  65.588  1.00  0.00     0.116 A 
HETATM   27  F   UNL     1      35.127  43.106  65.359  1.00  0.00    -0.206 F 
HETATM   28  C   UNL     1      36.623  44.101  66.885  1.00  0.00     0.044 A 
HETATM   29  C   UNL     1      37.687  44.972  67.130  1.00  0.00     0.033 A 
ENDBRANCH   2  23
BRANCH   1  30
HETATM   30  C   UNL     1      38.027  48.788  66.157  1.00  0.00     0.255 C 
HETATM   31  C   UNL     1      37.731  49.114  64.690  1.00  0.00     0.049 C 
BRANCH  30  32
HETATM   32  N   UNL     1      38.030  50.095  66.978  1.00  0.00    -0.060 N 
HETATM   33  H   UNL     1      38.983  50.178  67.352  1.00  0.00     0.280 HD
HETATM   34  C   UNL     1      37.800  51.307  66.096  1.00  0.00     0.236 C 
HETATM   35  C   UNL     1      38.082  52.570  66.899  1.00  0.00     0.028 C 
HETATM   36  C   UNL     1      37.241  52.635  68.169  1.00  0.00     0.003 C 
HETATM   37  C   UNL     1      37.389  51.364  69.000  1.00  0.00     0.028 C 
HETATM   38  C   UNL     1      37.093  50.118  68.172  1.00  0.00     0.236 C 
ENDBRANCH  30  32
ENDBRANCH   1  30
TORSDOF 7
ENDMDL
