MODEL 1
REMARK VINA RESULT:     -10.9      0.000      0.000
REMARK  7 active torsions:
REMARK  status: ('A' for Active; 'I' for Inactive)
REMARK    1  A    between atoms: C_6  and  N_7 
REMARK       I    between atoms: N_7  and  C_8 
REMARK    2  A    between atoms: C_8  and  C_9 
REMARK    3  A    between atoms: C_9  and  N_10 
REMARK    4  A    between atoms: N_13  and  C_14 
REMARK    5  A    between atoms: C_14  and  C_15 
REMARK    6  A    between atoms: C_30  and  C_31 
REMARK       I    between atoms: C_31  and  N_32 
REMARK    7  A    between atoms: N_32  and  C_33 
ROOT
HETATM    1  N   UNL     1      24.137  45.144  50.465  1.00  0.00    -0.290 N 
HETATM    2  C   UNL     1      24.219  43.783  50.730  1.00  0.00     0.332 C 
HETATM    3  O   UNL     1      24.638  43.385  51.822  1.00  0.00    -0.246 OA
HETATM    4  N   UNL     1      23.778  42.920  49.742  1.00  0.00    -0.261 N 
HETATM    5  C   UNL     1      23.100  43.313  48.599  1.00  0.00     0.264 C 
HETATM    6  O   UNL     1      22.650  42.535  47.762  1.00  0.00    -0.267 OA
HETATM    7  C   UNL     1      22.901  44.759  48.409  1.00  0.00     0.059 A 
HETATM    8  C   UNL     1      23.433  45.652  49.341  1.00  0.00     0.056 A 
HETATM    9  C   UNL     1      22.192  45.217  47.289  1.00  0.00     0.020 A 
HETATM   10  C   UNL     1      21.988  46.581  47.102  1.00  0.00     0.018 A 
HETATM   11  C   UNL     1      22.486  47.490  48.038  1.00  0.00     0.034 A 
HETATM   12  C   UNL     1      23.223  47.027  49.139  1.00  0.00     0.048 A 
ENDROOT
BRANCH   1  13
HETATM   13  C   UNL     1      24.746  46.058  51.438  1.00  0.00     0.237 C 
BRANCH  13  14
HETATM   14  C   UNL     1      26.184  45.666  51.783  1.00  0.00     0.240 C 
HETATM   15  N   UNL     1      26.332  45.243  53.092  1.00  0.00    -0.325 N 
HETATM   16  H   UNL     1      25.457  44.974  53.536  1.00  0.00     0.169 HD
HETATM   17  O   UNL     1      27.041  45.649  50.903  1.00  0.00    -0.271 OA
BRANCH  15  18
HETATM   18  C   UNL     1      27.516  44.812  53.742  1.00  0.00     0.046 A 
HETATM   19  C   UNL     1      28.162  43.583  53.487  1.00  0.00    -0.034 A 
HETATM   20  C   UNL     1      29.305  43.236  54.237  1.00  0.00     0.015 A 
HETATM   21  C   UNL     1      27.755  42.600  52.423  1.00  0.00     0.050 C 
HETATM   22  C   UNL     1      29.851  44.097  55.188  1.00  0.00    -0.061 A 
HETATM   23  C   UNL     1      31.095  43.720  55.935  1.00  0.00     0.048 C 
HETATM   24  C   UNL     1      29.262  45.346  55.372  1.00  0.00     0.015 A 
HETATM   25  C   UNL     1      28.103  45.715  54.665  1.00  0.00    -0.034 A 
HETATM   26  C   UNL     1      27.515  47.075  54.953  1.00  0.00     0.050 C 
ENDBRANCH  15  18
ENDBRANCH  13  14
ENDBRANCH   1  13
BRANCH   4  27
HETATM   27  C   UNL     1      24.029  41.495  49.920  1.00  0.00     0.175 C 
BRANCH  27  28
HETATM   28  C   UNL     1      25.444  41.136  49.508  1.00  0.00    -0.037 A 
HETATM   29  C   UNL     1      26.138  40.113  50.176  1.00  0.00     0.048 A 
HETATM   30  C   UNL     1      27.400  39.783  49.731  1.00  0.00     0.105 A 
HETATM   31  C   UNL     1      27.984  40.424  48.665  1.00  0.00     0.105 A 
HETATM   32  O   UNL     1      28.198  38.812  50.253  1.00  0.00    -0.323 OA
HETATM   33  O   UNL     1      29.223  39.942  48.383  1.00  0.00    -0.323 OA
HETATM   34  C   UNL     1      27.339  41.434  47.985  1.00  0.00     0.040 A 
HETATM   35  C   UNL     1      29.348  38.913  49.388  1.00  0.00     0.352 A 
HETATM   36  C   UNL     1      26.055  41.788  48.410  1.00  0.00     0.012 A 
ENDBRANCH  27  28
ENDBRANCH   4  27
BRANCH  11  37
HETATM   37  C   UNL     1      22.218  48.940  47.827  1.00  0.00     0.252 C 
HETATM   38  N   UNL     1      20.906  49.345  47.973  1.00  0.00    -0.352 N 
HETATM   39  H   UNL     1      20.183  48.640  48.025  1.00  0.00     0.163 HD
HETATM   40  O   UNL     1      23.131  49.687  47.497  1.00  0.00    -0.268 OA
BRANCH  38  41
HETATM   41  C   UNL     1      20.486  50.698  47.622  1.00  0.00     0.084 C 
HETATM   42  C   UNL     1      19.068  50.697  47.034  1.00  0.00     0.025 C 
HETATM   43  C   UNL     1      18.002  50.386  48.084  1.00  0.00     0.002 C 
HETATM   44  C   UNL     1      18.098  51.332  49.277  1.00  0.00     0.000 C 
HETATM   45  C   UNL     1      19.497  51.343  49.885  1.00  0.00     0.002 C 
HETATM   46  C   UNL     1      20.575  51.627  48.839  1.00  0.00     0.025 C 
ENDBRANCH  38  41
ENDBRANCH  11  37
TORSDOF 7
ENDMDL
MODEL 2
REMARK VINA RESULT:     -10.7      2.694      8.141
REMARK  7 active torsions:
REMARK  status: ('A' for Active; 'I' for Inactive)
REMARK    1  A    between atoms: C_6  and  N_7 
REMARK       I    between atoms: N_7  and  C_8 
REMARK    2  A    between atoms: C_8  and  C_9 
REMARK    3  A    between atoms: C_9  and  N_10 
REMARK    4  A    between atoms: N_13  and  C_14 
REMARK    5  A    between atoms: C_14  and  C_15 
REMARK    6  A    between atoms: C_30  and  C_31 
REMARK       I    between atoms: C_31  and  N_32 
REMARK    7  A    between atoms: N_32  and  C_33 
ROOT
HETATM    1  N   UNL     1      24.279  43.280  49.936  1.00  0.00    -0.290 N 
HETATM    2  C   UNL     1      23.950  44.604  50.200  1.00  0.00     0.332 C 
HETATM    3  O   UNL     1      24.262  45.119  51.279  1.00  0.00    -0.246 OA
HETATM    4  N   UNL     1      23.308  45.307  49.197  1.00  0.00    -0.261 N 
HETATM    5  C   UNL     1      23.136  44.848  47.900  1.00  0.00     0.264 C 
HETATM    6  O   UNL     1      22.626  45.506  46.997  1.00  0.00    -0.267 OA
HETATM    7  C   UNL     1      23.621  43.489  47.606  1.00  0.00     0.059 A 
HETATM    8  C   UNL     1      24.175  42.723  48.633  1.00  0.00     0.056 A 
HETATM    9  C   UNL     1      23.506  42.982  46.304  1.00  0.00     0.020 A 
HETATM   10  C   UNL     1      23.970  41.703  46.010  1.00  0.00     0.018 A 
HETATM   11  C   UNL     1      24.554  40.930  47.016  1.00  0.00     0.034 A 
HETATM   12  C   UNL     1      24.636  41.432  48.325  1.00  0.00     0.048 A 
ENDROOT
BRANCH   1  13
HETATM   13  C   UNL     1      24.816  42.484  51.045  1.00  0.00     0.237 C 
BRANCH  13  14
HETATM   14  C   UNL     1      26.189  42.979  51.505  1.00  0.00     0.240 C 
HETATM   15  N   UNL     1      26.317  43.023  52.882  1.00  0.00    -0.325 N 
HETATM   16  H   UNL     1      25.627  42.463  53.375  1.00  0.00     0.169 HD
HETATM   17  O   UNL     1      27.071  43.189  50.676  1.00  0.00    -0.271 OA
BRANCH  15  18
HETATM   18  C   UNL     1      27.443  43.431  53.640  1.00  0.00     0.046 A 
HETATM   19  C   UNL     1      27.604  44.717  54.198  1.00  0.00    -0.034 A 
HETATM   20  C   UNL     1      28.795  45.027  54.886  1.00  0.00     0.015 A 
HETATM   21  C   UNL     1      26.568  45.808  54.162  1.00  0.00     0.050 C 
HETATM   22  C   UNL     1      29.800  44.080  55.082  1.00  0.00    -0.061 A 
HETATM   23  C   UNL     1      31.035  44.426  55.860  1.00  0.00     0.048 C 
HETATM   24  C   UNL     1      29.598  42.786  54.607  1.00  0.00     0.015 A 
HETATM   25  C   UNL     1      28.437  42.449  53.888  1.00  0.00    -0.034 A 
HETATM   26  C   UNL     1      28.318  41.031  53.383  1.00  0.00     0.050 C 
ENDBRANCH  15  18
ENDBRANCH  13  14
ENDBRANCH   1  13
BRANCH   4  27
HETATM   27  C   UNL     1      22.786  46.629  49.517  1.00  0.00     0.175 C 
BRANCH  27  28
HETATM   28  C   UNL     1      23.791  47.711  49.171  1.00  0.00    -0.037 A 
HETATM   29  C   UNL     1      25.122  47.609  49.613  1.00  0.00     0.048 A 
HETATM   30  C   UNL     1      26.014  48.586  49.227  1.00  0.00     0.105 A 
HETATM   31  C   UNL     1      25.634  49.641  48.432  1.00  0.00     0.105 A 
HETATM   32  O   UNL     1      27.334  48.631  49.553  1.00  0.00    -0.323 OA
HETATM   33  O   UNL     1      26.666  50.484  48.160  1.00  0.00    -0.323 OA
HETATM   34  C   UNL     1      24.340  49.779  47.980  1.00  0.00     0.040 A 
HETATM   35  C   UNL     1      27.742  49.831  48.866  1.00  0.00     0.352 A 
HETATM   36  C   UNL     1      23.413  48.801  48.351  1.00  0.00     0.012 A 
ENDBRANCH  27  28
ENDBRANCH   4  27
BRANCH  11  37
HETATM   37  C   UNL     1      25.073  39.581  46.659  1.00  0.00     0.252 C 
HETATM   38  N   UNL     1      25.676  38.870  47.678  1.00  0.00    -0.352 N 
HETATM   39  H   UNL     1      25.903  39.352  48.538  1.00  0.00     0.163 HD
HETATM   40  O   UNL     1      24.990  39.182  45.504  1.00  0.00    -0.268 OA
BRANCH  38  41
HETATM   41  C   UNL     1      26.377  37.617  47.417  1.00  0.00     0.084 C 
HETATM   42  C   UNL     1      27.816  37.880  46.950  1.00  0.00     0.025 C 
HETATM   43  C   UNL     1      28.704  38.415  48.073  1.00  0.00     0.002 C 
HETATM   44  C   UNL     1      28.683  37.496  49.290  1.00  0.00     0.000 C 
HETATM   45  C   UNL     1      27.264  37.226  49.779  1.00  0.00     0.002 C 
HETATM   46  C   UNL     1      26.358  36.715  48.657  1.00  0.00     0.025 C 
ENDBRANCH  38  41
ENDBRANCH  11  37
TORSDOF 7
ENDMDL
MODEL 3
REMARK VINA RESULT:     -10.6      2.256      9.583
REMARK  7 active torsions:
REMARK  status: ('A' for Active; 'I' for Inactive)
REMARK    1  A    between atoms: C_6  and  N_7 
REMARK       I    between atoms: N_7  and  C_8 
REMARK    2  A    between atoms: C_8  and  C_9 
REMARK    3  A    between atoms: C_9  and  N_10 
REMARK    4  A    between atoms: N_13  and  C_14 
REMARK    5  A    between atoms: C_14  and  C_15 
REMARK    6  A    between atoms: C_30  and  C_31 
REMARK       I    between atoms: C_31  and  N_32 
REMARK    7  A    between atoms: N_32  and  C_33 
ROOT
HETATM    1  N   UNL     1      23.074  45.286  49.313  1.00  0.00    -0.290 N 
HETATM    2  C   UNL     1      22.488  46.198  48.445  1.00  0.00     0.332 C 
HETATM    3  O   UNL     1      21.550  45.853  47.719  1.00  0.00    -0.246 OA
HETATM    4  N   UNL     1      22.974  47.494  48.469  1.00  0.00    -0.261 N 
HETATM    5  C   UNL     1      23.865  47.983  49.412  1.00  0.00     0.264 C 
HETATM    6  O   UNL     1      24.237  49.153  49.467  1.00  0.00    -0.267 OA
HETATM    7  C   UNL     1      24.366  47.026  50.412  1.00  0.00     0.059 A 
HETATM    8  C   UNL     1      23.969  45.690  50.339  1.00  0.00     0.056 A 
HETATM    9  C   UNL     1      25.242  47.470  51.412  1.00  0.00     0.020 A 
HETATM   10  C   UNL     1      25.715  46.578  52.371  1.00  0.00     0.018 A 
HETATM   11  C   UNL     1      25.309  45.242  52.335  1.00  0.00     0.034 A 
HETATM   12  C   UNL     1      24.457  44.799  51.310  1.00  0.00     0.048 A 
ENDROOT
BRANCH   1  13
HETATM   13  C   UNL     1      22.674  43.880  49.185  1.00  0.00     0.237 C 
BRANCH  13  14
HETATM   14  C   UNL     1      23.619  43.088  48.277  1.00  0.00     0.240 C 
HETATM   15  N   UNL     1      24.254  42.047  48.931  1.00  0.00    -0.325 N 
HETATM   16  H   UNL     1      23.802  41.775  49.800  1.00  0.00     0.169 HD
HETATM   17  O   UNL     1      23.668  43.342  47.076  1.00  0.00    -0.271 OA
BRANCH  15  18
HETATM   18  C   UNL     1      25.186  41.122  48.398  1.00  0.00     0.046 A 
HETATM   19  C   UNL     1      24.847  40.054  47.541  1.00  0.00    -0.034 A 
HETATM   20  C   UNL     1      25.853  39.161  47.119  1.00  0.00     0.015 A 
HETATM   21  C   UNL     1      23.472  39.799  46.983  1.00  0.00     0.050 C 
HETATM   22  C   UNL     1      27.190  39.334  47.479  1.00  0.00    -0.061 A 
HETATM   23  C   UNL     1      28.245  38.396  46.975  1.00  0.00     0.048 C 
HETATM   24  C   UNL     1      27.533  40.441  48.252  1.00  0.00     0.015 A 
HETATM   25  C   UNL     1      26.552  41.335  48.718  1.00  0.00    -0.034 A 
HETATM   26  C   UNL     1      27.012  42.488  49.577  1.00  0.00     0.050 C 
ENDBRANCH  15  18
ENDBRANCH  13  14
ENDBRANCH   1  13
BRANCH   4  27
HETATM   27  C   UNL     1      22.509  48.415  47.440  1.00  0.00     0.175 C 
BRANCH  27  28
HETATM   28  C   UNL     1      21.467  49.368  47.992  1.00  0.00    -0.037 A 
HETATM   29  C   UNL     1      20.270  48.871  48.534  1.00  0.00     0.048 A 
HETATM   30  C   UNL     1      19.376  49.771  49.076  1.00  0.00     0.105 A 
HETATM   31  C   UNL     1      19.629  51.121  49.094  1.00  0.00     0.105 A 
HETATM   32  O   UNL     1      18.184  49.458  49.651  1.00  0.00    -0.323 OA
HETATM   33  O   UNL     1      18.627  51.829  49.681  1.00  0.00    -0.323 OA
HETATM   34  C   UNL     1      20.789  51.649  48.571  1.00  0.00     0.040 A 
HETATM   35  C   UNL     1      17.719  50.767  50.040  1.00  0.00     0.352 A 
HETATM   36  C   UNL     1      21.717  50.761  48.019  1.00  0.00     0.012 A 
ENDBRANCH  27  28
ENDBRANCH   4  27
BRANCH  11  37
HETATM   37  C   UNL     1      25.805  44.324  53.396  1.00  0.00     0.252 C 
HETATM   38  N   UNL     1      27.076  43.814  53.217  1.00  0.00    -0.352 N 
HETATM   39  H   UNL     1      27.522  43.927  52.316  1.00  0.00     0.163 HD
HETATM   40  O   UNL     1      25.076  44.028  54.335  1.00  0.00    -0.268 OA
BRANCH  38  41
HETATM   41  C   UNL     1      27.606  42.771  54.090  1.00  0.00     0.084 C 
HETATM   42  C   UNL     1      28.043  41.544  53.278  1.00  0.00     0.025 C 
HETATM   43  C   UNL     1      29.297  41.813  52.446  1.00  0.00     0.002 C 
HETATM   44  C   UNL     1      30.441  42.332  53.311  1.00  0.00     0.000 C 
HETATM   45  C   UNL     1      30.034  43.558  54.122  1.00  0.00     0.002 C 
HETATM   46  C   UNL     1      28.764  43.310  54.938  1.00  0.00     0.025 C 
ENDBRANCH  38  41
ENDBRANCH  11  37
TORSDOF 7
ENDMDL
MODEL 4
REMARK VINA RESULT:     -10.4      2.316     10.066
REMARK  7 active torsions:
REMARK  status: ('A' for Active; 'I' for Inactive)
REMARK    1  A    between atoms: C_6  and  N_7 
REMARK       I    between atoms: N_7  and  C_8 
REMARK    2  A    between atoms: C_8  and  C_9 
REMARK    3  A    between atoms: C_9  and  N_10 
REMARK    4  A    between atoms: N_13  and  C_14 
REMARK    5  A    between atoms: C_14  and  C_15 
REMARK    6  A    between atoms: C_30  and  C_31 
REMARK       I    between atoms: C_31  and  N_32 
REMARK    7  A    between atoms: N_32  and  C_33 
ROOT
HETATM    1  N   UNL     1      22.804  46.121  48.968  1.00  0.00    -0.290 N 
HETATM    2  C   UNL     1      22.296  47.227  48.299  1.00  0.00     0.332 C 
HETATM    3  O   UNL     1      21.218  47.152  47.700  1.00  0.00    -0.246 OA
HETATM    4  N   UNL     1      23.028  48.400  48.373  1.00  0.00    -0.261 N 
HETATM    5  C   UNL     1      24.118  48.596  49.206  1.00  0.00     0.264 C 
HETATM    6  O   UNL     1      24.718  49.662  49.317  1.00  0.00    -0.267 OA
HETATM    7  C   UNL     1      24.552  47.445  50.015  1.00  0.00     0.059 A 
HETATM    8  C   UNL     1      23.893  46.223  49.874  1.00  0.00     0.056 A 
HETATM    9  C   UNL     1      25.628  47.592  50.902  1.00  0.00     0.020 A 
HETATM   10  C   UNL     1      26.042  46.514  51.680  1.00  0.00     0.018 A 
HETATM   11  C   UNL     1      25.379  45.290  51.577  1.00  0.00     0.034 A 
HETATM   12  C   UNL     1      24.324  45.141  50.662  1.00  0.00     0.048 A 
ENDROOT
BRANCH   1  13
HETATM   13  C   UNL     1      22.121  44.839  48.766  1.00  0.00     0.237 C 
BRANCH  13  14
HETATM   14  C   UNL     1      22.967  43.850  47.962  1.00  0.00     0.240 C 
HETATM   15  N   UNL     1      22.996  42.583  48.516  1.00  0.00    -0.325 N 
HETATM   16  H   UNL     1      22.246  42.410  49.181  1.00  0.00     0.169 HD
HETATM   17  O   UNL     1      23.448  44.192  46.884  1.00  0.00    -0.271 OA
BRANCH  15  18
HETATM   18  C   UNL     1      23.677  41.436  48.037  1.00  0.00     0.046 A 
HETATM   19  C   UNL     1      24.951  41.023  48.483  1.00  0.00    -0.034 A 
HETATM   20  C   UNL     1      25.557  39.895  47.892  1.00  0.00     0.015 A 
HETATM   21  C   UNL     1      25.726  41.671  49.599  1.00  0.00     0.050 C 
HETATM   22  C   UNL     1      24.910  39.139  46.915  1.00  0.00    -0.061 A 
HETATM   23  C   UNL     1      25.561  37.917  46.339  1.00  0.00     0.048 C 
HETATM   24  C   UNL     1      23.617  39.499  46.542  1.00  0.00     0.015 A 
HETATM   25  C   UNL     1      22.993  40.636  47.086  1.00  0.00    -0.034 A 
HETATM   26  C   UNL     1      21.603  40.968  46.600  1.00  0.00     0.050 C 
ENDBRANCH  15  18
ENDBRANCH  13  14
ENDBRANCH   1  13
BRANCH   4  27
HETATM   27  C   UNL     1      22.618  49.513  47.527  1.00  0.00     0.175 C 
BRANCH  27  28
HETATM   28  C   UNL     1      21.457  50.269  48.145  1.00  0.00    -0.037 A 
HETATM   29  C   UNL     1      20.324  50.580  47.374  1.00  0.00     0.048 A 
HETATM   30  C   UNL     1      19.270  51.218  47.992  1.00  0.00     0.105 A 
HETATM   31  C   UNL     1      19.305  51.551  49.324  1.00  0.00     0.105 A 
HETATM   32  O   UNL     1      18.100  51.577  47.398  1.00  0.00    -0.323 OA
HETATM   33  O   UNL     1      18.163  52.163  49.737  1.00  0.00    -0.323 OA
HETATM   34  C   UNL     1      20.397  51.266  50.114  1.00  0.00     0.040 A 
HETATM   35  C   UNL     1      17.400  52.166  48.513  1.00  0.00     0.352 A 
HETATM   36  C   UNL     1      21.481  50.615  49.517  1.00  0.00     0.012 A 
ENDBRANCH  27  28
ENDBRANCH   4  27
BRANCH  11  37
HETATM   37  C   UNL     1      25.824  44.169  52.450  1.00  0.00     0.252 C 
HETATM   38  N   UNL     1      27.110  43.710  52.246  1.00  0.00    -0.352 N 
HETATM   39  H   UNL     1      27.607  44.012  51.418  1.00  0.00     0.163 HD
HETATM   40  O   UNL     1      25.044  43.681  53.260  1.00  0.00    -0.268 OA
BRANCH  38  41
HETATM   41  C   UNL     1      27.602  42.508  52.911  1.00  0.00     0.084 C 
HETATM   42  C   UNL     1      28.953  42.071  52.328  1.00  0.00     0.025 C 
HETATM   43  C   UNL     1      30.086  43.026  52.703  1.00  0.00     0.002 C 
HETATM   44  C   UNL     1      30.179  43.219  54.213  1.00  0.00     0.000 C 
HETATM   45  C   UNL     1      28.850  43.662  54.816  1.00  0.00     0.002 C 
HETATM   46  C   UNL     1      27.703  42.728  54.426  1.00  0.00     0.025 C 
ENDBRANCH  38  41
ENDBRANCH  11  37
TORSDOF 7
ENDMDL
MODEL 5
REMARK VINA RESULT:     -10.1      2.292      3.149
REMARK  7 active torsions:
REMARK  status: ('A' for Active; 'I' for Inactive)
REMARK    1  A    between atoms: C_6  and  N_7 
REMARK       I    between atoms: N_7  and  C_8 
REMARK    2  A    between atoms: C_8  and  C_9 
REMARK    3  A    between atoms: C_9  and  N_10 
REMARK    4  A    between atoms: N_13  and  C_14 
REMARK    5  A    between atoms: C_14  and  C_15 
REMARK    6  A    between atoms: C_30  and  C_31 
REMARK       I    between atoms: C_31  and  N_32 
REMARK    7  A    between atoms: N_32  and  C_33 
ROOT
HETATM    1  N   UNL     1      25.306  43.644  49.322  1.00  0.00    -0.290 N 
HETATM    2  C   UNL     1      25.085  42.289  49.115  1.00  0.00     0.332 C 
HETATM    3  O   UNL     1      25.869  41.453  49.578  1.00  0.00    -0.246 OA
HETATM    4  N   UNL     1      23.946  41.935  48.415  1.00  0.00    -0.261 N 
HETATM    5  C   UNL     1      22.929  42.812  48.070  1.00  0.00     0.264 C 
HETATM    6  O   UNL     1      21.889  42.475  47.510  1.00  0.00    -0.267 OA
HETATM    7  C   UNL     1      23.123  44.226  48.427  1.00  0.00     0.059 A 
HETATM    8  C   UNL     1      24.314  44.621  49.038  1.00  0.00     0.056 A 
HETATM    9  C   UNL     1      22.114  45.156  48.135  1.00  0.00     0.020 A 
HETATM   10  C   UNL     1      22.280  46.495  48.476  1.00  0.00     0.018 A 
HETATM   11  C   UNL     1      23.452  46.907  49.114  1.00  0.00     0.034 A 
HETATM   12  C   UNL     1      24.471  45.977  49.374  1.00  0.00     0.048 A 
ENDROOT
BRANCH   1  13
HETATM   13  C   UNL     1      26.586  44.036  49.923  1.00  0.00     0.237 C 
BRANCH  13  14
HETATM   14  C   UNL     1      26.491  44.193  51.442  1.00  0.00     0.240 C 
HETATM   15  N   UNL     1      27.529  44.934  51.978  1.00  0.00    -0.325 N 
HETATM   16  H   UNL     1      28.022  45.501  51.292  1.00  0.00     0.169 HD
HETATM   17  O   UNL     1      25.504  43.770  52.039  1.00  0.00    -0.271 OA
BRANCH  15  18
HETATM   18  C   UNL     1      27.751  45.269  53.337  1.00  0.00     0.046 A 
HETATM   19  C   UNL     1      27.062  46.288  54.029  1.00  0.00    -0.034 A 
HETATM   20  C   UNL     1      27.409  46.570  55.366  1.00  0.00     0.015 A 
HETATM   21  C   UNL     1      25.924  47.095  53.465  1.00  0.00     0.050 C 
HETATM   22  C   UNL     1      28.378  45.833  56.047  1.00  0.00    -0.061 A 
HETATM   23  C   UNL     1      28.692  46.126  57.484  1.00  0.00     0.048 C 
HETATM   24  C   UNL     1      28.992  44.771  55.387  1.00  0.00     0.015 A 
HETATM   25  C   UNL     1      28.695  44.480  54.043  1.00  0.00    -0.034 A 
HETATM   26  C   UNL     1      29.433  43.331  53.400  1.00  0.00     0.050 C 
ENDBRANCH  15  18
ENDBRANCH  13  14
ENDBRANCH   1  13
BRANCH   4  27
HETATM   27  C   UNL     1      23.793  40.539  48.023  1.00  0.00     0.175 C 
BRANCH  27  28
HETATM   28  C   UNL     1      24.741  40.184  46.893  1.00  0.00    -0.037 A 
HETATM   29  C   UNL     1      24.795  40.981  45.737  1.00  0.00     0.048 A 
HETATM   30  C   UNL     1      25.711  40.652  44.761  1.00  0.00     0.105 A 
HETATM   31  C   UNL     1      26.557  39.578  44.893  1.00  0.00     0.105 A 
HETATM   32  O   UNL     1      25.902  41.323  43.593  1.00  0.00    -0.323 OA
HETATM   33  O   UNL     1      27.387  39.435  43.825  1.00  0.00    -0.323 OA
HETATM   34  C   UNL     1      26.535  38.771  46.009  1.00  0.00     0.040 A 
HETATM   35  C   UNL     1      26.972  40.551  43.009  1.00  0.00     0.352 A 
HETATM   36  C   UNL     1      25.620  39.081  47.019  1.00  0.00     0.012 A 
ENDBRANCH  27  28
ENDBRANCH   4  27
BRANCH  11  37
HETATM   37  C   UNL     1      23.581  48.340  49.498  1.00  0.00     0.252 C 
HETATM   38  N   UNL     1      22.402  49.050  49.611  1.00  0.00    -0.352 N 
HETATM   39  H   UNL     1      21.550  48.636  49.256  1.00  0.00     0.163 HD
HETATM   40  O   UNL     1      24.693  48.832  49.649  1.00  0.00    -0.268 OA
BRANCH  38  41
HETATM   41  C   UNL     1      22.403  50.496  49.807  1.00  0.00     0.084 C 
HETATM   42  C   UNL     1      22.267  51.232  48.466  1.00  0.00     0.025 C 
HETATM   43  C   UNL     1      20.873  51.079  47.857  1.00  0.00     0.002 C 
HETATM   44  C   UNL     1      19.785  51.515  48.833  1.00  0.00     0.000 C 
HETATM   45  C   UNL     1      19.893  50.791  50.171  1.00  0.00     0.002 C 
HETATM   46  C   UNL     1      21.292  50.914  50.778  1.00  0.00     0.025 C 
ENDBRANCH  38  41
ENDBRANCH  11  37
TORSDOF 7
ENDMDL
MODEL 6
REMARK VINA RESULT:      -9.8      9.944     13.534
REMARK  7 active torsions:
REMARK  status: ('A' for Active; 'I' for Inactive)
REMARK    1  A    between atoms: C_6  and  N_7 
REMARK       I    between atoms: N_7  and  C_8 
REMARK    2  A    between atoms: C_8  and  C_9 
REMARK    3  A    between atoms: C_9  and  N_10 
REMARK    4  A    between atoms: N_13  and  C_14 
REMARK    5  A    between atoms: C_14  and  C_15 
REMARK    6  A    between atoms: C_30  and  C_31 
REMARK       I    between atoms: C_31  and  N_32 
REMARK    7  A    between atoms: N_32  and  C_33 
ROOT
HETATM    1  N   UNL     1      28.801  47.333  39.073  1.00  0.00    -0.290 N 
HETATM    2  C   UNL     1      28.279  48.566  38.704  1.00  0.00     0.332 C 
HETATM    3  O   UNL     1      28.918  49.313  37.955  1.00  0.00    -0.246 OA
HETATM    4  N   UNL     1      27.018  48.885  39.176  1.00  0.00    -0.261 N 
HETATM    5  C   UNL     1      26.175  47.999  39.830  1.00  0.00     0.264 C 
HETATM    6  O   UNL     1      25.031  48.270  40.184  1.00  0.00    -0.267 OA
HETATM    7  C   UNL     1      26.701  46.648  40.086  1.00  0.00     0.059 A 
HETATM    8  C   UNL     1      28.010  46.341  39.713  1.00  0.00     0.056 A 
HETATM    9  C   UNL     1      25.883  45.697  40.713  1.00  0.00     0.020 A 
HETATM   10  C   UNL     1      26.364  44.413  40.952  1.00  0.00     0.018 A 
HETATM   11  C   UNL     1      27.661  44.075  40.560  1.00  0.00     0.034 A 
HETATM   12  C   UNL     1      28.485  45.042  39.963  1.00  0.00     0.048 A 
ENDROOT
BRANCH   1  13
HETATM   13  C   UNL     1      30.195  47.054  38.709  1.00  0.00     0.237 C 
BRANCH  13  14
HETATM   14  C   UNL     1      31.184  47.572  39.755  1.00  0.00     0.240 C 
HETATM   15  N   UNL     1      31.028  48.918  40.030  1.00  0.00    -0.325 N 
HETATM   16  H   UNL     1      30.128  49.293  39.741  1.00  0.00     0.169 HD
HETATM   17  O   UNL     1      31.934  46.786  40.329  1.00  0.00    -0.271 OA
BRANCH  15  18
HETATM   18  C   UNL     1      31.770  49.715  40.938  1.00  0.00     0.046 A 
HETATM   19  C   UNL     1      32.715  50.690  40.553  1.00  0.00    -0.034 A 
HETATM   20  C   UNL     1      33.436  51.383  41.547  1.00  0.00     0.015 A 
HETATM   21  C   UNL     1      32.999  51.101  39.133  1.00  0.00     0.050 C 
HETATM   22  C   UNL     1      33.203  51.174  42.906  1.00  0.00    -0.061 A 
HETATM   23  C   UNL     1      33.952  51.961  43.940  1.00  0.00     0.048 C 
HETATM   24  C   UNL     1      32.206  50.276  43.281  1.00  0.00     0.015 A 
HETATM   25  C   UNL     1      31.489  49.543  42.318  1.00  0.00    -0.034 A 
HETATM   26  C   UNL     1      30.450  48.568  42.817  1.00  0.00     0.050 C 
ENDBRANCH  15  18
ENDBRANCH  13  14
ENDBRANCH   1  13
BRANCH   4  27
HETATM   27  C   UNL     1      26.533  50.242  38.961  1.00  0.00     0.175 C 
BRANCH  27  28
HETATM   28  C   UNL     1      27.567  51.265  39.390  1.00  0.00    -0.037 A 
HETATM   29  C   UNL     1      28.029  51.291  40.717  1.00  0.00     0.048 A 
HETATM   30  C   UNL     1      29.010  52.201  41.048  1.00  0.00     0.105 A 
HETATM   31  C   UNL     1      29.536  53.069  40.122  1.00  0.00     0.105 A 
HETATM   32  O   UNL     1      29.575  52.349  42.277  1.00  0.00    -0.323 OA
HETATM   33  O   UNL     1      30.496  53.874  40.651  1.00  0.00    -0.323 OA
HETATM   34  C   UNL     1      29.109  53.078  38.812  1.00  0.00     0.040 A 
HETATM   35  C   UNL     1      30.522  53.404  42.015  1.00  0.00     0.352 A 
HETATM   36  C   UNL     1      28.118  52.163  38.445  1.00  0.00     0.012 A 
ENDBRANCH  27  28
ENDBRANCH   4  27
BRANCH  11  37
HETATM   37  C   UNL     1      28.131  42.682  40.798  1.00  0.00     0.252 C 
HETATM   38  N   UNL     1      27.764  42.112  42.001  1.00  0.00    -0.352 N 
HETATM   39  H   UNL     1      27.374  42.705  42.721  1.00  0.00     0.163 HD
HETATM   40  O   UNL     1      28.839  42.128  39.967  1.00  0.00    -0.268 OA
BRANCH  38  41
HETATM   41  C   UNL     1      28.306  40.825  42.427  1.00  0.00     0.084 C 
HETATM   42  C   UNL     1      28.875  40.913  43.850  1.00  0.00     0.025 C 
HETATM   43  C   UNL     1      27.781  41.068  44.907  1.00  0.00     0.002 C 
HETATM   44  C   UNL     1      26.741  39.958  44.802  1.00  0.00     0.000 C 
HETATM   45  C   UNL     1      26.153  39.856  43.398  1.00  0.00     0.002 C 
HETATM   46  C   UNL     1      27.239  39.728  42.330  1.00  0.00     0.025 C 
ENDBRANCH  38  41
ENDBRANCH  11  37
TORSDOF 7
ENDMDL
MODEL 7
REMARK VINA RESULT:      -9.8      2.979     11.224
REMARK  7 active torsions:
REMARK  status: ('A' for Active; 'I' for Inactive)
REMARK    1  A    between atoms: C_6  and  N_7 
REMARK       I    between atoms: N_7  and  C_8 
REMARK    2  A    between atoms: C_8  and  C_9 
REMARK    3  A    between atoms: C_9  and  N_10 
REMARK    4  A    between atoms: N_13  and  C_14 
REMARK    5  A    between atoms: C_14  and  C_15 
REMARK    6  A    between atoms: C_30  and  C_31 
REMARK       I    between atoms: C_31  and  N_32 
REMARK    7  A    between atoms: N_32  and  C_33 
ROOT
HETATM    1  N   UNL     1      22.441  46.371  48.681  1.00  0.00    -0.290 N 
HETATM    2  C   UNL     1      21.989  47.604  48.229  1.00  0.00     0.332 C 
HETATM    3  O   UNL     1      20.841  47.723  47.788  1.00  0.00    -0.246 OA
HETATM    4  N   UNL     1      22.861  48.673  48.334  1.00  0.00    -0.261 N 
HETATM    5  C   UNL     1      24.067  48.642  49.017  1.00  0.00     0.264 C 
HETATM    6  O   UNL     1      24.801  49.615  49.165  1.00  0.00    -0.267 OA
HETATM    7  C   UNL     1      24.459  47.354  49.611  1.00  0.00     0.059 A 
HETATM    8  C   UNL     1      23.644  46.236  49.424  1.00  0.00     0.056 A 
HETATM    9  C   UNL     1      25.652  47.267  50.344  1.00  0.00     0.020 A 
HETATM   10  C   UNL     1      26.030  46.058  50.920  1.00  0.00     0.018 A 
HETATM   11  C   UNL     1      25.215  44.934  50.770  1.00  0.00     0.034 A 
HETATM   12  C   UNL     1      24.040  45.020  50.007  1.00  0.00     0.048 A 
ENDROOT
BRANCH   1  13
HETATM   13  C   UNL     1      21.587  45.206  48.429  1.00  0.00     0.237 C 
BRANCH  13  14
HETATM   14  C   UNL     1      21.585  44.793  46.956  1.00  0.00     0.240 C 
HETATM   15  N   UNL     1      20.313  44.681  46.424  1.00  0.00    -0.325 N 
HETATM   16  H   UNL     1      19.599  45.157  46.970  1.00  0.00     0.169 HD
HETATM   17  O   UNL     1      22.648  44.699  46.346  1.00  0.00    -0.271 OA
BRANCH  15  18
HETATM   18  C   UNL     1      19.948  44.320  45.103  1.00  0.00     0.046 A 
HETATM   19  C   UNL     1      19.956  42.998  44.609  1.00  0.00    -0.034 A 
HETATM   20  C   UNL     1      19.627  42.765  43.257  1.00  0.00     0.015 A 
HETATM   21  C   UNL     1      20.249  41.772  45.430  1.00  0.00     0.050 C 
HETATM   22  C   UNL     1      19.239  43.798  42.405  1.00  0.00    -0.061 A 
HETATM   23  C   UNL     1      18.849  43.512  40.986  1.00  0.00     0.048 C 
HETATM   24  C   UNL     1      19.147  45.088  42.922  1.00  0.00     0.015 A 
HETATM   25  C   UNL     1      19.497  45.364  44.256  1.00  0.00    -0.034 A 
HETATM   26  C   UNL     1      19.397  46.797  44.720  1.00  0.00     0.050 C 
ENDBRANCH  15  18
ENDBRANCH  13  14
ENDBRANCH   1  13
BRANCH   4  27
HETATM   27  C   UNL     1      22.482  49.927  47.695  1.00  0.00     0.175 C 
BRANCH  27  28
HETATM   28  C   UNL     1      21.308  50.570  48.409  1.00  0.00    -0.037 A 
HETATM   29  C   UNL     1      20.176  50.979  47.684  1.00  0.00     0.048 A 
HETATM   30  C   UNL     1      19.110  51.506  48.382  1.00  0.00     0.105 A 
HETATM   31  C   UNL     1      19.134  51.640  49.749  1.00  0.00     0.105 A 
HETATM   32  O   UNL     1      17.939  51.935  47.839  1.00  0.00    -0.323 OA
HETATM   33  O   UNL     1      17.982  52.172  50.240  1.00  0.00    -0.323 OA
HETATM   34  C   UNL     1      20.225  51.254  50.496  1.00  0.00     0.040 A 
HETATM   35  C   UNL     1      17.226  52.347  49.023  1.00  0.00     0.352 A 
HETATM   36  C   UNL     1      21.320  50.711  49.817  1.00  0.00     0.012 A 
ENDBRANCH  27  28
ENDBRANCH   4  27
BRANCH  11  37
HETATM   37  C   UNL     1      25.632  43.665  51.429  1.00  0.00     0.252 C 
HETATM   38  N   UNL     1      26.692  43.755  52.309  1.00  0.00    -0.352 N 
HETATM   39  H   UNL     1      27.242  44.604  52.322  1.00  0.00     0.163 HD
HETATM   40  O   UNL     1      25.068  42.616  51.143  1.00  0.00    -0.268 OA
BRANCH  38  41
HETATM   41  C   UNL     1      27.306  42.561  52.883  1.00  0.00     0.084 C 
HETATM   42  C   UNL     1      28.621  42.222  52.167  1.00  0.00     0.025 C 
HETATM   43  C   UNL     1      29.729  43.228  52.478  1.00  0.00     0.002 C 
HETATM   44  C   UNL     1      29.946  43.374  53.981  1.00  0.00     0.000 C 
HETATM   45  C   UNL     1      28.654  43.720  54.714  1.00  0.00     0.002 C 
HETATM   46  C   UNL     1      27.530  42.736  54.390  1.00  0.00     0.025 C 
ENDBRANCH  38  41
ENDBRANCH  11  37
TORSDOF 7
ENDMDL
MODEL 8
REMARK VINA RESULT:      -9.8      1.908      2.639
REMARK  7 active torsions:
REMARK  status: ('A' for Active; 'I' for Inactive)
REMARK    1  A    between atoms: C_6  and  N_7 
REMARK       I    between atoms: N_7  and  C_8 
REMARK    2  A    between atoms: C_8  and  C_9 
REMARK    3  A    between atoms: C_9  and  N_10 
REMARK    4  A    between atoms: N_13  and  C_14 
REMARK    5  A    between atoms: C_14  and  C_15 
REMARK    6  A    between atoms: C_30  and  C_31 
REMARK       I    between atoms: C_31  and  N_32 
REMARK    7  A    between atoms: N_32  and  C_33 
ROOT
HETATM    1  N   UNL     1      25.791  44.061  50.551  1.00  0.00    -0.290 N 
HETATM    2  C   UNL     1      26.133  42.727  50.732  1.00  0.00     0.332 C 
HETATM    3  O   UNL     1      27.028  42.416  51.526  1.00  0.00    -0.246 OA
HETATM    4  N   UNL     1      25.407  41.787  50.023  1.00  0.00    -0.261 N 
HETATM    5  C   UNL     1      24.259  42.064  49.296  1.00  0.00     0.264 C 
HETATM    6  O   UNL     1      23.581  41.212  48.727  1.00  0.00    -0.267 OA
HETATM    7  C   UNL     1      23.835  43.472  49.235  1.00  0.00     0.059 A 
HETATM    8  C   UNL     1      24.615  44.449  49.855  1.00  0.00     0.056 A 
HETATM    9  C   UNL     1      22.663  43.810  48.544  1.00  0.00     0.020 A 
HETATM   10  C   UNL     1      22.245  45.136  48.487  1.00  0.00     0.018 A 
HETATM   11  C   UNL     1      22.994  46.127  49.125  1.00  0.00     0.034 A 
HETATM   12  C   UNL     1      24.184  45.785  49.787  1.00  0.00     0.048 A 
ENDROOT
BRANCH   1  13
HETATM   13  C   UNL     1      26.655  45.070  51.174  1.00  0.00     0.237 C 
BRANCH  13  14
HETATM   14  C   UNL     1      27.045  44.696  52.606  1.00  0.00     0.240 C 
HETATM   15  N   UNL     1      28.404  44.805  52.845  1.00  0.00    -0.325 N 
HETATM   16  H   UNL     1      28.893  45.378  52.163  1.00  0.00     0.169 HD
HETATM   17  O   UNL     1      26.171  44.444  53.432  1.00  0.00    -0.271 OA
BRANCH  15  18
HETATM   18  C   UNL     1      29.102  44.537  54.049  1.00  0.00     0.046 A 
HETATM   19  C   UNL     1      29.061  45.362  55.193  1.00  0.00    -0.034 A 
HETATM   20  C   UNL     1      29.844  45.024  56.316  1.00  0.00     0.015 A 
HETATM   21  C   UNL     1      28.194  46.583  55.344  1.00  0.00     0.050 C 
HETATM   22  C   UNL     1      30.619  43.866  56.352  1.00  0.00    -0.061 A 
HETATM   23  C   UNL     1      31.404  43.509  57.578  1.00  0.00     0.048 C 
HETATM   24  C   UNL     1      30.587  43.009  55.253  1.00  0.00     0.015 A 
HETATM   25  C   UNL     1      29.843  43.328  54.103  1.00  0.00    -0.034 A 
HETATM   26  C   UNL     1      29.893  42.357  52.949  1.00  0.00     0.050 C 
ENDBRANCH  15  18
ENDBRANCH  13  14
ENDBRANCH   1  13
BRANCH   4  27
HETATM   27  C   UNL     1      25.870  40.405  50.050  1.00  0.00     0.175 C 
BRANCH  27  28
HETATM   28  C   UNL     1      26.603  40.051  48.771  1.00  0.00    -0.037 A 
HETATM   29  C   UNL     1      26.314  38.851  48.098  1.00  0.00     0.048 A 
HETATM   30  C   UNL     1      26.965  38.597  46.909  1.00  0.00     0.105 A 
HETATM   31  C   UNL     1      27.875  39.479  46.379  1.00  0.00     0.105 A 
HETATM   32  O   UNL     1      26.792  37.497  46.129  1.00  0.00    -0.323 OA
HETATM   33  O   UNL     1      28.393  39.044  45.199  1.00  0.00    -0.323 OA
HETATM   34  C   UNL     1      28.188  40.664  47.008  1.00  0.00     0.040 A 
HETATM   35  C   UNL     1      27.694  37.791  45.042  1.00  0.00     0.352 A 
HETATM   36  C   UNL     1      27.541  40.952  48.213  1.00  0.00     0.012 A 
ENDBRANCH  27  28
ENDBRANCH   4  27
BRANCH  11  37
HETATM   37  C   UNL     1      22.499  47.530  49.075  1.00  0.00     0.252 C 
HETATM   38  N   UNL     1      21.134  47.700  49.197  1.00  0.00    -0.352 N 
HETATM   39  H   UNL     1      20.535  46.888  49.124  1.00  0.00     0.163 HD
HETATM   40  O   UNL     1      23.288  48.449  48.889  1.00  0.00    -0.268 OA
BRANCH  38  41
HETATM   41  C   UNL     1      20.510  49.003  48.988  1.00  0.00     0.084 C 
HETATM   42  C   UNL     1      20.060  49.170  47.530  1.00  0.00     0.025 C 
HETATM   43  C   UNL     1      18.867  48.280  47.183  1.00  0.00     0.002 C 
HETATM   44  C   UNL     1      17.703  48.505  48.143  1.00  0.00     0.000 C 
HETATM   45  C   UNL     1      18.122  48.336  49.599  1.00  0.00     0.002 C 
HETATM   46  C   UNL     1      19.333  49.202  49.951  1.00  0.00     0.025 C 
ENDBRANCH  38  41
ENDBRANCH  11  37
TORSDOF 7
ENDMDL
MODEL 9
REMARK VINA RESULT:      -9.7      3.099      7.066
REMARK  7 active torsions:
REMARK  status: ('A' for Active; 'I' for Inactive)
REMARK    1  A    between atoms: C_6  and  N_7 
REMARK       I    between atoms: N_7  and  C_8 
REMARK    2  A    between atoms: C_8  and  C_9 
REMARK    3  A    between atoms: C_9  and  N_10 
REMARK    4  A    between atoms: N_13  and  C_14 
REMARK    5  A    between atoms: C_14  and  C_15 
REMARK    6  A    between atoms: C_30  and  C_31 
REMARK       I    between atoms: C_31  and  N_32 
REMARK    7  A    between atoms: N_32  and  C_33 
ROOT
HETATM    1  N   UNL     1      23.131  44.313  47.547  1.00  0.00    -0.290 N 
HETATM    2  C   UNL     1      23.466  42.965  47.529  1.00  0.00     0.332 C 
HETATM    3  O   UNL     1      23.275  42.290  46.511  1.00  0.00    -0.246 OA
HETATM    4  N   UNL     1      24.048  42.443  48.670  1.00  0.00    -0.261 N 
HETATM    5  C   UNL     1      24.483  43.199  49.748  1.00  0.00     0.264 C 
HETATM    6  O   UNL     1      25.061  42.735  50.727  1.00  0.00    -0.267 OA
HETATM    7  C   UNL     1      24.242  44.650  49.682  1.00  0.00     0.059 A 
HETATM    8  C   UNL     1      23.560  45.181  48.586  1.00  0.00     0.056 A 
HETATM    9  C   UNL     1      24.690  45.472  50.726  1.00  0.00     0.020 A 
HETATM   10  C   UNL     1      24.478  46.846  50.671  1.00  0.00     0.018 A 
HETATM   11  C   UNL     1      23.824  47.403  49.570  1.00  0.00     0.034 A 
HETATM   12  C   UNL     1      23.350  46.570  48.545  1.00  0.00     0.048 A 
ENDROOT
BRANCH   1  13
HETATM   13  C   UNL     1      22.374  44.836  46.405  1.00  0.00     0.237 C 
BRANCH  13  14
HETATM   14  C   UNL     1      20.898  45.061  46.740  1.00  0.00     0.240 C 
HETATM   15  N   UNL     1      20.472  46.351  46.477  1.00  0.00    -0.325 N 
HETATM   16  H   UNL     1      21.084  46.862  45.847  1.00  0.00     0.169 HD
HETATM   17  O   UNL     1      20.201  44.114  47.096  1.00  0.00    -0.271 OA
BRANCH  15  18
HETATM   18  C   UNL     1      19.179  46.900  46.670  1.00  0.00     0.046 A 
HETATM   19  C   UNL     1      18.632  47.223  47.930  1.00  0.00    -0.034 A 
HETATM   20  C   UNL     1      17.311  47.711  48.004  1.00  0.00     0.015 A 
HETATM   21  C   UNL     1      19.369  47.134  49.239  1.00  0.00     0.050 C 
HETATM   22  C   UNL     1      16.544  47.937  46.861  1.00  0.00    -0.061 A 
HETATM   23  C   UNL     1      15.160  48.502  46.969  1.00  0.00     0.048 C 
HETATM   24  C   UNL     1      17.121  47.700  45.615  1.00  0.00     0.015 A 
HETATM   25  C   UNL     1      18.425  47.184  45.503  1.00  0.00    -0.034 A 
HETATM   26  C   UNL     1      18.956  46.928  44.113  1.00  0.00     0.050 C 
ENDBRANCH  15  18
ENDBRANCH  13  14
ENDBRANCH   1  13
BRANCH   4  27
HETATM   27  C   UNL     1      24.231  40.999  48.744  1.00  0.00     0.175 C 
BRANCH  27  28
HETATM   28  C   UNL     1      25.698  40.630  48.639  1.00  0.00    -0.037 A 
HETATM   29  C   UNL     1      26.254  39.683  49.516  1.00  0.00     0.048 A 
HETATM   30  C   UNL     1      27.577  39.336  49.348  1.00  0.00     0.105 A 
HETATM   31  C   UNL     1      28.351  39.890  48.357  1.00  0.00     0.105 A 
HETATM   32  O   UNL     1      28.263  38.431  50.097  1.00  0.00    -0.323 OA
HETATM   33  O   UNL     1      29.622  39.406  48.358  1.00  0.00    -0.323 OA
HETATM   34  C   UNL     1      27.845  40.822  47.478  1.00  0.00     0.040 A 
HETATM   35  C   UNL     1      29.555  38.474  49.458  1.00  0.00     0.352 A 
HETATM   36  C   UNL     1      26.504  41.191  47.620  1.00  0.00     0.012 A 
ENDBRANCH  27  28
ENDBRANCH   4  27
BRANCH  11  37
HETATM   37  C   UNL     1      23.647  48.881  49.527  1.00  0.00     0.252 C 
HETATM   38  N   UNL     1      22.368  49.349  49.756  1.00  0.00    -0.352 N 
HETATM   39  H   UNL     1      21.601  48.689  49.752  1.00  0.00     0.163 HD
HETATM   40  O   UNL     1      24.600  49.601  49.254  1.00  0.00    -0.268 OA
BRANCH  38  41
HETATM   41  C   UNL     1      22.030  50.756  49.567  1.00  0.00     0.084 C 
HETATM   42  C   UNL     1      21.787  51.069  48.084  1.00  0.00     0.025 C 
HETATM   43  C   UNL     1      20.492  50.445  47.562  1.00  0.00     0.002 C 
HETATM   44  C   UNL     1      19.292  50.854  48.411  1.00  0.00     0.000 C 
HETATM   45  C   UNL     1      19.506  50.545  49.889  1.00  0.00     0.002 C 
HETATM   46  C   UNL     1      20.812  51.141  50.416  1.00  0.00     0.025 C 
ENDBRANCH  38  41
ENDBRANCH  11  37
TORSDOF 7
ENDMDL
MODEL 10
REMARK VINA RESULT:      -9.7      4.098     10.691
REMARK  7 active torsions:
REMARK  status: ('A' for Active; 'I' for Inactive)
REMARK    1  A    between atoms: C_6  and  N_7 
REMARK       I    between atoms: N_7  and  C_8 
REMARK    2  A    between atoms: C_8  and  C_9 
REMARK    3  A    between atoms: C_9  and  N_10 
REMARK    4  A    between atoms: N_13  and  C_14 
REMARK    5  A    between atoms: C_14  and  C_15 
REMARK    6  A    between atoms: C_30  and  C_31 
REMARK       I    between atoms: C_31  and  N_32 
REMARK    7  A    between atoms: N_32  and  C_33 
ROOT
HETATM    1  N   UNL     1      19.577  47.673  48.633  1.00  0.00    -0.290 N 
HETATM    2  C   UNL     1      18.286  48.031  48.268  1.00  0.00     0.332 C 
HETATM    3  O   UNL     1      17.317  47.405  48.713  1.00  0.00    -0.246 OA
HETATM    4  N   UNL     1      18.146  49.125  47.433  1.00  0.00    -0.261 N 
HETATM    5  C   UNL     1      19.175  49.989  47.088  1.00  0.00     0.264 C 
HETATM    6  O   UNL     1      19.028  50.998  46.403  1.00  0.00    -0.267 OA
HETATM    7  C   UNL     1      20.515  49.665  47.605  1.00  0.00     0.059 A 
HETATM    8  C   UNL     1      20.695  48.506  48.360  1.00  0.00     0.056 A 
HETATM    9  C   UNL     1      21.589  50.519  47.318  1.00  0.00     0.020 A 
HETATM   10  C   UNL     1      22.859  50.231  47.809  1.00  0.00     0.018 A 
HETATM   11  C   UNL     1      23.057  49.092  48.592  1.00  0.00     0.034 A 
HETATM   12  C   UNL     1      21.984  48.224  48.847  1.00  0.00     0.048 A 
ENDROOT
BRANCH   1  13
HETATM   13  C   UNL     1      19.744  46.425  49.386  1.00  0.00     0.237 C 
BRANCH  13  14
HETATM   14  C   UNL     1      20.146  45.253  48.488  1.00  0.00     0.240 C 
HETATM   15  N   UNL     1      21.515  45.071  48.412  1.00  0.00    -0.325 N 
HETATM   16  H   UNL     1      22.030  45.525  49.163  1.00  0.00     0.169 HD
HETATM   17  O   UNL     1      19.280  44.526  48.009  1.00  0.00    -0.271 OA
BRANCH  15  18
HETATM   18  C   UNL     1      22.226  44.090  47.676  1.00  0.00     0.046 A 
HETATM   19  C   UNL     1      22.390  44.111  46.275  1.00  0.00    -0.034 A 
HETATM   20  C   UNL     1      23.070  43.048  45.644  1.00  0.00     0.015 A 
HETATM   21  C   UNL     1      21.932  45.222  45.369  1.00  0.00     0.050 C 
HETATM   22  C   UNL     1      23.635  42.001  46.371  1.00  0.00    -0.061 A 
HETATM   23  C   UNL     1      24.392  40.910  45.675  1.00  0.00     0.048 C 
HETATM   24  C   UNL     1      23.546  42.031  47.761  1.00  0.00     0.015 A 
HETATM   25  C   UNL     1      22.850  43.058  48.423  1.00  0.00    -0.034 A 
HETATM   26  C   UNL     1      22.778  42.992  49.930  1.00  0.00     0.050 C 
ENDBRANCH  15  18
ENDBRANCH  13  14
ENDBRANCH   1  13
BRANCH   4  27
HETATM   27  C   UNL     1      16.824  49.402  46.887  1.00  0.00     0.175 C 
BRANCH  27  28
HETATM   28  C   UNL     1      16.245  50.673  47.477  1.00  0.00    -0.037 A 
HETATM   29  C   UNL     1      15.636  51.627  46.644  1.00  0.00     0.048 A 
HETATM   30  C   UNL     1      15.074  52.741  47.230  1.00  0.00     0.105 A 
HETATM   31  C   UNL     1      15.098  52.935  48.590  1.00  0.00     0.105 A 
HETATM   32  O   UNL     1      14.436  53.748  46.574  1.00  0.00    -0.323 OA
HETATM   33  O   UNL     1      14.481  54.088  48.962  1.00  0.00    -0.323 OA
HETATM   34  C   UNL     1      15.687  52.025  49.441  1.00  0.00     0.040 A 
HETATM   35  C   UNL     1      14.056  54.593  47.679  1.00  0.00     0.352 A 
HETATM   36  C   UNL     1      16.261  50.883  48.877  1.00  0.00     0.012 A 
ENDBRANCH  27  28
ENDBRANCH   4  27
BRANCH  11  37
HETATM   37  C   UNL     1      24.421  48.833  49.131  1.00  0.00     0.252 C 
HETATM   38  N   UNL     1      24.592  47.645  49.814  1.00  0.00    -0.352 N 
HETATM   39  H   UNL     1      23.772  47.113  50.075  1.00  0.00     0.163 HD
HETATM   40  O   UNL     1      25.300  49.675  48.994  1.00  0.00    -0.268 OA
BRANCH  38  41
HETATM   41  C   UNL     1      25.826  47.356  50.538  1.00  0.00     0.084 C 
HETATM   42  C   UNL     1      25.524  46.795  51.935  1.00  0.00     0.025 C 
HETATM   43  C   UNL     1      24.947  45.381  51.882  1.00  0.00     0.002 C 
HETATM   44  C   UNL     1      25.852  44.436  51.097  1.00  0.00     0.000 C 
HETATM   45  C   UNL     1      26.159  44.968  49.701  1.00  0.00     0.002 C 
HETATM   46  C   UNL     1      26.712  46.393  49.739  1.00  0.00     0.025 C 
ENDBRANCH  38  41
ENDBRANCH  11  37
TORSDOF 7
ENDMDL
