MODEL 1
REMARK VINA RESULT:     -11.5      0.000      0.000
REMARK  7 active torsions:
REMARK  status: ('A' for Active; 'I' for Inactive)
REMARK    1  A    between atoms: C_2  and  O_3 
REMARK    2  A    between atoms: O_3  and  C_4 
REMARK    3  A    between atoms: C_5  and  C_6 
REMARK    4  A    between atoms: C_9  and  C_10 
REMARK       I    between atoms: C_10  and  N_11 
REMARK    5  A    between atoms: N_11  and  C_12 
REMARK    6  A    between atoms: C_25  and  C_26 
REMARK       I    between atoms: C_26  and  N_27 
REMARK    7  A    between atoms: N_27  and  C_28 
ROOT
HETATM    1  C   UNL     1      24.543  46.913  50.483  1.00  0.00     0.188 C 
HETATM    2  N   UNL     1      25.178  46.692  51.791  1.00  0.00    -0.239 N 
HETATM    3  C   UNL     1      25.749  45.504  52.181  1.00  0.00     0.142 C 
HETATM    4  C   UNL     1      26.291  45.740  53.430  1.00  0.00     0.097 C 
HETATM    5  C   UNL     1      25.851  47.053  53.747  1.00  0.00     0.160 C 
HETATM    6  N   UNL     1      25.160  47.632  52.762  1.00  0.00    -0.181 NA
HETATM    7  N   UNL     1      25.659  44.428  51.353  1.00  0.00    -0.343 N 
HETATM    8  C   UNL     1      24.873  44.446  50.191  1.00  0.00     0.021 C 
HETATM    9  C   UNL     1      24.678  43.109  49.517  1.00  0.00     0.069 C 
HETATM   10  C   UNL     1      24.322  45.603  49.744  1.00  0.00     0.061 C 
HETATM   11  H   UNL     1      25.811  43.488  51.720  1.00  0.00     0.167 HD
ENDROOT
BRANCH   4  12
HETATM   12  C   UNL     1      27.109  44.896  54.280  1.00  0.00     0.261 C 
HETATM   13  N   UNL     1      28.409  45.349  54.423  1.00  0.00    -0.323 N 
HETATM   14  H   UNL     1      28.624  46.214  53.942  1.00  0.00     0.169 HD
HETATM   15  O   UNL     1      26.620  43.925  54.842  1.00  0.00    -0.267 OA
BRANCH  13  16
HETATM   16  C   UNL     1      29.409  44.835  55.272  1.00  0.00     0.035 A 
HETATM   17  C   UNL     1      30.101  43.643  55.033  1.00  0.00     0.032 A 
HETATM   18  C   UNL     1      31.054  43.181  55.947  1.00  0.00     0.044 A 
HETATM   19  C   UNL     1      31.320  43.915  57.094  1.00  0.00     0.116 A 
HETATM   20  F   UNL     1      32.227  43.469  57.971  1.00  0.00    -0.206 F 
HETATM   21  C   UNL     1      30.651  45.106  57.345  1.00  0.00     0.044 A 
HETATM   22  C   UNL     1      29.696  45.566  56.434  1.00  0.00     0.032 A 
ENDBRANCH  13  16
ENDBRANCH   4  12
BRANCH   1  23
HETATM   23  C   UNL     1      25.327  47.978  49.705  1.00  0.00     0.005 A 
HETATM   24  C   UNL     1      24.708  49.005  48.962  1.00  0.00     0.077 A 
HETATM   25  C   UNL     1      25.496  49.959  48.305  1.00  0.00     0.037 A 
HETATM   26  C   UNL     1      26.888  49.887  48.356  1.00  0.00     0.003 A 
HETATM   27  C   UNL     1      27.508  48.865  49.063  1.00  0.00     0.001 A 
HETATM   28  C   UNL     1      26.736  47.918  49.731  1.00  0.00     0.012 A 
BRANCH  24  29
HETATM   29  O   UNL     1      23.340  49.022  48.956  1.00  0.00    -0.351 OA
BRANCH  29  30
HETATM   30  C   UNL     1      22.692  50.169  49.506  1.00  0.00     0.171 C 
HETATM   31  C   UNL     1      21.912  50.845  48.393  1.00  0.00     0.034 C 
ENDBRANCH  29  30
ENDBRANCH  24  29
ENDBRANCH   1  23
BRANCH  10  32
HETATM   32  C   UNL     1      23.240  45.585  48.712  1.00  0.00     0.256 C 
HETATM   33  N   UNL     1      22.137  46.345  49.031  1.00  0.00    -0.323 N 
HETATM   34  H   UNL     1      22.206  46.964  49.829  1.00  0.00     0.169 HD
HETATM   35  O   UNL     1      23.371  44.878  47.719  1.00  0.00    -0.267 OA
BRANCH  33  36
HETATM   36  C   UNL     1      20.868  46.314  48.411  1.00  0.00     0.035 A 
HETATM   37  C   UNL     1      19.962  45.259  48.528  1.00  0.00     0.029 A 
HETATM   38  C   UNL     1      18.705  45.332  47.920  1.00  0.00     0.002 A 
HETATM   39  C   UNL     1      18.339  46.464  47.195  1.00  0.00     0.000 A 
HETATM   40  C   UNL     1      19.236  47.521  47.068  1.00  0.00     0.002 A 
HETATM   41  C   UNL     1      20.496  47.444  47.667  1.00  0.00     0.029 A 
ENDBRANCH  33  36
ENDBRANCH  10  32
TORSDOF 7
ENDMDL
MODEL 2
REMARK VINA RESULT:     -10.3      4.139      9.151
REMARK  7 active torsions:
REMARK  status: ('A' for Active; 'I' for Inactive)
REMARK    1  A    between atoms: C_2  and  O_3 
REMARK    2  A    between atoms: O_3  and  C_4 
REMARK    3  A    between atoms: C_5  and  C_6 
REMARK    4  A    between atoms: C_9  and  C_10 
REMARK       I    between atoms: C_10  and  N_11 
REMARK    5  A    between atoms: N_11  and  C_12 
REMARK    6  A    between atoms: C_25  and  C_26 
REMARK       I    between atoms: C_26  and  N_27 
REMARK    7  A    between atoms: N_27  and  C_28 
ROOT
HETATM    1  C   UNL     1      25.977  45.570  50.673  1.00  0.00     0.188 C 
HETATM    2  N   UNL     1      25.487  46.805  50.043  1.00  0.00    -0.239 N 
HETATM    3  C   UNL     1      24.214  46.967  49.548  1.00  0.00     0.142 C 
HETATM    4  C   UNL     1      24.143  48.277  49.118  1.00  0.00     0.097 C 
HETATM    5  C   UNL     1      25.472  48.755  49.264  1.00  0.00     0.160 C 
HETATM    6  N   UNL     1      26.298  47.860  49.811  1.00  0.00    -0.181 NA
HETATM    7  N   UNL     1      23.365  45.904  49.557  1.00  0.00    -0.343 N 
HETATM    8  C   UNL     1      23.790  44.614  49.907  1.00  0.00     0.021 C 
HETATM    9  C   UNL     1      22.802  43.505  49.631  1.00  0.00     0.069 C 
HETATM   10  C   UNL     1      25.023  44.410  50.437  1.00  0.00     0.061 C 
HETATM   11  H   UNL     1      22.540  45.905  48.956  1.00  0.00     0.167 HD
ENDROOT
BRANCH   4  12
HETATM   12  C   UNL     1      23.021  49.046  48.612  1.00  0.00     0.261 C 
HETATM   13  N   UNL     1      22.082  49.357  49.579  1.00  0.00    -0.323 N 
HETATM   14  H   UNL     1      22.297  49.035  50.515  1.00  0.00     0.169 HD
HETATM   15  O   UNL     1      22.998  49.412  47.444  1.00  0.00    -0.267 OA
BRANCH  13  16
HETATM   16  C   UNL     1      20.954  50.191  49.445  1.00  0.00     0.035 A 
HETATM   17  C   UNL     1      20.915  51.330  48.634  1.00  0.00     0.032 A 
HETATM   18  C   UNL     1      19.767  52.128  48.586  1.00  0.00     0.044 A 
HETATM   19  C   UNL     1      18.656  51.781  49.341  1.00  0.00     0.116 A 
HETATM   20  F   UNL     1      17.561  52.548  49.299  1.00  0.00    -0.206 F 
HETATM   21  C   UNL     1      18.670  50.648  50.145  1.00  0.00     0.044 A 
HETATM   22  C   UNL     1      19.819  49.854  50.196  1.00  0.00     0.032 A 
ENDBRANCH  13  16
ENDBRANCH   4  12
BRANCH   1  23
HETATM   23  C   UNL     1      26.322  45.845  52.142  1.00  0.00     0.005 A 
HETATM   24  C   UNL     1      27.285  45.107  52.862  1.00  0.00     0.077 A 
HETATM   25  C   UNL     1      27.565  45.443  54.192  1.00  0.00     0.037 A 
HETATM   26  C   UNL     1      26.881  46.483  54.822  1.00  0.00     0.003 A 
HETATM   27  C   UNL     1      25.913  47.199  54.131  1.00  0.00     0.001 A 
HETATM   28  C   UNL     1      25.634  46.883  52.803  1.00  0.00     0.012 A 
BRANCH  24  29
HETATM   29  O   UNL     1      27.923  44.104  52.186  1.00  0.00    -0.351 OA
BRANCH  29  30
HETATM   30  C   UNL     1      28.409  42.999  52.947  1.00  0.00     0.171 C 
HETATM   31  C   UNL     1      29.913  42.924  52.759  1.00  0.00     0.034 C 
ENDBRANCH  29  30
ENDBRANCH  24  29
ENDBRANCH   1  23
BRANCH  10  32
HETATM   32  C   UNL     1      25.602  43.033  50.515  1.00  0.00     0.256 C 
HETATM   33  N   UNL     1      26.695  42.829  49.702  1.00  0.00    -0.323 N 
HETATM   34  H   UNL     1      27.107  43.638  49.256  1.00  0.00     0.169 HD
HETATM   35  O   UNL     1      25.056  42.193  51.222  1.00  0.00    -0.267 OA
BRANCH  33  36
HETATM   36  C   UNL     1      27.280  41.593  49.350  1.00  0.00     0.035 A 
HETATM   37  C   UNL     1      27.937  40.751  50.248  1.00  0.00     0.029 A 
HETATM   38  C   UNL     1      28.446  39.519  49.825  1.00  0.00     0.002 A 
HETATM   39  C   UNL     1      28.298  39.115  48.500  1.00  0.00     0.000 A 
HETATM   40  C   UNL     1      27.649  39.949  47.593  1.00  0.00     0.002 A 
HETATM   41  C   UNL     1      27.149  41.184  48.014  1.00  0.00     0.029 A 
ENDBRANCH  33  36
ENDBRANCH  10  32
TORSDOF 7
ENDMDL
MODEL 3
REMARK VINA RESULT:      -9.9      4.265      9.349
REMARK  7 active torsions:
REMARK  status: ('A' for Active; 'I' for Inactive)
REMARK    1  A    between atoms: C_2  and  O_3 
REMARK    2  A    between atoms: O_3  and  C_4 
REMARK    3  A    between atoms: C_5  and  C_6 
REMARK    4  A    between atoms: C_9  and  C_10 
REMARK       I    between atoms: C_10  and  N_11 
REMARK    5  A    between atoms: N_11  and  C_12 
REMARK    6  A    between atoms: C_25  and  C_26 
REMARK       I    between atoms: C_26  and  N_27 
REMARK    7  A    between atoms: N_27  and  C_28 
ROOT
HETATM    1  C   UNL     1      26.116  44.183  50.709  1.00  0.00     0.188 C 
HETATM    2  N   UNL     1      25.516  45.432  50.216  1.00  0.00    -0.239 N 
HETATM    3  C   UNL     1      24.311  45.504  49.560  1.00  0.00     0.142 C 
HETATM    4  C   UNL     1      24.082  46.848  49.340  1.00  0.00     0.097 C 
HETATM    5  C   UNL     1      25.285  47.470  49.768  1.00  0.00     0.160 C 
HETATM    6  N   UNL     1      26.168  46.614  50.287  1.00  0.00    -0.181 NA
HETATM    7  N   UNL     1      23.653  44.350  49.265  1.00  0.00    -0.343 N 
HETATM    8  C   UNL     1      24.234  43.089  49.467  1.00  0.00     0.021 C 
HETATM    9  C   UNL     1      23.485  41.923  48.865  1.00  0.00     0.069 C 
HETATM   10  C   UNL     1      25.403  42.964  50.144  1.00  0.00     0.061 C 
HETATM   11  H   UNL     1      22.924  44.346  48.550  1.00  0.00     0.167 HD
ENDROOT
BRANCH   4  12
HETATM   12  C   UNL     1      22.926  47.533  48.795  1.00  0.00     0.261 C 
HETATM   13  N   UNL     1      22.463  48.561  49.596  1.00  0.00    -0.323 N 
HETATM   14  H   UNL     1      22.991  48.724  50.444  1.00  0.00     0.169 HD
HETATM   15  O   UNL     1      22.488  47.228  47.693  1.00  0.00    -0.267 OA
BRANCH  13  16
HETATM   16  C   UNL     1      21.448  49.493  49.298  1.00  0.00     0.035 A 
HETATM   17  C   UNL     1      21.687  50.766  48.770  1.00  0.00     0.032 A 
HETATM   18  C   UNL     1      20.626  51.648  48.539  1.00  0.00     0.044 A 
HETATM   19  C   UNL     1      19.328  51.253  48.827  1.00  0.00     0.116 A 
HETATM   20  F   UNL     1      18.314  52.100  48.612  1.00  0.00    -0.206 F 
HETATM   21  C   UNL     1      19.068  49.990  49.343  1.00  0.00     0.044 A 
HETATM   22  C   UNL     1      20.129  49.111  49.578  1.00  0.00     0.032 A 
ENDBRANCH  13  16
ENDBRANCH   4  12
BRANCH   1  23
HETATM   23  C   UNL     1      26.216  44.230  52.239  1.00  0.00     0.005 A 
HETATM   24  C   UNL     1      27.424  44.035  52.941  1.00  0.00     0.077 A 
HETATM   25  C   UNL     1      27.438  44.127  54.338  1.00  0.00     0.037 A 
HETATM   26  C   UNL     1      26.262  44.382  55.046  1.00  0.00     0.003 A 
HETATM   27  C   UNL     1      25.062  44.548  54.366  1.00  0.00     0.001 A 
HETATM   28  C   UNL     1      25.038  44.472  52.976  1.00  0.00     0.012 A 
BRANCH  24  29
HETATM   29  O   UNL     1      28.541  43.795  52.190  1.00  0.00    -0.351 OA
BRANCH  29  30
HETATM   30  C   UNL     1      29.170  42.521  52.328  1.00  0.00     0.171 C 
HETATM   31  C   UNL     1      30.391  42.695  53.213  1.00  0.00     0.034 C 
ENDBRANCH  29  30
ENDBRANCH  24  29
ENDBRANCH   1  23
BRANCH  10  32
HETATM   32  C   UNL     1      26.185  41.690  50.090  1.00  0.00     0.256 C 
HETATM   33  N   UNL     1      26.998  41.568  48.986  1.00  0.00    -0.323 N 
HETATM   34  H   UNL     1      27.127  42.385  48.403  1.00  0.00     0.169 HD
HETATM   35  O   UNL     1      26.014  40.845  50.963  1.00  0.00    -0.267 OA
BRANCH  33  36
HETATM   36  C   UNL     1      27.634  40.398  48.516  1.00  0.00     0.035 A 
HETATM   37  C   UNL     1      28.713  39.781  49.152  1.00  0.00     0.029 A 
HETATM   38  C   UNL     1      29.252  38.595  48.645  1.00  0.00     0.002 A 
HETATM   39  C   UNL     1      28.713  38.010  47.501  1.00  0.00     0.000 A 
HETATM   40  C   UNL     1      27.640  38.618  46.856  1.00  0.00     0.002 A 
HETATM   41  C   UNL     1      27.108  39.809  47.357  1.00  0.00     0.029 A 
ENDBRANCH  33  36
ENDBRANCH  10  32
TORSDOF 7
ENDMDL
MODEL 4
REMARK VINA RESULT:      -9.2      5.581      9.773
REMARK  7 active torsions:
REMARK  status: ('A' for Active; 'I' for Inactive)
REMARK    1  A    between atoms: C_2  and  O_3 
REMARK    2  A    between atoms: O_3  and  C_4 
REMARK    3  A    between atoms: C_5  and  C_6 
REMARK    4  A    between atoms: C_9  and  C_10 
REMARK       I    between atoms: C_10  and  N_11 
REMARK    5  A    between atoms: N_11  and  C_12 
REMARK    6  A    between atoms: C_25  and  C_26 
REMARK       I    between atoms: C_26  and  N_27 
REMARK    7  A    between atoms: N_27  and  C_28 
ROOT
HETATM    1  C   UNL     1      27.011  42.777  50.685  1.00  0.00     0.188 C 
HETATM    2  N   UNL     1      27.407  41.790  49.670  1.00  0.00    -0.239 N 
HETATM    3  C   UNL     1      27.780  40.498  49.953  1.00  0.00     0.142 C 
HETATM    4  C   UNL     1      27.997  39.893  48.731  1.00  0.00     0.097 C 
HETATM    5  C   UNL     1      27.872  40.957  47.799  1.00  0.00     0.160 C 
HETATM    6  N   UNL     1      27.530  42.117  48.364  1.00  0.00    -0.181 NA
HETATM    7  N   UNL     1      27.875  40.111  51.255  1.00  0.00    -0.343 N 
HETATM    8  C   UNL     1      27.758  41.024  52.313  1.00  0.00     0.021 C 
HETATM    9  C   UNL     1      28.131  40.492  53.676  1.00  0.00     0.069 C 
HETATM   10  C   UNL     1      27.354  42.300  52.088  1.00  0.00     0.061 C 
HETATM   11  H   UNL     1      28.409  39.277  51.501  1.00  0.00     0.167 HD
ENDROOT
BRANCH   4  12
HETATM   12  C   UNL     1      28.298  38.513  48.399  1.00  0.00     0.261 C 
HETATM   13  N   UNL     1      27.974  38.173  47.098  1.00  0.00    -0.323 N 
HETATM   14  H   UNL     1      27.592  38.922  46.534  1.00  0.00     0.169 HD
HETATM   15  O   UNL     1      28.847  37.786  49.217  1.00  0.00    -0.267 OA
BRANCH  13  16
HETATM   16  C   UNL     1      28.253  36.963  46.431  1.00  0.00     0.035 A 
HETATM   17  C   UNL     1      29.371  36.760  45.615  1.00  0.00     0.032 A 
HETATM   18  C   UNL     1      29.556  35.541  44.955  1.00  0.00     0.044 A 
HETATM   19  C   UNL     1      28.627  34.523  45.120  1.00  0.00     0.116 A 
HETATM   20  F   UNL     1      28.802  33.358  44.483  1.00  0.00    -0.206 F 
HETATM   21  C   UNL     1      27.516  34.700  45.933  1.00  0.00     0.044 A 
HETATM   22  C   UNL     1      27.329  35.921  46.588  1.00  0.00     0.032 A 
ENDBRANCH  13  16
ENDBRANCH   4  12
BRANCH   1  23
HETATM   23  C   UNL     1      25.545  43.175  50.471  1.00  0.00     0.005 A 
HETATM   24  C   UNL     1      25.093  44.511  50.501  1.00  0.00     0.077 A 
HETATM   25  C   UNL     1      23.742  44.793  50.262  1.00  0.00     0.037 A 
HETATM   26  C   UNL     1      22.832  43.762  50.023  1.00  0.00     0.003 A 
HETATM   27  C   UNL     1      23.261  42.441  50.018  1.00  0.00     0.001 A 
HETATM   28  C   UNL     1      24.605  42.149  50.241  1.00  0.00     0.012 A 
BRANCH  24  29
HETATM   29  O   UNL     1      26.035  45.474  50.734  1.00  0.00    -0.351 OA
BRANCH  29  30
HETATM   30  C   UNL     1      25.574  46.784  51.061  1.00  0.00     0.171 C 
HETATM   31  C   UNL     1      25.919  47.055  52.514  1.00  0.00     0.034 C 
ENDBRANCH  29  30
ENDBRANCH  24  29
ENDBRANCH   1  23
BRANCH  10  32
HETATM   32  C   UNL     1      27.530  43.353  53.135  1.00  0.00     0.256 C 
HETATM   33  N   UNL     1      28.842  43.621  53.456  1.00  0.00    -0.323 N 
HETATM   34  H   UNL     1      29.562  43.222  52.869  1.00  0.00     0.169 HD
HETATM   35  O   UNL     1      26.538  43.847  53.660  1.00  0.00    -0.267 OA
BRANCH  33  36
HETATM   36  C   UNL     1      29.319  44.343  54.573  1.00  0.00     0.035 A 
HETATM   37  C   UNL     1      28.760  45.536  55.033  1.00  0.00     0.029 A 
HETATM   38  C   UNL     1      29.264  46.162  56.178  1.00  0.00     0.002 A 
HETATM   39  C   UNL     1      30.329  45.596  56.877  1.00  0.00     0.000 A 
HETATM   40  C   UNL     1      30.897  44.409  56.425  1.00  0.00     0.002 A 
HETATM   41  C   UNL     1      30.400  43.790  55.275  1.00  0.00     0.029 A 
ENDBRANCH  33  36
ENDBRANCH  10  32
TORSDOF 7
ENDMDL
MODEL 5
REMARK VINA RESULT:      -9.1      5.689      9.222
REMARK  7 active torsions:
REMARK  status: ('A' for Active; 'I' for Inactive)
REMARK    1  A    between atoms: C_2  and  O_3 
REMARK    2  A    between atoms: O_3  and  C_4 
REMARK    3  A    between atoms: C_5  and  C_6 
REMARK    4  A    between atoms: C_9  and  C_10 
REMARK       I    between atoms: C_10  and  N_11 
REMARK    5  A    between atoms: N_11  and  C_12 
REMARK    6  A    between atoms: C_25  and  C_26 
REMARK       I    between atoms: C_26  and  N_27 
REMARK    7  A    between atoms: N_27  and  C_28 
ROOT
HETATM    1  C   UNL     1      27.295  42.754  50.324  1.00  0.00     0.188 C 
HETATM    2  N   UNL     1      27.501  41.618  49.412  1.00  0.00    -0.239 N 
HETATM    3  C   UNL     1      27.754  40.332  49.826  1.00  0.00     0.142 C 
HETATM    4  C   UNL     1      27.806  39.570  48.675  1.00  0.00     0.097 C 
HETATM    5  C   UNL     1      27.723  40.529  47.631  1.00  0.00     0.160 C 
HETATM    6  N   UNL     1      27.554  41.778  48.072  1.00  0.00    -0.181 NA
HETATM    7  N   UNL     1      27.910  40.087  51.156  1.00  0.00    -0.343 N 
HETATM    8  C   UNL     1      27.977  41.123  52.100  1.00  0.00     0.021 C 
HETATM    9  C   UNL     1      28.398  40.709  53.491  1.00  0.00     0.069 C 
HETATM   10  C   UNL     1      27.696  42.403  51.748  1.00  0.00     0.061 C 
HETATM   11  H   UNL     1      28.369  39.230  51.466  1.00  0.00     0.167 HD
ENDROOT
BRANCH   4  12
HETATM   12  C   UNL     1      27.929  38.136  48.495  1.00  0.00     0.261 C 
HETATM   13  N   UNL     1      27.462  37.690  47.272  1.00  0.00    -0.323 N 
HETATM   14  H   UNL     1      27.116  38.408  46.649  1.00  0.00     0.169 HD
HETATM   15  O   UNL     1      28.465  37.449  49.354  1.00  0.00    -0.267 OA
BRANCH  13  16
HETATM   16  C   UNL     1      27.553  36.387  46.741  1.00  0.00     0.035 A 
HETATM   17  C   UNL     1      26.684  35.344  47.075  1.00  0.00     0.032 A 
HETATM   18  C   UNL     1      26.867  34.067  46.533  1.00  0.00     0.044 A 
HETATM   19  C   UNL     1      27.913  33.838  45.650  1.00  0.00     0.116 A 
HETATM   20  F   UNL     1      28.090  32.615  45.137  1.00  0.00    -0.206 F 
HETATM   21  C   UNL     1      28.780  34.863  45.297  1.00  0.00     0.044 A 
HETATM   22  C   UNL     1      28.601  36.137  45.843  1.00  0.00     0.032 A 
ENDBRANCH  13  16
ENDBRANCH   4  12
BRANCH   1  23
HETATM   23  C   UNL     1      25.868  43.292  50.160  1.00  0.00     0.005 A 
HETATM   24  C   UNL     1      25.579  44.644  49.879  1.00  0.00     0.077 A 
HETATM   25  C   UNL     1      24.249  45.049  49.711  1.00  0.00     0.037 A 
HETATM   26  C   UNL     1      23.204  44.134  49.848  1.00  0.00     0.003 A 
HETATM   27  C   UNL     1      23.476  42.806  50.152  1.00  0.00     0.001 A 
HETATM   28  C   UNL     1      24.796  42.388  50.308  1.00  0.00     0.012 A 
BRANCH  24  29
HETATM   29  O   UNL     1      26.647  45.488  49.751  1.00  0.00    -0.351 OA
BRANCH  29  30
HETATM   30  C   UNL     1      26.410  46.884  49.932  1.00  0.00     0.171 C 
HETATM   31  C   UNL     1      27.500  47.643  49.196  1.00  0.00     0.034 C 
ENDBRANCH  29  30
ENDBRANCH  24  29
ENDBRANCH   1  23
BRANCH  10  32
HETATM   32  C   UNL     1      28.067  43.540  52.644  1.00  0.00     0.256 C 
HETATM   33  N   UNL     1      27.004  44.113  53.306  1.00  0.00    -0.323 N 
HETATM   34  H   UNL     1      26.112  43.637  53.266  1.00  0.00     0.169 HD
HETATM   35  O   UNL     1      29.234  43.914  52.686  1.00  0.00    -0.267 OA
BRANCH  33  36
HETATM   36  C   UNL     1      26.987  45.348  53.991  1.00  0.00     0.035 A 
HETATM   37  C   UNL     1      27.879  45.695  55.007  1.00  0.00     0.029 A 
HETATM   38  C   UNL     1      27.823  46.960  55.600  1.00  0.00     0.002 A 
HETATM   39  C   UNL     1      26.879  47.894  55.177  1.00  0.00     0.000 A 
HETATM   40  C   UNL     1      25.982  47.559  54.167  1.00  0.00     0.002 A 
HETATM   41  C   UNL     1      26.031  46.290  53.582  1.00  0.00     0.029 A 
ENDBRANCH  33  36
ENDBRANCH  10  32
TORSDOF 7
ENDMDL
MODEL 6
REMARK VINA RESULT:      -9.1      3.976      9.820
REMARK  7 active torsions:
REMARK  status: ('A' for Active; 'I' for Inactive)
REMARK    1  A    between atoms: C_2  and  O_3 
REMARK    2  A    between atoms: O_3  and  C_4 
REMARK    3  A    between atoms: C_5  and  C_6 
REMARK    4  A    between atoms: C_9  and  C_10 
REMARK       I    between atoms: C_10  and  N_11 
REMARK    5  A    between atoms: N_11  and  C_12 
REMARK    6  A    between atoms: C_25  and  C_26 
REMARK       I    between atoms: C_26  and  N_27 
REMARK    7  A    between atoms: N_27  and  C_28 
ROOT
HETATM    1  C   UNL     1      24.271  43.722  49.651  1.00  0.00     0.188 C 
HETATM    2  N   UNL     1      23.027  44.465  49.401  1.00  0.00    -0.239 N 
HETATM    3  C   UNL     1      22.976  45.804  49.092  1.00  0.00     0.142 C 
HETATM    4  C   UNL     1      21.643  46.085  48.863  1.00  0.00     0.097 C 
HETATM    5  C   UNL     1      20.977  44.881  49.214  1.00  0.00     0.160 C 
HETATM    6  N   UNL     1      21.811  43.897  49.558  1.00  0.00    -0.181 NA
HETATM    7  N   UNL     1      24.131  46.523  49.092  1.00  0.00    -0.343 N 
HETATM    8  C   UNL     1      25.344  45.985  49.547  1.00  0.00     0.021 C 
HETATM    9  C   UNL     1      26.472  46.975  49.717  1.00  0.00     0.069 C 
HETATM   10  C   UNL     1      25.454  44.662  49.827  1.00  0.00     0.061 C 
HETATM   11  H   UNL     1      24.097  47.542  49.149  1.00  0.00     0.167 HD
ENDROOT
BRANCH   4  12
HETATM   12  C   UNL     1      21.000  47.298  48.393  1.00  0.00     0.261 C 
HETATM   13  N   UNL     1      20.570  48.128  49.412  1.00  0.00    -0.323 N 
HETATM   14  H   UNL     1      20.772  47.806  50.351  1.00  0.00     0.169 HD
HETATM   15  O   UNL     1      20.935  47.538  47.194  1.00  0.00    -0.267 OA
BRANCH  13  16
HETATM   16  C   UNL     1      20.029  49.424  49.295  1.00  0.00     0.035 A 
HETATM   17  C   UNL     1      20.690  50.494  48.682  1.00  0.00     0.032 A 
HETATM   18  C   UNL     1      20.100  51.762  48.642  1.00  0.00     0.044 A 
HETATM   19  C   UNL     1      18.846  51.956  49.205  1.00  0.00     0.116 A 
HETATM   20  F   UNL     1      18.286  53.170  49.171  1.00  0.00    -0.206 F 
HETATM   21  C   UNL     1      18.169  50.904  49.808  1.00  0.00     0.044 A 
HETATM   22  C   UNL     1      18.761  49.639  49.854  1.00  0.00     0.032 A 
ENDBRANCH  13  16
ENDBRANCH   4  12
BRANCH   1  23
HETATM   23  C   UNL     1      24.449  42.642  48.577  1.00  0.00     0.005 A 
HETATM   24  C   UNL     1      25.037  41.386  48.832  1.00  0.00     0.077 A 
HETATM   25  C   UNL     1      25.133  40.441  47.803  1.00  0.00     0.037 A 
HETATM   26  C   UNL     1      24.677  40.741  46.518  1.00  0.00     0.003 A 
HETATM   27  C   UNL     1      24.121  41.984  46.249  1.00  0.00     0.001 A 
HETATM   28  C   UNL     1      24.008  42.928  47.268  1.00  0.00     0.012 A 
BRANCH  24  29
HETATM   29  O   UNL     1      25.458  41.152  50.113  1.00  0.00    -0.351 OA
BRANCH  29  30
HETATM   30  C   UNL     1      26.239  39.981  50.348  1.00  0.00     0.171 C 
HETATM   31  C   UNL     1      27.697  40.398  50.424  1.00  0.00     0.034 C 
ENDBRANCH  29  30
ENDBRANCH  24  29
ENDBRANCH   1  23
BRANCH  10  32
HETATM   32  C   UNL     1      26.620  44.140  50.604  1.00  0.00     0.256 C 
HETATM   33  N   UNL     1      26.445  44.153  51.970  1.00  0.00    -0.323 N 
HETATM   34  H   UNL     1      25.518  44.350  52.324  1.00  0.00     0.169 HD
HETATM   35  O   UNL     1      27.637  43.806  50.006  1.00  0.00    -0.267 OA
BRANCH  33  36
HETATM   36  C   UNL     1      27.438  43.989  52.962  1.00  0.00     0.035 A 
HETATM   37  C   UNL     1      28.214  42.839  53.114  1.00  0.00     0.029 A 
HETATM   38  C   UNL     1      29.211  42.780  54.093  1.00  0.00     0.002 A 
HETATM   39  C   UNL     1      29.445  43.873  54.925  1.00  0.00     0.000 A 
HETATM   40  C   UNL     1      28.675  45.024  54.785  1.00  0.00     0.002 A 
HETATM   41  C   UNL     1      27.672  45.079  53.813  1.00  0.00     0.029 A 
ENDBRANCH  33  36
ENDBRANCH  10  32
TORSDOF 7
ENDMDL
MODEL 7
REMARK VINA RESULT:      -9.0      4.397      9.108
REMARK  7 active torsions:
REMARK  status: ('A' for Active; 'I' for Inactive)
REMARK    1  A    between atoms: C_2  and  O_3 
REMARK    2  A    between atoms: O_3  and  C_4 
REMARK    3  A    between atoms: C_5  and  C_6 
REMARK    4  A    between atoms: C_9  and  C_10 
REMARK       I    between atoms: C_10  and  N_11 
REMARK    5  A    between atoms: N_11  and  C_12 
REMARK    6  A    between atoms: C_25  and  C_26 
REMARK       I    between atoms: C_26  and  N_27 
REMARK    7  A    between atoms: N_27  and  C_28 
ROOT
HETATM    1  C   UNL     1      27.142  43.980  50.017  1.00  0.00     0.188 C 
HETATM    2  N   UNL     1      26.410  45.238  49.809  1.00  0.00    -0.239 N 
HETATM    3  C   UNL     1      25.073  45.311  49.495  1.00  0.00     0.142 C 
HETATM    4  C   UNL     1      24.768  46.658  49.462  1.00  0.00     0.097 C 
HETATM    5  C   UNL     1      26.028  47.294  49.618  1.00  0.00     0.160 C 
HETATM    6  N   UNL     1      27.033  46.438  49.813  1.00  0.00    -0.181 NA
HETATM    7  N   UNL     1      24.384  44.158  49.279  1.00  0.00    -0.343 N 
HETATM    8  C   UNL     1      25.024  42.910  49.211  1.00  0.00     0.021 C 
HETATM    9  C   UNL     1      24.168  41.766  48.723  1.00  0.00     0.069 C 
HETATM   10  C   UNL     1      26.332  42.782  49.550  1.00  0.00     0.061 C 
HETATM   11  H   UNL     1      23.495  44.180  48.779  1.00  0.00     0.167 HD
ENDROOT
BRANCH   4  12
HETATM   12  C   UNL     1      23.496  47.335  49.296  1.00  0.00     0.261 C 
HETATM   13  N   UNL     1      23.580  48.710  49.422  1.00  0.00    -0.323 N 
HETATM   14  H   UNL     1      24.509  49.076  49.590  1.00  0.00     0.169 HD
HETATM   15  O   UNL     1      22.490  46.700  49.008  1.00  0.00    -0.267 OA
BRANCH  13  16
HETATM   16  C   UNL     1      22.562  49.658  49.194  1.00  0.00     0.035 A 
HETATM   17  C   UNL     1      21.903  50.357  50.210  1.00  0.00     0.032 A 
HETATM   18  C   UNL     1      20.874  51.253  49.902  1.00  0.00     0.044 A 
HETATM   19  C   UNL     1      20.513  51.456  48.578  1.00  0.00     0.116 A 
HETATM   20  F   UNL     1      19.524  52.310  48.285  1.00  0.00    -0.206 F 
HETATM   21  C   UNL     1      21.162  50.781  47.553  1.00  0.00     0.044 A 
HETATM   22  C   UNL     1      22.186  49.881  47.861  1.00  0.00     0.032 A 
ENDBRANCH  13  16
ENDBRANCH   4  12
BRANCH   1  23
HETATM   23  C   UNL     1      27.637  43.909  51.467  1.00  0.00     0.005 A 
HETATM   24  C   UNL     1      26.842  44.269  52.575  1.00  0.00     0.077 A 
HETATM   25  C   UNL     1      27.359  44.144  53.871  1.00  0.00     0.037 A 
HETATM   26  C   UNL     1      28.663  43.692  54.076  1.00  0.00     0.003 A 
HETATM   27  C   UNL     1      29.464  43.361  52.991  1.00  0.00     0.001 A 
HETATM   28  C   UNL     1      28.957  43.469  51.698  1.00  0.00     0.012 A 
BRANCH  24  29
HETATM   29  O   UNL     1      25.572  44.698  52.308  1.00  0.00    -0.351 OA
BRANCH  29  30
HETATM   30  C   UNL     1      24.955  45.570  53.255  1.00  0.00     0.171 C 
HETATM   31  C   UNL     1      25.580  46.945  53.102  1.00  0.00     0.034 C 
ENDBRANCH  29  30
ENDBRANCH  24  29
ENDBRANCH   1  23
BRANCH  10  32
HETATM   32  C   UNL     1      27.098  41.551  49.183  1.00  0.00     0.256 C 
HETATM   33  N   UNL     1      27.036  40.543  50.120  1.00  0.00    -0.323 N 
HETATM   34  H   UNL     1      26.371  40.643  50.876  1.00  0.00     0.169 HD
HETATM   35  O   UNL     1      27.752  41.539  48.147  1.00  0.00    -0.267 OA
BRANCH  33  36
HETATM   36  C   UNL     1      27.853  39.394  50.196  1.00  0.00     0.035 A 
HETATM   37  C   UNL     1      29.111  39.363  50.801  1.00  0.00     0.029 A 
HETATM   38  C   UNL     1      29.835  38.169  50.875  1.00  0.00     0.002 A 
HETATM   39  C   UNL     1      29.304  36.992  50.351  1.00  0.00     0.000 A 
HETATM   40  C   UNL     1      28.053  37.011  49.742  1.00  0.00     0.002 A 
HETATM   41  C   UNL     1      27.335  38.207  49.658  1.00  0.00     0.029 A 
ENDBRANCH  33  36
ENDBRANCH  10  32
TORSDOF 7
ENDMDL
MODEL 8
REMARK VINA RESULT:      -8.8      4.512     10.281
REMARK  7 active torsions:
REMARK  status: ('A' for Active; 'I' for Inactive)
REMARK    1  A    between atoms: C_2  and  O_3 
REMARK    2  A    between atoms: O_3  and  C_4 
REMARK    3  A    between atoms: C_5  and  C_6 
REMARK    4  A    between atoms: C_9  and  C_10 
REMARK       I    between atoms: C_10  and  N_11 
REMARK    5  A    between atoms: N_11  and  C_12 
REMARK    6  A    between atoms: C_25  and  C_26 
REMARK       I    between atoms: C_26  and  N_27 
REMARK    7  A    between atoms: N_27  and  C_28 
ROOT
HETATM    1  C   UNL     1      22.361  45.045  48.664  1.00  0.00     0.188 C 
HETATM    2  N   UNL     1      21.056  45.689  48.449  1.00  0.00    -0.239 N 
HETATM    3  C   UNL     1      20.862  47.049  48.419  1.00  0.00     0.142 C 
HETATM    4  C   UNL     1      19.526  47.231  48.121  1.00  0.00     0.097 C 
HETATM    5  C   UNL     1      18.991  45.916  48.146  1.00  0.00     0.160 C 
HETATM    6  N   UNL     1      19.912  44.974  48.362  1.00  0.00    -0.181 NA
HETATM    7  N   UNL     1      21.914  47.870  48.684  1.00  0.00    -0.343 N 
HETATM    8  C   UNL     1      23.147  47.377  49.138  1.00  0.00     0.021 C 
HETATM    9  C   UNL     1      24.126  48.420  49.622  1.00  0.00     0.069 C 
HETATM   10  C   UNL     1      23.400  46.044  49.149  1.00  0.00     0.061 C 
HETATM   11  H   UNL     1      21.750  48.842  48.946  1.00  0.00     0.167 HD
ENDROOT
BRANCH   4  12
HETATM   12  C   UNL     1      18.774  48.442  47.848  1.00  0.00     0.261 C 
HETATM   13  N   UNL     1      18.283  49.056  48.986  1.00  0.00    -0.323 N 
HETATM   14  H   UNL     1      18.521  48.607  49.861  1.00  0.00     0.169 HD
HETATM   15  O   UNL     1      18.676  48.865  46.704  1.00  0.00    -0.267 OA
BRANCH  13  16
HETATM   16  C   UNL     1      17.629  50.301  49.076  1.00  0.00     0.035 A 
HETATM   17  C   UNL     1      18.181  51.433  49.685  1.00  0.00     0.032 A 
HETATM   18  C   UNL     1      17.450  52.622  49.768  1.00  0.00     0.044 A 
HETATM   19  C   UNL     1      16.171  52.682  49.234  1.00  0.00     0.116 A 
HETATM   20  F   UNL     1      15.470  53.818  49.320  1.00  0.00    -0.206 F 
HETATM   21  C   UNL     1      15.607  51.573  48.616  1.00  0.00     0.044 A 
HETATM   22  C   UNL     1      16.336  50.383  48.538  1.00  0.00     0.032 A 
ENDBRANCH  13  16
ENDBRANCH   4  12
BRANCH   1  23
HETATM   23  C   UNL     1      22.753  44.249  47.413  1.00  0.00     0.005 A 
HETATM   24  C   UNL     1      23.248  42.929  47.460  1.00  0.00     0.077 A 
HETATM   25  C   UNL     1      23.553  42.258  46.269  1.00  0.00     0.037 A 
HETATM   26  C   UNL     1      23.398  42.894  45.036  1.00  0.00     0.003 A 
HETATM   27  C   UNL     1      22.936  44.202  44.979  1.00  0.00     0.001 A 
HETATM   28  C   UNL     1      22.617  44.875  46.157  1.00  0.00     0.012 A 
BRANCH  24  29
HETATM   29  O   UNL     1      23.372  42.361  48.698  1.00  0.00    -0.351 OA
BRANCH  29  30
HETATM   30  C   UNL     1      24.285  41.273  48.838  1.00  0.00     0.171 C 
HETATM   31  C   UNL     1      25.339  41.674  49.855  1.00  0.00     0.034 C 
ENDBRANCH  29  30
ENDBRANCH  24  29
ENDBRANCH   1  23
BRANCH  10  32
HETATM   32  C   UNL     1      24.560  45.492  49.914  1.00  0.00     0.256 C 
HETATM   33  N   UNL     1      24.359  45.416  51.274  1.00  0.00    -0.323 N 
HETATM   34  H   UNL     1      23.422  45.576  51.622  1.00  0.00     0.169 HD
HETATM   35  O   UNL     1      25.593  45.212  49.317  1.00  0.00    -0.267 OA
BRANCH  33  36
HETATM   36  C   UNL     1      25.335  45.206  52.274  1.00  0.00     0.035 A 
HETATM   37  C   UNL     1      25.816  43.951  52.651  1.00  0.00     0.029 A 
HETATM   38  C   UNL     1      26.820  43.836  53.617  1.00  0.00     0.002 A 
HETATM   39  C   UNL     1      27.359  44.976  54.210  1.00  0.00     0.000 A 
HETATM   40  C   UNL     1      26.884  46.233  53.845  1.00  0.00     0.002 A 
HETATM   41  C   UNL     1      25.873  46.347  52.887  1.00  0.00     0.029 A 
ENDBRANCH  33  36
ENDBRANCH  10  32
TORSDOF 7
ENDMDL
MODEL 9
REMARK VINA RESULT:      -8.7      4.267      7.427
REMARK  7 active torsions:
REMARK  status: ('A' for Active; 'I' for Inactive)
REMARK    1  A    between atoms: C_2  and  O_3 
REMARK    2  A    between atoms: O_3  and  C_4 
REMARK    3  A    between atoms: C_5  and  C_6 
REMARK    4  A    between atoms: C_9  and  C_10 
REMARK       I    between atoms: C_10  and  N_11 
REMARK    5  A    between atoms: N_11  and  C_12 
REMARK    6  A    between atoms: C_25  and  C_26 
REMARK       I    between atoms: C_26  and  N_27 
REMARK    7  A    between atoms: N_27  and  C_28 
ROOT
HETATM    1  C   UNL     1      19.846  50.419  48.017  1.00  0.00     0.188 C 
HETATM    2  N   UNL     1      21.099  49.652  48.072  1.00  0.00    -0.239 N 
HETATM    3  C   UNL     1      21.362  48.666  48.993  1.00  0.00     0.142 C 
HETATM    4  C   UNL     1      22.599  48.155  48.654  1.00  0.00     0.097 C 
HETATM    5  C   UNL     1      23.046  49.012  47.614  1.00  0.00     0.160 C 
HETATM    6  N   UNL     1      22.146  49.935  47.266  1.00  0.00    -0.181 NA
HETATM    7  N   UNL     1      20.451  48.424  49.975  1.00  0.00    -0.343 N 
HETATM    8  C   UNL     1      19.332  49.247  50.172  1.00  0.00     0.021 C 
HETATM    9  C   UNL     1      18.557  48.997  51.444  1.00  0.00     0.069 C 
HETATM   10  C   UNL     1      19.010  50.208  49.270  1.00  0.00     0.061 C 
HETATM   11  H   UNL     1      20.730  47.917  50.816  1.00  0.00     0.167 HD
ENDROOT
BRANCH   4  12
HETATM   12  C   UNL     1      23.336  47.027  49.193  1.00  0.00     0.261 C 
HETATM   13  N   UNL     1      24.467  47.393  49.901  1.00  0.00    -0.323 N 
HETATM   14  H   UNL     1      24.630  48.389  49.977  1.00  0.00     0.169 HD
HETATM   15  O   UNL     1      22.911  45.887  49.055  1.00  0.00    -0.267 OA
BRANCH  13  16
HETATM   16  C   UNL     1      25.320  46.556  50.649  1.00  0.00     0.035 A 
HETATM   17  C   UNL     1      26.118  45.553  50.090  1.00  0.00     0.032 A 
HETATM   18  C   UNL     1      26.908  44.738  50.907  1.00  0.00     0.044 A 
HETATM   19  C   UNL     1      26.907  44.933  52.281  1.00  0.00     0.116 A 
HETATM   20  F   UNL     1      27.659  44.149  53.062  1.00  0.00    -0.206 F 
HETATM   21  C   UNL     1      26.130  45.930  52.855  1.00  0.00     0.044 A 
HETATM   22  C   UNL     1      25.335  46.741  52.039  1.00  0.00     0.032 A 
ENDBRANCH  13  16
ENDBRANCH   4  12
BRANCH   1  23
HETATM   23  C   UNL     1      19.125  50.130  46.694  1.00  0.00     0.005 A 
HETATM   24  C   UNL     1      18.805  48.828  46.256  1.00  0.00     0.077 A 
HETATM   25  C   UNL     1      18.115  48.651  45.050  1.00  0.00     0.037 A 
HETATM   26  C   UNL     1      17.766  49.749  44.263  1.00  0.00     0.003 A 
HETATM   27  C   UNL     1      18.099  51.034  44.672  1.00  0.00     0.001 A 
HETATM   28  C   UNL     1      18.774  51.223  45.876  1.00  0.00     0.012 A 
BRANCH  24  29
HETATM   29  O   UNL     1      19.170  47.795  47.075  1.00  0.00    -0.351 OA
BRANCH  29  30
HETATM   30  C   UNL     1      18.306  46.661  47.133  1.00  0.00     0.171 C 
HETATM   31  C   UNL     1      17.329  46.873  48.275  1.00  0.00     0.034 C 
ENDBRANCH  29  30
ENDBRANCH  24  29
ENDBRANCH   1  23
BRANCH  10  32
HETATM   32  C   UNL     1      18.031  51.284  49.617  1.00  0.00     0.256 C 
HETATM   33  N   UNL     1      16.775  51.103  49.083  1.00  0.00    -0.323 N 
HETATM   34  H   UNL     1      16.570  50.211  48.651  1.00  0.00     0.169 HD
HETATM   35  O   UNL     1      18.408  52.247  50.275  1.00  0.00    -0.267 OA
BRANCH  33  36
HETATM   36  C   UNL     1      15.736  52.056  48.998  1.00  0.00     0.035 A 
HETATM   37  C   UNL     1      15.010  52.526  50.094  1.00  0.00     0.029 A 
HETATM   38  C   UNL     1      14.029  53.508  49.928  1.00  0.00     0.002 A 
HETATM   39  C   UNL     1      13.768  54.035  48.664  1.00  0.00     0.000 A 
HETATM   40  C   UNL     1      14.482  53.571  47.563  1.00  0.00     0.002 A 
HETATM   41  C   UNL     1      15.456  52.582  47.728  1.00  0.00     0.029 A 
ENDBRANCH  33  36
ENDBRANCH  10  32
TORSDOF 7
ENDMDL
