MODEL 1
REMARK VINA RESULT:      -8.2      0.000      0.000
REMARK  6 active torsions:
REMARK  status: ('A' for Active; 'I' for Inactive)
REMARK    1  A    between atoms: C_2  and  N_3 
REMARK    2  A    between atoms: C_2  and  C_16 
REMARK    3  A    between atoms: N_3  and  C_6 
REMARK    4  A    between atoms: C_16  and  C_17 
REMARK       I    between atoms: C_17  and  N_18 
REMARK    5  A    between atoms: N_18  and  C_19 
REMARK    6  A    between atoms: C_22  and  O_23 
ROOT
HETATM    1  C   UNL     1      25.571  43.562  50.462  1.00  0.00     0.040 C 
HETATM    2  C   UNL     1      25.982  44.884  51.096  1.00  0.00     0.191 C 
ENDROOT
BRANCH   2   3
HETATM    3  N   UNL     1      27.176  44.683  51.998  1.00  0.00    -0.063 N 
HETATM    4  H   UNL     1      27.912  44.241  51.403  1.00  0.00     0.278 HD
HETATM    5  H   UNL     1      27.562  45.612  52.204  1.00  0.00     0.278 HD
BRANCH   3   6
HETATM    6  C   UNL     1      27.078  43.892  53.277  1.00  0.00     0.221 C 
HETATM    7  C   UNL     1      28.277  44.035  54.176  1.00  0.00    -0.011 A 
HETATM    8  C   UNL     1      28.502  45.246  54.852  1.00  0.00     0.009 A 
HETATM    9  C   UNL     1      29.173  42.970  54.362  1.00  0.00     0.011 A 
HETATM   10  C   UNL     1      29.644  45.403  55.640  1.00  0.00     0.019 A 
HETATM   11  S   UNL     1      27.383  46.621  54.682  1.00  0.00    -0.129 SA
HETATM   12  C   UNL     1      30.542  44.347  55.797  1.00  0.00     0.001 A 
HETATM   13  C   UNL     1      30.302  43.129  55.166  1.00  0.00     0.001 A 
HETATM   14  C   UNL     1      25.780  45.776  54.494  1.00  0.00     0.082 C 
HETATM   15  C   UNL     1      25.823  44.315  54.048  1.00  0.00     0.048 C 
ENDBRANCH   3   6
ENDBRANCH   2   3
BRANCH   2  16
HETATM   16  C   UNL     1      26.178  45.993  50.056  1.00  0.00     0.135 C 
BRANCH  16  17
HETATM   17  C   UNL     1      25.202  47.128  50.279  1.00  0.00     0.224 C 
HETATM   18  N   UNL     1      24.698  47.640  49.106  1.00  0.00    -0.327 N 
HETATM   19  H   UNL     1      25.092  47.305  48.234  1.00  0.00     0.169 HD
HETATM   20  O   UNL     1      24.983  47.513  51.425  1.00  0.00    -0.273 OA
BRANCH  18  21
HETATM   21  C   UNL     1      23.730  48.657  48.969  1.00  0.00     0.034 A 
HETATM   22  C   UNL     1      22.385  48.282  49.078  1.00  0.00     0.032 A 
HETATM   23  C   UNL     1      21.361  49.234  48.981  1.00  0.00     0.039 A 
HETATM   24  C   UNL     1      21.673  50.576  48.786  1.00  0.00     0.068 A 
HETATM   25  C   UNL     1      23.013  50.951  48.677  1.00  0.00     0.039 A 
HETATM   26  C   UNL     1      24.037  50.001  48.765  1.00  0.00     0.032 A 
BRANCH  24  27
HETATM   27  O   UNL     1      20.780  51.606  48.689  1.00  0.00    -0.356 OA
HETATM   28  C   UNL     1      19.589  51.505  49.458  1.00  0.00     0.210 C 
ENDBRANCH  24  27
ENDBRANCH  18  21
ENDBRANCH  16  17
ENDBRANCH   2  16
TORSDOF 6
ENDMDL
MODEL 2
REMARK VINA RESULT:      -8.1      1.348      1.906
REMARK  6 active torsions:
REMARK  status: ('A' for Active; 'I' for Inactive)
REMARK    1  A    between atoms: C_2  and  N_3 
REMARK    2  A    between atoms: C_2  and  C_16 
REMARK    3  A    between atoms: N_3  and  C_6 
REMARK    4  A    between atoms: C_16  and  C_17 
REMARK       I    between atoms: C_17  and  N_18 
REMARK    5  A    between atoms: N_18  and  C_19 
REMARK    6  A    between atoms: C_22  and  O_23 
ROOT
HETATM    1  C   UNL     1      26.810  42.211  51.086  1.00  0.00     0.040 C 
HETATM    2  C   UNL     1      26.813  43.728  51.221  1.00  0.00     0.191 C 
ENDROOT
BRANCH   2   3
HETATM    3  N   UNL     1      27.726  44.151  52.347  1.00  0.00    -0.063 N 
HETATM    4  H   UNL     1      28.699  44.043  51.982  1.00  0.00     0.278 HD
HETATM    5  H   UNL     1      27.624  45.167  52.457  1.00  0.00     0.278 HD
BRANCH   3   6
HETATM    6  C   UNL     1      27.667  43.497  53.703  1.00  0.00     0.221 C 
HETATM    7  C   UNL     1      28.801  43.882  54.616  1.00  0.00    -0.011 A 
HETATM    8  C   UNL     1      28.851  45.177  55.158  1.00  0.00     0.009 A 
HETATM    9  C   UNL     1      29.807  42.960  54.947  1.00  0.00     0.011 A 
HETATM   10  C   UNL     1      29.932  45.556  55.958  1.00  0.00     0.019 A 
HETATM   11  S   UNL     1      27.587  46.378  54.801  1.00  0.00    -0.129 SA
HETATM   12  C   UNL     1      30.940  44.641  56.259  1.00  0.00     0.001 A 
HETATM   13  C   UNL     1      30.874  43.342  55.763  1.00  0.00     0.001 A 
HETATM   14  C   UNL     1      26.104  45.329  54.661  1.00  0.00     0.082 C 
HETATM   15  C   UNL     1      26.338  43.845  54.384  1.00  0.00     0.048 C 
ENDBRANCH   3   6
ENDBRANCH   2   3
BRANCH   2  16
HETATM   16  C   UNL     1      27.112  44.431  49.892  1.00  0.00     0.135 C 
BRANCH  16  17
HETATM   17  C   UNL     1      25.954  45.307  49.467  1.00  0.00     0.224 C 
HETATM   18  N   UNL     1      26.117  46.624  49.830  1.00  0.00    -0.327 N 
HETATM   19  H   UNL     1      26.906  46.859  50.421  1.00  0.00     0.169 HD
HETATM   20  O   UNL     1      24.989  44.795  48.903  1.00  0.00    -0.273 OA
BRANCH  18  21
HETATM   21  C   UNL     1      25.252  47.700  49.536  1.00  0.00     0.034 A 
HETATM   22  C   UNL     1      25.819  48.836  48.944  1.00  0.00     0.032 A 
HETATM   23  C   UNL     1      25.028  49.938  48.596  1.00  0.00     0.039 A 
HETATM   24  C   UNL     1      23.655  49.911  48.825  1.00  0.00     0.068 A 
HETATM   25  C   UNL     1      23.089  48.780  49.415  1.00  0.00     0.039 A 
HETATM   26  C   UNL     1      23.879  47.681  49.771  1.00  0.00     0.032 A 
BRANCH  24  27
HETATM   27  O   UNL     1      22.767  50.904  48.522  1.00  0.00    -0.356 OA
HETATM   28  C   UNL     1      21.593  50.989  49.319  1.00  0.00     0.210 C 
ENDBRANCH  24  27
ENDBRANCH  18  21
ENDBRANCH  16  17
ENDBRANCH   2  16
TORSDOF 6
ENDMDL
MODEL 3
REMARK VINA RESULT:      -7.7      2.414      3.788
REMARK  6 active torsions:
REMARK  status: ('A' for Active; 'I' for Inactive)
REMARK    1  A    between atoms: C_2  and  N_3 
REMARK    2  A    between atoms: C_2  and  C_16 
REMARK    3  A    between atoms: N_3  and  C_6 
REMARK    4  A    between atoms: C_16  and  C_17 
REMARK       I    between atoms: C_17  and  N_18 
REMARK    5  A    between atoms: N_18  and  C_19 
REMARK    6  A    between atoms: C_22  and  O_23 
ROOT
HETATM    1  C   UNL     1      23.350  45.208  48.476  1.00  0.00     0.040 C 
HETATM    2  C   UNL     1      23.398  46.289  49.547  1.00  0.00     0.191 C 
ENDROOT
BRANCH   2   3
HETATM    3  N   UNL     1      24.287  45.857  50.688  1.00  0.00    -0.063 N 
HETATM    4  H   UNL     1      23.734  46.022  51.559  1.00  0.00     0.278 HD
HETATM    5  H   UNL     1      24.364  44.835  50.644  1.00  0.00     0.278 HD
BRANCH   3   6
HETATM    6  C   UNL     1      25.657  46.450  50.892  1.00  0.00     0.221 C 
HETATM    7  C   UNL     1      26.218  46.230  52.272  1.00  0.00    -0.011 A 
HETATM    8  C   UNL     1      26.631  44.945  52.661  1.00  0.00     0.009 A 
HETATM    9  C   UNL     1      26.347  47.295  53.178  1.00  0.00     0.011 A 
HETATM   10  C   UNL     1      27.096  44.726  53.959  1.00  0.00     0.019 A 
HETATM   11  S   UNL     1      26.523  43.562  51.544  1.00  0.00    -0.129 SA
HETATM   12  C   UNL     1      27.195  45.785  54.860  1.00  0.00     0.001 A 
HETATM   13  C   UNL     1      26.830  47.070  54.468  1.00  0.00     0.001 A 
HETATM   14  C   UNL     1      26.846  44.355  49.936  1.00  0.00     0.082 C 
HETATM   15  C   UNL     1      26.629  45.865  49.860  1.00  0.00     0.048 C 
ENDBRANCH   3   6
ENDBRANCH   2   3
BRANCH   2  16
HETATM   16  C   UNL     1      23.760  47.664  48.972  1.00  0.00     0.135 C 
BRANCH  16  17
HETATM   17  C   UNL     1      22.521  48.418  48.543  1.00  0.00     0.224 C 
HETATM   18  N   UNL     1      22.023  49.237  49.531  1.00  0.00    -0.327 N 
HETATM   19  H   UNL     1      22.442  49.179  50.451  1.00  0.00     0.169 HD
HETATM   20  O   UNL     1      22.055  48.219  47.424  1.00  0.00    -0.273 OA
BRANCH  18  21
HETATM   21  C   UNL     1      20.920  50.111  49.433  1.00  0.00     0.034 A 
HETATM   22  C   UNL     1      19.801  49.824  50.226  1.00  0.00     0.032 A 
HETATM   23  C   UNL     1      18.674  50.656  50.209  1.00  0.00     0.039 A 
HETATM   24  C   UNL     1      18.658  51.793  49.407  1.00  0.00     0.068 A 
HETATM   25  C   UNL     1      19.771  52.080  48.616  1.00  0.00     0.039 A 
HETATM   26  C   UNL     1      20.896  51.246  48.625  1.00  0.00     0.032 A 
BRANCH  24  27
HETATM   27  O   UNL     1      17.637  52.695  49.306  1.00  0.00    -0.356 OA
HETATM   28  C   UNL     1      16.317  52.204  49.507  1.00  0.00     0.210 C 
ENDBRANCH  24  27
ENDBRANCH  18  21
ENDBRANCH  16  17
ENDBRANCH   2  16
TORSDOF 6
ENDMDL
MODEL 4
REMARK VINA RESULT:      -7.7     12.452     14.852
REMARK  6 active torsions:
REMARK  status: ('A' for Active; 'I' for Inactive)
REMARK    1  A    between atoms: C_2  and  N_3 
REMARK    2  A    between atoms: C_2  and  C_16 
REMARK    3  A    between atoms: N_3  and  C_6 
REMARK    4  A    between atoms: C_16  and  C_17 
REMARK       I    between atoms: C_17  and  N_18 
REMARK    5  A    between atoms: N_18  and  C_19 
REMARK    6  A    between atoms: C_22  and  O_23 
ROOT
HETATM    1  C   UNL     1      27.638  52.416  41.459  1.00  0.00     0.040 C 
HETATM    2  C   UNL     1      28.505  52.174  40.230  1.00  0.00     0.191 C 
ENDROOT
BRANCH   2   3
HETATM    3  N   UNL     1      27.665  51.643  39.093  1.00  0.00    -0.063 N 
HETATM    4  H   UNL     1      26.720  51.455  39.499  1.00  0.00     0.278 HD
HETATM    5  H   UNL     1      27.497  52.423  38.448  1.00  0.00     0.278 HD
BRANCH   3   6
HETATM    6  C   UNL     1      28.078  50.427  38.305  1.00  0.00     0.221 C 
HETATM    7  C   UNL     1      28.989  49.493  39.057  1.00  0.00    -0.011 A 
HETATM    8  C   UNL     1      28.480  48.727  40.119  1.00  0.00     0.009 A 
HETATM    9  C   UNL     1      30.342  49.365  38.706  1.00  0.00     0.011 A 
HETATM   10  C   UNL     1      29.334  47.905  40.856  1.00  0.00     0.019 A 
HETATM   11  S   UNL     1      26.765  48.823  40.589  1.00  0.00    -0.129 SA
HETATM   12  C   UNL     1      30.683  47.804  40.516  1.00  0.00     0.001 A 
HETATM   13  C   UNL     1      31.185  48.526  39.436  1.00  0.00     0.001 A 
HETATM   14  C   UNL     1      25.953  49.107  38.982  1.00  0.00     0.082 C 
HETATM   15  C   UNL     1      26.831  49.655  37.859  1.00  0.00     0.048 C 
ENDBRANCH   3   6
ENDBRANCH   2   3
BRANCH   2  16
HETATM   16  C   UNL     1      29.339  53.404  39.854  1.00  0.00     0.135 C 
BRANCH  16  17
HETATM   17  C   UNL     1      30.713  53.343  40.485  1.00  0.00     0.224 C 
HETATM   18  N   UNL     1      31.167  52.056  40.658  1.00  0.00    -0.327 N 
HETATM   19  H   UNL     1      30.526  51.296  40.462  1.00  0.00     0.169 HD
HETATM   20  O   UNL     1      31.267  54.388  40.819  1.00  0.00    -0.273 OA
BRANCH  18  21
HETATM   21  C   UNL     1      32.423  51.658  41.162  1.00  0.00     0.034 A 
HETATM   22  C   UNL     1      33.419  51.342  40.229  1.00  0.00     0.032 A 
HETATM   23  C   UNL     1      34.702  50.963  40.645  1.00  0.00     0.039 A 
HETATM   24  C   UNL     1      35.008  50.909  42.002  1.00  0.00     0.068 A 
HETATM   25  C   UNL     1      34.017  51.223  42.933  1.00  0.00     0.039 A 
HETATM   26  C   UNL     1      32.732  51.594  42.519  1.00  0.00     0.032 A 
BRANCH  24  27
HETATM   27  O   UNL     1      36.216  50.572  42.543  1.00  0.00    -0.356 OA
HETATM   28  C   UNL     1      37.374  50.842  41.763  1.00  0.00     0.210 C 
ENDBRANCH  24  27
ENDBRANCH  18  21
ENDBRANCH  16  17
ENDBRANCH   2  16
TORSDOF 6
ENDMDL
MODEL 5
REMARK VINA RESULT:      -7.6      5.399      8.614
REMARK  6 active torsions:
REMARK  status: ('A' for Active; 'I' for Inactive)
REMARK    1  A    between atoms: C_2  and  N_3 
REMARK    2  A    between atoms: C_2  and  C_16 
REMARK    3  A    between atoms: N_3  and  C_6 
REMARK    4  A    between atoms: C_16  and  C_17 
REMARK       I    between atoms: C_17  and  N_18 
REMARK    5  A    between atoms: N_18  and  C_19 
REMARK    6  A    between atoms: C_22  and  O_23 
ROOT
HETATM    1  C   UNL     1      30.505  43.639  55.286  1.00  0.00     0.040 C 
HETATM    2  C   UNL     1      29.417  42.832  54.588  1.00  0.00     0.191 C 
ENDROOT
BRANCH   2   3
HETATM    3  N   UNL     1      28.148  43.643  54.485  1.00  0.00    -0.063 N 
HETATM    4  H   UNL     1      27.378  42.952  54.340  1.00  0.00     0.278 HD
HETATM    5  H   UNL     1      27.953  44.025  55.418  1.00  0.00     0.278 HD
BRANCH   3   6
HETATM    6  C   UNL     1      27.988  44.735  53.459  1.00  0.00     0.221 C 
HETATM    7  C   UNL     1      27.084  44.366  52.312  1.00  0.00    -0.011 A 
HETATM    8  C   UNL     1      25.700  44.255  52.522  1.00  0.00     0.009 A 
HETATM    9  C   UNL     1      27.603  44.143  51.027  1.00  0.00     0.011 A 
HETATM   10  C   UNL     1      24.867  43.856  51.475  1.00  0.00     0.019 A 
HETATM   11  S   UNL     1      24.981  44.558  54.123  1.00  0.00    -0.129 SA
HETATM   12  C   UNL     1      25.395  43.610  50.209  1.00  0.00     0.001 A 
HETATM   13  C   UNL     1      26.760  43.763  49.981  1.00  0.00     0.001 A 
HETATM   14  C   UNL     1      26.065  45.868  54.777  1.00  0.00     0.082 C 
HETATM   15  C   UNL     1      27.445  46.000  54.135  1.00  0.00     0.048 C 
ENDBRANCH   3   6
ENDBRANCH   2   3
BRANCH   2  16
HETATM   16  C   UNL     1      29.888  42.255  53.248  1.00  0.00     0.135 C 
BRANCH  16  17
HETATM   17  C   UNL     1      28.920  41.212  52.734  1.00  0.00     0.224 C 
HETATM   18  N   UNL     1      29.102  40.922  51.401  1.00  0.00    -0.327 N 
HETATM   19  H   UNL     1      29.761  41.488  50.879  1.00  0.00     0.169 HD
HETATM   20  O   UNL     1      28.064  40.763  53.493  1.00  0.00    -0.273 OA
BRANCH  18  21
HETATM   21  C   UNL     1      28.407  39.960  50.639  1.00  0.00     0.034 A 
HETATM   22  C   UNL     1      29.063  38.750  50.381  1.00  0.00     0.032 A 
HETATM   23  C   UNL     1      28.435  37.730  49.653  1.00  0.00     0.039 A 
HETATM   24  C   UNL     1      27.136  37.906  49.185  1.00  0.00     0.068 A 
HETATM   25  C   UNL     1      26.482  39.112  49.440  1.00  0.00     0.039 A 
HETATM   26  C   UNL     1      27.111  40.135  50.160  1.00  0.00     0.032 A 
BRANCH  24  27
HETATM   27  O   UNL     1      26.403  36.995  48.480  1.00  0.00    -0.356 OA
HETATM   28  C   UNL     1      25.717  37.467  47.327  1.00  0.00     0.210 C 
ENDBRANCH  24  27
ENDBRANCH  18  21
ENDBRANCH  16  17
ENDBRANCH   2  16
TORSDOF 6
ENDMDL
MODEL 6
REMARK VINA RESULT:      -7.5      6.083     10.237
REMARK  6 active torsions:
REMARK  status: ('A' for Active; 'I' for Inactive)
REMARK    1  A    between atoms: C_2  and  N_3 
REMARK    2  A    between atoms: C_2  and  C_16 
REMARK    3  A    between atoms: N_3  and  C_6 
REMARK    4  A    between atoms: C_16  and  C_17 
REMARK       I    between atoms: C_17  and  N_18 
REMARK    5  A    between atoms: N_18  and  C_19 
REMARK    6  A    between atoms: C_22  and  O_23 
ROOT
HETATM    1  C   UNL     1      16.479  47.111  49.025  1.00  0.00     0.040 C 
HETATM    2  C   UNL     1      17.875  47.191  48.420  1.00  0.00     0.191 C 
ENDROOT
BRANCH   2   3
HETATM    3  N   UNL     1      17.857  48.040  47.171  1.00  0.00    -0.063 N 
HETATM    4  H   UNL     1      18.838  48.375  47.040  1.00  0.00     0.278 HD
HETATM    5  H   UNL     1      17.711  47.408  46.376  1.00  0.00     0.278 HD
BRANCH   3   6
HETATM    6  C   UNL     1      16.941  49.228  47.036  1.00  0.00     0.221 C 
HETATM    7  C   UNL     1      17.343  50.407  47.882  1.00  0.00    -0.011 A 
HETATM    8  C   UNL     1      18.485  51.151  47.545  1.00  0.00     0.009 A 
HETATM    9  C   UNL     1      16.584  50.785  49.002  1.00  0.00     0.011 A 
HETATM   10  C   UNL     1      18.894  52.209  48.361  1.00  0.00     0.019 A 
HETATM   11  S   UNL     1      19.468  50.740  46.118  1.00  0.00    -0.129 SA
HETATM   12  C   UNL     1      18.149  52.559  49.485  1.00  0.00     0.001 A 
HETATM   13  C   UNL     1      16.990  51.855  49.801  1.00  0.00     0.001 A 
HETATM   14  C   UNL     1      18.204  50.126  44.959  1.00  0.00     0.082 C 
HETATM   15  C   UNL     1      16.881  49.666  45.568  1.00  0.00     0.048 C 
ENDBRANCH   3   6
ENDBRANCH   2   3
BRANCH   2  16
HETATM   16  C   UNL     1      18.930  47.626  49.444  1.00  0.00     0.135 C 
BRANCH  16  17
HETATM   17  C   UNL     1      20.288  47.776  48.795  1.00  0.00     0.224 C 
HETATM   18  N   UNL     1      21.012  48.830  49.304  1.00  0.00    -0.327 N 
HETATM   19  H   UNL     1      20.549  49.451  49.957  1.00  0.00     0.169 HD
HETATM   20  O   UNL     1      20.604  47.017  47.882  1.00  0.00    -0.273 OA
BRANCH  18  21
HETATM   21  C   UNL     1      22.328  49.203  48.959  1.00  0.00     0.034 A 
HETATM   22  C   UNL     1      23.372  48.429  49.481  1.00  0.00     0.032 A 
HETATM   23  C   UNL     1      24.708  48.715  49.167  1.00  0.00     0.039 A 
HETATM   24  C   UNL     1      25.013  49.772  48.314  1.00  0.00     0.068 A 
HETATM   25  C   UNL     1      23.974  50.544  47.794  1.00  0.00     0.039 A 
HETATM   26  C   UNL     1      22.639  50.266  48.114  1.00  0.00     0.032 A 
BRANCH  24  27
HETATM   27  O   UNL     1      26.263  50.150  47.914  1.00  0.00    -0.356 OA
HETATM   28  C   UNL     1      27.360  49.691  48.694  1.00  0.00     0.210 C 
ENDBRANCH  24  27
ENDBRANCH  18  21
ENDBRANCH  16  17
ENDBRANCH   2  16
TORSDOF 6
ENDMDL
MODEL 7
REMARK VINA RESULT:      -7.2     17.499     19.742
REMARK  6 active torsions:
REMARK  status: ('A' for Active; 'I' for Inactive)
REMARK    1  A    between atoms: C_2  and  N_3 
REMARK    2  A    between atoms: C_2  and  C_16 
REMARK    3  A    between atoms: N_3  and  C_6 
REMARK    4  A    between atoms: C_16  and  C_17 
REMARK       I    between atoms: C_17  and  N_18 
REMARK    5  A    between atoms: N_18  and  C_19 
REMARK    6  A    between atoms: C_22  and  O_23 
ROOT
HETATM    1  C   UNL     1      37.400  49.306  66.274  1.00  0.00     0.040 C 
HETATM    2  C   UNL     1      37.932  48.855  64.920  1.00  0.00     0.191 C 
ENDROOT
BRANCH   2   3
HETATM    3  N   UNL     1      39.167  48.005  65.099  1.00  0.00    -0.063 N 
HETATM    4  H   UNL     1      39.037  47.177  64.475  1.00  0.00     0.278 HD
HETATM    5  H   UNL     1      39.949  48.510  64.667  1.00  0.00     0.278 HD
BRANCH   3   6
HETATM    6  C   UNL     1      39.591  47.500  66.454  1.00  0.00     0.221 C 
HETATM    7  C   UNL     1      39.600  45.998  66.569  1.00  0.00    -0.011 A 
HETATM    8  C   UNL     1      40.583  45.253  65.898  1.00  0.00     0.009 A 
HETATM    9  C   UNL     1      38.644  45.328  67.349  1.00  0.00     0.011 A 
HETATM   10  C   UNL     1      40.559  43.858  65.954  1.00  0.00     0.019 A 
HETATM   11  S   UNL     1      41.840  46.050  64.920  1.00  0.00    -0.129 SA
HETATM   12  C   UNL     1      39.590  43.200  66.711  1.00  0.00     0.001 A 
HETATM   13  C   UNL     1      38.639  43.934  67.416  1.00  0.00     0.001 A 
HETATM   14  C   UNL     1      42.108  47.596  65.845  1.00  0.00     0.082 C 
HETATM   15  C   UNL     1      40.988  48.034  66.788  1.00  0.00     0.048 C 
ENDBRANCH   3   6
ENDBRANCH   2   3
BRANCH   2  16
HETATM   16  C   UNL     1      36.850  48.192  64.060  1.00  0.00     0.135 C 
BRANCH  16  17
HETATM   17  C   UNL     1      36.810  46.697  64.292  1.00  0.00     0.224 C 
HETATM   18  N   UNL     1      37.597  45.996  63.407  1.00  0.00    -0.327 N 
HETATM   19  H   UNL     1      38.024  46.508  62.643  1.00  0.00     0.169 HD
HETATM   20  O   UNL     1      36.084  46.246  65.174  1.00  0.00    -0.273 OA
BRANCH  18  21
HETATM   21  C   UNL     1      37.824  44.604  63.390  1.00  0.00     0.034 A 
HETATM   22  C   UNL     1      38.973  44.149  62.731  1.00  0.00     0.032 A 
HETATM   23  C   UNL     1      39.287  42.784  62.689  1.00  0.00     0.039 A 
HETATM   24  C   UNL     1      38.459  41.858  63.318  1.00  0.00     0.068 A 
HETATM   25  C   UNL     1      37.313  42.310  63.974  1.00  0.00     0.039 A 
HETATM   26  C   UNL     1      36.994  43.673  64.010  1.00  0.00     0.032 A 
BRANCH  24  27
HETATM   27  O   UNL     1      38.652  40.507  63.368  1.00  0.00    -0.356 OA
HETATM   28  C   UNL     1      39.973  40.050  63.628  1.00  0.00     0.210 C 
ENDBRANCH  24  27
ENDBRANCH  18  21
ENDBRANCH  16  17
ENDBRANCH   2  16
TORSDOF 6
ENDMDL
MODEL 8
REMARK VINA RESULT:      -7.2     17.924     20.303
REMARK  6 active torsions:
REMARK  status: ('A' for Active; 'I' for Inactive)
REMARK    1  A    between atoms: C_2  and  N_3 
REMARK    2  A    between atoms: C_2  and  C_16 
REMARK    3  A    between atoms: N_3  and  C_6 
REMARK    4  A    between atoms: C_16  and  C_17 
REMARK       I    between atoms: C_17  and  N_18 
REMARK    5  A    between atoms: N_18  and  C_19 
REMARK    6  A    between atoms: C_22  and  O_23 
ROOT
HETATM    1  C   UNL     1      41.026  48.695  68.297  1.00  0.00     0.040 C 
HETATM    2  C   UNL     1      40.146  48.733  67.054  1.00  0.00     0.191 C 
ENDROOT
BRANCH   2   3
HETATM    3  N   UNL     1      39.726  50.152  66.753  1.00  0.00    -0.063 N 
HETATM    4  H   UNL     1      39.640  50.627  67.680  1.00  0.00     0.278 HD
HETATM    5  H   UNL     1      40.529  50.621  66.318  1.00  0.00     0.278 HD
BRANCH   3   6
HETATM    6  C   UNL     1      38.482  50.458  65.960  1.00  0.00     0.221 C 
HETATM    7  C   UNL     1      37.551  49.284  65.810  1.00  0.00    -0.011 A 
HETATM    8  C   UNL     1      36.823  48.825  66.920  1.00  0.00     0.009 A 
HETATM    9  C   UNL     1      37.387  48.646  64.570  1.00  0.00     0.011 A 
HETATM   10  C   UNL     1      36.004  47.700  66.799  1.00  0.00     0.019 A 
HETATM   11  S   UNL     1      36.965  49.615  68.510  1.00  0.00    -0.129 SA
HETATM   12  C   UNL     1      35.868  47.057  65.569  1.00  0.00     0.001 A 
HETATM   13  C   UNL     1      36.551  47.534  64.454  1.00  0.00     0.001 A 
HETATM   14  C   UNL     1      37.222  51.356  68.039  1.00  0.00     0.082 C 
HETATM   15  C   UNL     1      37.723  51.616  66.620  1.00  0.00     0.048 C 
ENDBRANCH   3   6
ENDBRANCH   2   3
BRANCH   2  16
HETATM   16  C   UNL     1      40.790  48.017  65.862  1.00  0.00     0.135 C 
BRANCH  16  17
HETATM   17  C   UNL     1      40.206  46.634  65.677  1.00  0.00     0.224 C 
HETATM   18  N   UNL     1      40.242  46.207  64.369  1.00  0.00    -0.327 N 
HETATM   19  H   UNL     1      40.538  46.869  63.662  1.00  0.00     0.169 HD
HETATM   20  O   UNL     1      39.728  46.050  66.647  1.00  0.00    -0.273 OA
BRANCH  18  21
HETATM   21  C   UNL     1      39.832  44.951  63.874  1.00  0.00     0.034 A 
HETATM   22  C   UNL     1      40.793  43.932  63.835  1.00  0.00     0.032 A 
HETATM   23  C   UNL     1      40.463  42.648  63.382  1.00  0.00     0.039 A 
HETATM   24  C   UNL     1      39.162  42.365  62.974  1.00  0.00     0.068 A 
HETATM   25  C   UNL     1      38.205  43.379  63.011  1.00  0.00     0.039 A 
HETATM   26  C   UNL     1      38.535  44.665  63.456  1.00  0.00     0.032 A 
BRANCH  24  27
HETATM   27  O   UNL     1      38.702  41.159  62.526  1.00  0.00    -0.356 OA
HETATM   28  C   UNL     1      39.359  39.994  63.009  1.00  0.00     0.210 C 
ENDBRANCH  24  27
ENDBRANCH  18  21
ENDBRANCH  16  17
ENDBRANCH   2  16
TORSDOF 6
ENDMDL
MODEL 9
REMARK VINA RESULT:      -7.1      4.950      8.507
REMARK  6 active torsions:
REMARK  status: ('A' for Active; 'I' for Inactive)
REMARK    1  A    between atoms: C_2  and  N_3 
REMARK    2  A    between atoms: C_2  and  C_16 
REMARK    3  A    between atoms: N_3  and  C_6 
REMARK    4  A    between atoms: C_16  and  C_17 
REMARK       I    between atoms: C_17  and  N_18 
REMARK    5  A    between atoms: N_18  and  C_19 
REMARK    6  A    between atoms: C_22  and  O_23 
ROOT
HETATM    1  C   UNL     1      29.468  43.136  52.550  1.00  0.00     0.040 C 
HETATM    2  C   UNL     1      28.243  42.243  52.398  1.00  0.00     0.191 C 
ENDROOT
BRANCH   2   3
HETATM    3  N   UNL     1      27.259  42.864  51.436  1.00  0.00    -0.063 N 
HETATM    4  H   UNL     1      27.762  43.663  50.989  1.00  0.00     0.278 HD
HETATM    5  H   UNL     1      27.130  42.201  50.663  1.00  0.00     0.278 HD
BRANCH   3   6
HETATM    6  C   UNL     1      25.913  43.362  51.893  1.00  0.00     0.221 C 
HETATM    7  C   UNL     1      25.939  44.758  52.457  1.00  0.00    -0.011 A 
HETATM    8  C   UNL     1      26.140  45.853  51.601  1.00  0.00     0.009 A 
HETATM    9  C   UNL     1      25.752  44.985  53.830  1.00  0.00     0.011 A 
HETATM   10  C   UNL     1      26.223  47.143  52.129  1.00  0.00     0.019 A 
HETATM   11  S   UNL     1      26.349  45.629  49.847  1.00  0.00    -0.129 SA
HETATM   12  C   UNL     1      26.063  47.356  53.498  1.00  0.00     0.001 A 
HETATM   13  C   UNL     1      25.818  46.281  54.347  1.00  0.00     0.001 A 
HETATM   14  C   UNL     1      25.273  44.195  49.523  1.00  0.00     0.082 C 
HETATM   15  C   UNL     1      24.923  43.316  50.723  1.00  0.00     0.048 C 
ENDBRANCH   3   6
ENDBRANCH   2   3
BRANCH   2  16
HETATM   16  C   UNL     1      28.616  40.797  52.048  1.00  0.00     0.135 C 
BRANCH  16  17
HETATM   17  C   UNL     1      27.954  40.362  50.759  1.00  0.00     0.224 C 
HETATM   18  N   UNL     1      28.834  40.282  49.704  1.00  0.00    -0.327 N 
HETATM   19  H   UNL     1      29.780  40.616  49.850  1.00  0.00     0.169 HD
HETATM   20  O   UNL     1      26.741  40.168  50.744  1.00  0.00    -0.273 OA
BRANCH  18  21
HETATM   21  C   UNL     1      28.549  39.853  48.391  1.00  0.00     0.034 A 
HETATM   22  C   UNL     1      28.251  40.842  47.444  1.00  0.00     0.032 A 
HETATM   23  C   UNL     1      27.982  40.504  46.111  1.00  0.00     0.039 A 
HETATM   24  C   UNL     1      28.021  39.173  45.707  1.00  0.00     0.068 A 
HETATM   25  C   UNL     1      28.317  38.187  46.649  1.00  0.00     0.039 A 
HETATM   26  C   UNL     1      28.578  38.521  47.983  1.00  0.00     0.032 A 
BRANCH  24  27
HETATM   27  O   UNL     1      27.795  38.707  44.442  1.00  0.00    -0.356 OA
HETATM   28  C   UNL     1      28.542  39.302  43.389  1.00  0.00     0.210 C 
ENDBRANCH  24  27
ENDBRANCH  18  21
ENDBRANCH  16  17
ENDBRANCH   2  16
TORSDOF 6
ENDMDL
MODEL 10
REMARK VINA RESULT:      -7.0     17.841     20.014
REMARK  6 active torsions:
REMARK  status: ('A' for Active; 'I' for Inactive)
REMARK    1  A    between atoms: C_2  and  N_3 
REMARK    2  A    between atoms: C_2  and  C_16 
REMARK    3  A    between atoms: N_3  and  C_6 
REMARK    4  A    between atoms: C_16  and  C_17 
REMARK       I    between atoms: C_17  and  N_18 
REMARK    5  A    between atoms: N_18  and  C_19 
REMARK    6  A    between atoms: C_22  and  O_23 
ROOT
HETATM    1  C   UNL     1      39.377  49.368  64.571  1.00  0.00     0.040 C 
HETATM    2  C   UNL     1      40.034  48.902  65.864  1.00  0.00     0.191 C 
ENDROOT
BRANCH   2   3
HETATM    3  N   UNL     1      38.986  48.446  66.850  1.00  0.00    -0.063 N 
HETATM    4  H   UNL     1      39.217  47.452  67.074  1.00  0.00     0.278 HD
HETATM    5  H   UNL     1      39.164  48.938  67.733  1.00  0.00     0.278 HD
BRANCH   3   6
HETATM    6  C   UNL     1      37.515  48.517  66.531  1.00  0.00     0.221 C 
HETATM    7  C   UNL     1      36.896  47.182  66.210  1.00  0.00    -0.011 A 
HETATM    8  C   UNL     1      36.708  46.237  67.232  1.00  0.00     0.009 A 
HETATM    9  C   UNL     1      36.490  46.869  64.903  1.00  0.00     0.011 A 
HETATM   10  C   UNL     1      36.188  44.977  66.927  1.00  0.00     0.019 A 
HETATM   11  S   UNL     1      37.172  46.590  68.914  1.00  0.00    -0.129 SA
HETATM   12  C   UNL     1      35.813  44.666  65.621  1.00  0.00     0.001 A 
HETATM   13  C   UNL     1      35.955  45.614  64.611  1.00  0.00     0.001 A 
HETATM   14  C   UNL     1      36.835  48.377  69.027  1.00  0.00     0.082 C 
HETATM   15  C   UNL     1      36.763  49.145  67.710  1.00  0.00     0.048 C 
ENDBRANCH   3   6
ENDBRANCH   2   3
BRANCH   2  16
HETATM   16  C   UNL     1      41.136  47.865  65.616  1.00  0.00     0.135 C 
BRANCH  16  17
HETATM   17  C   UNL     1      40.562  46.466  65.548  1.00  0.00     0.224 C 
HETATM   18  N   UNL     1      40.492  45.978  64.263  1.00  0.00    -0.327 N 
HETATM   19  H   UNL     1      40.714  46.610  63.503  1.00  0.00     0.169 HD
HETATM   20  O   UNL     1      40.181  45.923  66.582  1.00  0.00    -0.273 OA
BRANCH  18  21
HETATM   21  C   UNL     1      40.062  44.695  63.864  1.00  0.00     0.034 A 
HETATM   22  C   UNL     1      38.890  44.619  63.100  1.00  0.00     0.032 A 
HETATM   23  C   UNL     1      38.407  43.387  62.641  1.00  0.00     0.039 A 
HETATM   24  C   UNL     1      39.101  42.215  62.931  1.00  0.00     0.068 A 
HETATM   25  C   UNL     1      40.267  42.289  63.692  1.00  0.00     0.039 A 
HETATM   26  C   UNL     1      40.747  43.518  64.159  1.00  0.00     0.032 A 
BRANCH  24  27
HETATM   27  O   UNL     1      38.753  40.954  62.536  1.00  0.00    -0.356 OA
HETATM   28  C   UNL     1      39.554  39.881  63.014  1.00  0.00     0.210 C 
ENDBRANCH  24  27
ENDBRANCH  18  21
ENDBRANCH  16  17
ENDBRANCH   2  16
TORSDOF 6
ENDMDL
