MODEL 1
REMARK VINA RESULT:      -7.9      0.000      0.000
REMARK  3 active torsions:
REMARK  status: ('A' for Active; 'I' for Inactive)
REMARK       I    between atoms: C_2  and  N_3 
REMARK    1  A    between atoms: N_3  and  C_4 
REMARK    2  A    between atoms: C_7  and  N_8 
REMARK       I    between atoms: N_8  and  C_9 
REMARK    3  A    between atoms: C_9  and  C_10 
ROOT
HETATM    1  C   UNL     1      25.318  44.723  51.051  1.00  0.00     0.052 A 
HETATM    2  C   UNL     1      26.583  44.152  50.992  1.00  0.00     0.148 A 
HETATM    3  N   UNL     1      27.451  44.112  52.037  1.00  0.00    -0.241 NA
HETATM    4  C   UNL     1      27.061  44.667  53.202  1.00  0.00     0.130 A 
HETATM    5  C   UNL     1      25.818  45.261  53.356  1.00  0.00     0.053 A 
HETATM    6  C   UNL     1      24.941  45.285  52.269  1.00  0.00     0.035 A 
ENDROOT
BRANCH   4   7
HETATM    7  N   UNL     1      28.023  44.568  54.208  1.00  0.00    -0.307 N 
HETATM    8  C   UNL     1      28.585  45.568  54.960  1.00  0.00     0.259 C 
HETATM    9  O   UNL     1      28.310  46.760  54.846  1.00  0.00    -0.267 OA
HETATM   10  H   UNL     1      28.323  43.610  54.338  1.00  0.00     0.170 HD
BRANCH   8  11
HETATM   11  C   UNL     1      29.587  45.173  56.012  1.00  0.00     0.054 A 
HETATM   12  C   UNL     1      30.524  44.130  55.929  1.00  0.00     0.049 A 
HETATM   13 CL   UNL     1      30.734  43.104  54.553  1.00  0.00    -0.083 Cl
HETATM   14  C   UNL     1      31.395  43.875  57.003  1.00  0.00     0.025 A 
HETATM   15  C   UNL     1      31.350  44.652  58.160  1.00  0.00     0.002 A 
HETATM   16  C   UNL     1      30.437  45.692  58.253  1.00  0.00     0.001 A 
HETATM   17  C   UNL     1      29.566  45.948  57.191  1.00  0.00     0.019 A 
ENDBRANCH   8  11
ENDBRANCH   4   7
BRANCH   1  18
HETATM   18  N   UNL     1      24.392  44.771  49.989  1.00  0.00    -0.326 N 
HETATM   19  C   UNL     1      23.236  44.024  49.867  1.00  0.00     0.218 C 
HETATM   20  C   UNL     1      22.482  44.346  48.602  1.00  0.00     0.117 C 
HETATM   21  O   UNL     1      22.829  43.178  50.653  1.00  0.00    -0.274 OA
HETATM   22  H   UNL     1      24.602  45.420  49.240  1.00  0.00     0.169 HD
ENDBRANCH   1  18
TORSDOF 3
ENDMDL
MODEL 2
REMARK VINA RESULT:      -7.8      7.454      9.971
REMARK  3 active torsions:
REMARK  status: ('A' for Active; 'I' for Inactive)
REMARK       I    between atoms: C_2  and  N_3 
REMARK    1  A    between atoms: N_3  and  C_4 
REMARK    2  A    between atoms: C_7  and  N_8 
REMARK       I    between atoms: N_8  and  C_9 
REMARK    3  A    between atoms: C_9  and  C_10 
ROOT
HETATM    1  C   UNL     1      18.346  51.051  49.385  1.00  0.00     0.052 A 
HETATM    2  C   UNL     1      18.969  50.083  50.163  1.00  0.00     0.148 A 
HETATM    3  N   UNL     1      20.303  49.822  50.132  1.00  0.00    -0.241 NA
HETATM    4  C   UNL     1      21.067  50.546  49.289  1.00  0.00     0.130 A 
HETATM    5  C   UNL     1      20.535  51.531  48.473  1.00  0.00     0.053 A 
HETATM    6  C   UNL     1      19.161  51.784  48.527  1.00  0.00     0.035 A 
ENDROOT
BRANCH   4   7
HETATM    7  N   UNL     1      22.419  50.202  49.339  1.00  0.00    -0.307 N 
HETATM    8  C   UNL     1      23.098  49.277  48.587  1.00  0.00     0.259 C 
HETATM    9  O   UNL     1      22.584  48.577  47.717  1.00  0.00    -0.267 OA
HETATM   10  H   UNL     1      22.904  50.720  50.060  1.00  0.00     0.170 HD
BRANCH   8  11
HETATM   11  C   UNL     1      24.576  49.129  48.829  1.00  0.00     0.054 A 
HETATM   12  C   UNL     1      25.208  48.127  49.582  1.00  0.00     0.049 A 
HETATM   13 CL   UNL     1      24.387  46.819  50.361  1.00  0.00    -0.083 Cl
HETATM   14  C   UNL     1      26.606  48.125  49.726  1.00  0.00     0.025 A 
HETATM   15  C   UNL     1      27.388  49.106  49.120  1.00  0.00     0.002 A 
HETATM   16  C   UNL     1      26.781  50.099  48.364  1.00  0.00     0.001 A 
HETATM   17  C   UNL     1      25.391  50.109  48.221  1.00  0.00     0.019 A 
ENDBRANCH   8  11
ENDBRANCH   4   7
BRANCH   1  18
HETATM   18  N   UNL     1      16.969  51.350  49.403  1.00  0.00    -0.326 N 
HETATM   19  C   UNL     1      16.388  52.544  49.788  1.00  0.00     0.218 C 
HETATM   20  C   UNL     1      14.886  52.511  49.667  1.00  0.00     0.117 C 
HETATM   21  O   UNL     1      16.972  53.539  50.199  1.00  0.00    -0.274 OA
HETATM   22  H   UNL     1      16.345  50.611  49.103  1.00  0.00     0.169 HD
ENDBRANCH   1  18
TORSDOF 3
ENDMDL
MODEL 3
REMARK VINA RESULT:      -7.7      3.048      3.454
REMARK  3 active torsions:
REMARK  status: ('A' for Active; 'I' for Inactive)
REMARK       I    between atoms: C_2  and  N_3 
REMARK    1  A    between atoms: N_3  and  C_4 
REMARK    2  A    between atoms: C_7  and  N_8 
REMARK       I    between atoms: N_8  and  C_9 
REMARK    3  A    between atoms: C_9  and  C_10 
ROOT
HETATM    1  C   UNL     1      26.823  41.359  50.588  1.00  0.00     0.052 A 
HETATM    2  C   UNL     1      27.842  40.816  51.360  1.00  0.00     0.148 A 
HETATM    3  N   UNL     1      28.373  41.419  52.456  1.00  0.00    -0.241 NA
HETATM    4  C   UNL     1      27.882  42.624  52.812  1.00  0.00     0.130 A 
HETATM    5  C   UNL     1      26.867  43.245  52.102  1.00  0.00     0.053 A 
HETATM    6  C   UNL     1      26.334  42.602  50.981  1.00  0.00     0.035 A 
ENDROOT
BRANCH   4   7
HETATM    7  N   UNL     1      28.492  43.152  53.951  1.00  0.00    -0.307 N 
HETATM    8  C   UNL     1      29.828  43.328  54.205  1.00  0.00     0.259 C 
HETATM    9  O   UNL     1      30.729  43.026  53.426  1.00  0.00    -0.267 OA
HETATM   10  H   UNL     1      27.808  43.397  54.655  1.00  0.00     0.170 HD
BRANCH   8  11
HETATM   11  C   UNL     1      30.213  43.958  55.518  1.00  0.00     0.054 A 
HETATM   12  C   UNL     1      29.761  45.187  56.024  1.00  0.00     0.049 A 
HETATM   13 CL   UNL     1      28.619  46.216  55.231  1.00  0.00    -0.083 Cl
HETATM   14  C   UNL     1      30.219  45.651  57.270  1.00  0.00     0.025 A 
HETATM   15  C   UNL     1      31.119  44.900  58.025  1.00  0.00     0.002 A 
HETATM   16  C   UNL     1      31.567  43.678  57.543  1.00  0.00     0.001 A 
HETATM   17  C   UNL     1      31.119  43.214  56.304  1.00  0.00     0.019 A 
ENDBRANCH   8  11
ENDBRANCH   4   7
BRANCH   1  18
HETATM   18  N   UNL     1      26.246  40.753  49.453  1.00  0.00    -0.326 N 
HETATM   19  C   UNL     1      26.679  40.870  48.146  1.00  0.00     0.218 C 
HETATM   20  C   UNL     1      25.826  40.073  47.191  1.00  0.00     0.117 C 
HETATM   21  O   UNL     1      27.626  41.537  47.748  1.00  0.00    -0.274 OA
HETATM   22  H   UNL     1      25.431  40.176  49.618  1.00  0.00     0.169 HD
ENDBRANCH   1  18
TORSDOF 3
ENDMDL
MODEL 4
REMARK VINA RESULT:      -7.7      1.912      2.643
REMARK  3 active torsions:
REMARK  status: ('A' for Active; 'I' for Inactive)
REMARK       I    between atoms: C_2  and  N_3 
REMARK    1  A    between atoms: N_3  and  C_4 
REMARK    2  A    between atoms: C_7  and  N_8 
REMARK       I    between atoms: N_8  and  C_9 
REMARK    3  A    between atoms: C_9  and  C_10 
ROOT
HETATM    1  C   UNL     1      25.085  44.057  49.186  1.00  0.00     0.052 A 
HETATM    2  C   UNL     1      25.567  45.223  49.767  1.00  0.00     0.148 A 
HETATM    3  N   UNL     1      26.454  45.252  50.797  1.00  0.00    -0.241 NA
HETATM    4  C   UNL     1      26.887  44.073  51.288  1.00  0.00     0.130 A 
HETATM    5  C   UNL     1      26.461  42.859  50.774  1.00  0.00     0.053 A 
HETATM    6  C   UNL     1      25.553  42.855  49.711  1.00  0.00     0.035 A 
ENDROOT
BRANCH   4   7
HETATM    7  N   UNL     1      27.796  44.215  52.338  1.00  0.00    -0.307 N 
HETATM    8  C   UNL     1      27.556  44.201  53.688  1.00  0.00     0.259 C 
HETATM    9  O   UNL     1      26.445  44.058  54.195  1.00  0.00    -0.267 OA
HETATM   10  H   UNL     1      28.735  44.370  51.994  1.00  0.00     0.170 HD
BRANCH   8  11
HETATM   11  C   UNL     1      28.737  44.346  54.610  1.00  0.00     0.054 A 
HETATM   12  C   UNL     1      29.065  45.471  55.384  1.00  0.00     0.049 A 
HETATM   13 CL   UNL     1      28.127  46.922  55.455  1.00  0.00    -0.083 Cl
HETATM   14  C   UNL     1      30.213  45.461  56.196  1.00  0.00     0.025 A 
HETATM   15  C   UNL     1      31.038  44.339  56.254  1.00  0.00     0.002 A 
HETATM   16  C   UNL     1      30.722  43.216  55.502  1.00  0.00     0.001 A 
HETATM   17  C   UNL     1      29.585  43.221  54.690  1.00  0.00     0.019 A 
ENDBRANCH   8  11
ENDBRANCH   4   7
BRANCH   1  18
HETATM   18  N   UNL     1      24.174  43.996  48.111  1.00  0.00    -0.326 N 
HETATM   19  C   UNL     1      22.808  43.805  48.198  1.00  0.00     0.218 C 
HETATM   20  C   UNL     1      22.147  43.806  46.843  1.00  0.00     0.117 C 
HETATM   21  O   UNL     1      22.159  43.637  49.222  1.00  0.00    -0.274 OA
HETATM   22  H   UNL     1      24.566  44.101  47.184  1.00  0.00     0.169 HD
ENDBRANCH   1  18
TORSDOF 3
ENDMDL
MODEL 5
REMARK VINA RESULT:      -7.5      7.337      9.841
REMARK  3 active torsions:
REMARK  status: ('A' for Active; 'I' for Inactive)
REMARK       I    between atoms: C_2  and  N_3 
REMARK    1  A    between atoms: N_3  and  C_4 
REMARK    2  A    between atoms: C_7  and  N_8 
REMARK       I    between atoms: N_8  and  C_9 
REMARK    3  A    between atoms: C_9  and  C_10 
ROOT
HETATM    1  C   UNL     1      18.545  51.757  49.341  1.00  0.00     0.052 A 
HETATM    2  C   UNL     1      18.821  50.708  50.209  1.00  0.00     0.148 A 
HETATM    3  N   UNL     1      20.031  50.095  50.304  1.00  0.00    -0.241 NA
HETATM    4  C   UNL     1      21.022  50.530  49.501  1.00  0.00     0.130 A 
HETATM    5  C   UNL     1      20.841  51.569  48.602  1.00  0.00     0.053 A 
HETATM    6  C   UNL     1      19.590  52.187  48.526  1.00  0.00     0.035 A 
ENDROOT
BRANCH   4   7
HETATM    7  N   UNL     1      22.220  49.837  49.681  1.00  0.00    -0.307 N 
HETATM    8  C   UNL     1      22.905  49.058  48.784  1.00  0.00     0.259 C 
HETATM    9  O   UNL     1      22.539  48.843  47.630  1.00  0.00    -0.267 OA
HETATM   10  H   UNL     1      22.568  49.943  50.626  1.00  0.00     0.170 HD
BRANCH   8  11
HETATM   11  C   UNL     1      24.204  48.447  49.237  1.00  0.00     0.054 A 
HETATM   12  C   UNL     1      25.498  48.882  48.906  1.00  0.00     0.049 A 
HETATM   13 CL   UNL     1      25.849  50.261  47.923  1.00  0.00    -0.083 Cl
HETATM   14  C   UNL     1      26.622  48.199  49.402  1.00  0.00     0.025 A 
HETATM   15  C   UNL     1      26.476  47.090  50.232  1.00  0.00     0.002 A 
HETATM   16  C   UNL     1      25.205  46.653  50.577  1.00  0.00     0.001 A 
HETATM   17  C   UNL     1      24.083  47.324  50.084  1.00  0.00     0.019 A 
ENDBRANCH   8  11
ENDBRANCH   4   7
BRANCH   1  18
HETATM   18  N   UNL     1      17.305  52.418  49.227  1.00  0.00    -0.326 N 
HETATM   19  C   UNL     1      16.120  51.876  48.768  1.00  0.00     0.218 C 
HETATM   20  C   UNL     1      14.990  52.874  48.795  1.00  0.00     0.117 C 
HETATM   21  O   UNL     1      15.950  50.733  48.364  1.00  0.00    -0.274 OA
HETATM   22  H   UNL     1      17.287  53.390  49.509  1.00  0.00     0.169 HD
ENDBRANCH   1  18
TORSDOF 3
ENDMDL
MODEL 6
REMARK VINA RESULT:      -7.4      2.792      8.118
REMARK  3 active torsions:
REMARK  status: ('A' for Active; 'I' for Inactive)
REMARK       I    between atoms: C_2  and  N_3 
REMARK    1  A    between atoms: N_3  and  C_4 
REMARK    2  A    between atoms: C_7  and  N_8 
REMARK       I    between atoms: N_8  and  C_9 
REMARK    3  A    between atoms: C_9  and  C_10 
ROOT
HETATM    1  C   UNL     1      29.344  43.674  54.416  1.00  0.00     0.052 A 
HETATM    2  C   UNL     1      28.302  44.559  54.658  1.00  0.00     0.148 A 
HETATM    3  N   UNL     1      27.388  44.936  53.724  1.00  0.00    -0.241 NA
HETATM    4  C   UNL     1      27.506  44.421  52.484  1.00  0.00     0.130 A 
HETATM    5  C   UNL     1      28.515  43.532  52.148  1.00  0.00     0.053 A 
HETATM    6  C   UNL     1      29.439  43.156  53.127  1.00  0.00     0.035 A 
ENDROOT
BRANCH   4   7
HETATM    7  N   UNL     1      26.518  44.868  51.606  1.00  0.00    -0.307 N 
HETATM    8  C   UNL     1      25.171  44.610  51.626  1.00  0.00     0.259 C 
HETATM    9  O   UNL     1      24.612  43.906  52.464  1.00  0.00    -0.267 OA
HETATM   10  H   UNL     1      26.912  45.432  50.864  1.00  0.00     0.170 HD
BRANCH   8  11
HETATM   11  C   UNL     1      24.320  45.253  50.564  1.00  0.00     0.054 A 
HETATM   12  C   UNL     1      23.379  44.613  49.741  1.00  0.00     0.049 A 
HETATM   13 CL   UNL     1      22.985  42.931  49.822  1.00  0.00    -0.083 Cl
HETATM   14  C   UNL     1      22.661  45.350  48.782  1.00  0.00     0.025 A 
HETATM   15  C   UNL     1      22.862  46.721  48.637  1.00  0.00     0.002 A 
HETATM   16  C   UNL     1      23.781  47.370  49.450  1.00  0.00     0.001 A 
HETATM   17  C   UNL     1      24.501  46.643  50.402  1.00  0.00     0.019 A 
ENDBRANCH   8  11
ENDBRANCH   4   7
BRANCH   1  18
HETATM   18  N   UNL     1      30.300  43.257  55.365  1.00  0.00    -0.326 N 
HETATM   19  C   UNL     1      30.972  44.061  56.267  1.00  0.00     0.218 C 
HETATM   20  C   UNL     1      31.914  43.272  57.140  1.00  0.00     0.117 C 
HETATM   21  O   UNL     1      30.865  45.276  56.380  1.00  0.00    -0.274 OA
HETATM   22  H   UNL     1      30.513  42.268  55.383  1.00  0.00     0.169 HD
ENDBRANCH   1  18
TORSDOF 3
ENDMDL
MODEL 7
REMARK VINA RESULT:      -7.4      4.376      8.568
REMARK  3 active torsions:
REMARK  status: ('A' for Active; 'I' for Inactive)
REMARK       I    between atoms: C_2  and  N_3 
REMARK    1  A    between atoms: N_3  and  C_4 
REMARK    2  A    between atoms: C_7  and  N_8 
REMARK       I    between atoms: N_8  and  C_9 
REMARK    3  A    between atoms: C_9  and  C_10 
ROOT
HETATM    1  C   UNL     1      26.344  43.701  51.690  1.00  0.00     0.052 A 
HETATM    2  C   UNL     1      25.208  44.311  52.207  1.00  0.00     0.148 A 
HETATM    3  N   UNL     1      24.647  45.440  51.696  1.00  0.00    -0.241 NA
HETATM    4  C   UNL     1      25.237  46.005  50.623  1.00  0.00     0.130 A 
HETATM    5  C   UNL     1      26.374  45.470  50.039  1.00  0.00     0.053 A 
HETATM    6  C   UNL     1      26.928  44.306  50.579  1.00  0.00     0.035 A 
ENDROOT
BRANCH   4   7
HETATM    7  N   UNL     1      24.581  47.153  50.177  1.00  0.00    -0.307 N 
HETATM    8  C   UNL     1      23.585  47.263  49.240  1.00  0.00     0.259 C 
HETATM    9  O   UNL     1      23.104  46.315  48.624  1.00  0.00    -0.267 OA
HETATM   10  H   UNL     1      24.950  47.984  50.621  1.00  0.00     0.170 HD
BRANCH   8  11
HETATM   11  C   UNL     1      23.029  48.636  48.970  1.00  0.00     0.054 A 
HETATM   12  C   UNL     1      23.753  49.773  48.576  1.00  0.00     0.049 A 
HETATM   13 CL   UNL     1      25.457  49.799  48.283  1.00  0.00    -0.083 Cl
HETATM   14  C   UNL     1      23.091  50.996  48.368  1.00  0.00     0.025 A 
HETATM   15  C   UNL     1      21.712  51.101  48.539  1.00  0.00     0.002 A 
HETATM   16  C   UNL     1      20.981  49.984  48.918  1.00  0.00     0.001 A 
HETATM   17  C   UNL     1      21.633  48.766  49.131  1.00  0.00     0.019 A 
ENDBRANCH   8  11
ENDBRANCH   4   7
BRANCH   1  18
HETATM   18  N   UNL     1      26.941  42.527  52.191  1.00  0.00    -0.326 N 
HETATM   19  C   UNL     1      27.820  42.437  53.254  1.00  0.00     0.218 C 
HETATM   20  C   UNL     1      28.249  41.016  53.518  1.00  0.00     0.117 C 
HETATM   21  O   UNL     1      28.245  43.366  53.928  1.00  0.00    -0.274 OA
HETATM   22  H   UNL     1      26.699  41.664  51.720  1.00  0.00     0.169 HD
ENDBRANCH   1  18
TORSDOF 3
ENDMDL
MODEL 8
REMARK VINA RESULT:      -7.3     10.651     14.745
REMARK  3 active torsions:
REMARK  status: ('A' for Active; 'I' for Inactive)
REMARK       I    between atoms: C_2  and  N_3 
REMARK    1  A    between atoms: N_3  and  C_4 
REMARK    2  A    between atoms: C_7  and  N_8 
REMARK       I    between atoms: N_8  and  C_9 
REMARK    3  A    between atoms: C_9  and  C_10 
ROOT
HETATM    1  C   UNL     1      20.575  50.202  49.670  1.00  0.00     0.052 A 
HETATM    2  C   UNL     1      19.418  49.975  50.406  1.00  0.00     0.148 A 
HETATM    3  N   UNL     1      18.309  50.759  50.346  1.00  0.00    -0.241 NA
HETATM    4  C   UNL     1      18.338  51.829  49.526  1.00  0.00     0.130 A 
HETATM    5  C   UNL     1      19.447  52.137  48.755  1.00  0.00     0.053 A 
HETATM    6  C   UNL     1      20.573  51.313  48.829  1.00  0.00     0.035 A 
ENDROOT
BRANCH   4   7
HETATM    7  N   UNL     1      17.151  52.562  49.537  1.00  0.00    -0.307 N 
HETATM    8  C   UNL     1      15.949  52.259  48.950  1.00  0.00     0.259 C 
HETATM    9  O   UNL     1      15.735  51.244  48.291  1.00  0.00    -0.267 OA
HETATM   10  H   UNL     1      17.261  53.434  50.039  1.00  0.00     0.170 HD
BRANCH   8  11
HETATM   11  C   UNL     1      14.810  53.223  49.149  1.00  0.00     0.054 A 
HETATM   12  C   UNL     1      14.160  53.972  48.154  1.00  0.00     0.049 A 
HETATM   13 CL   UNL     1      14.531  53.894  46.466  1.00  0.00    -0.083 Cl
HETATM   14  C   UNL     1      13.112  54.844  48.496  1.00  0.00     0.025 A 
HETATM   15  C   UNL     1      12.694  54.975  49.819  1.00  0.00     0.002 A 
HETATM   16  C   UNL     1      13.320  54.235  50.813  1.00  0.00     0.001 A 
HETATM   17  C   UNL     1      14.365  53.370  50.480  1.00  0.00     0.019 A 
ENDBRANCH   8  11
ENDBRANCH   4   7
BRANCH   1  18
HETATM   18  N   UNL     1      21.735  49.402  49.703  1.00  0.00    -0.326 N 
HETATM   19  C   UNL     1      21.984  48.278  48.938  1.00  0.00     0.218 C 
HETATM   20  C   UNL     1      23.336  47.680  49.231  1.00  0.00     0.117 C 
HETATM   21  O   UNL     1      21.230  47.775  48.115  1.00  0.00    -0.274 OA
HETATM   22  H   UNL     1      22.455  49.682  50.357  1.00  0.00     0.169 HD
ENDBRANCH   1  18
TORSDOF 3
ENDMDL
MODEL 9
REMARK VINA RESULT:      -7.3      4.078      4.609
REMARK  3 active torsions:
REMARK  status: ('A' for Active; 'I' for Inactive)
REMARK       I    between atoms: C_2  and  N_3 
REMARK    1  A    between atoms: N_3  and  C_4 
REMARK    2  A    between atoms: C_7  and  N_8 
REMARK       I    between atoms: N_8  and  C_9 
REMARK    3  A    between atoms: C_9  and  C_10 
ROOT
HETATM    1  C   UNL     1      26.712  39.639  49.565  1.00  0.00     0.052 A 
HETATM    2  C   UNL     1      27.992  39.521  50.092  1.00  0.00     0.148 A 
HETATM    3  N   UNL     1      28.475  40.293  51.102  1.00  0.00    -0.241 NA
HETATM    4  C   UNL     1      27.662  41.236  51.618  1.00  0.00     0.130 A 
HETATM    5  C   UNL     1      26.370  41.429  51.156  1.00  0.00     0.053 A 
HETATM    6  C   UNL     1      25.894  40.619  50.120  1.00  0.00     0.035 A 
ENDROOT
BRANCH   4   7
HETATM    7  N   UNL     1      28.252  41.967  52.650  1.00  0.00    -0.307 N 
HETATM    8  C   UNL     1      28.524  43.311  52.702  1.00  0.00     0.259 C 
HETATM    9  O   UNL     1      28.277  44.105  51.798  1.00  0.00    -0.267 OA
HETATM   10  H   UNL     1      28.514  41.369  53.423  1.00  0.00     0.170 HD
BRANCH   8  11
HETATM   11  C   UNL     1      29.145  43.850  53.964  1.00  0.00     0.054 A 
HETATM   12  C   UNL     1      28.748  44.996  54.672  1.00  0.00     0.049 A 
HETATM   13 CL   UNL     1      27.413  46.006  54.237  1.00  0.00    -0.083 Cl
HETATM   14  C   UNL     1      29.434  45.381  55.837  1.00  0.00     0.025 A 
HETATM   15  C   UNL     1      30.510  44.633  56.313  1.00  0.00     0.002 A 
HETATM   16  C   UNL     1      30.908  43.492  55.630  1.00  0.00     0.001 A 
HETATM   17  C   UNL     1      30.233  43.106  54.470  1.00  0.00     0.019 A 
ENDBRANCH   8  11
ENDBRANCH   4   7
BRANCH   1  18
HETATM   18  N   UNL     1      26.181  38.848  48.526  1.00  0.00    -0.326 N 
HETATM   19  C   UNL     1      26.441  38.977  47.175  1.00  0.00     0.218 C 
HETATM   20  C   UNL     1      25.705  37.949  46.354  1.00  0.00     0.117 C 
HETATM   21  O   UNL     1      27.162  39.814  46.648  1.00  0.00    -0.274 OA
HETATM   22  H   UNL     1      25.542  38.113  48.803  1.00  0.00     0.169 HD
ENDBRANCH   1  18
TORSDOF 3
ENDMDL
MODEL 10
REMARK VINA RESULT:      -7.2      4.621      8.804
REMARK  3 active torsions:
REMARK  status: ('A' for Active; 'I' for Inactive)
REMARK       I    between atoms: C_2  and  N_3 
REMARK    1  A    between atoms: N_3  and  C_4 
REMARK    2  A    between atoms: C_7  and  N_8 
REMARK       I    between atoms: N_8  and  C_9 
REMARK    3  A    between atoms: C_9  and  C_10 
ROOT
HETATM    1  C   UNL     1      26.886  45.442  53.081  1.00  0.00     0.052 A 
HETATM    2  C   UNL     1      26.412  46.725  53.325  1.00  0.00     0.148 A 
HETATM    3  N   UNL     1      25.521  47.374  52.529  1.00  0.00    -0.241 NA
HETATM    4  C   UNL     1      25.076  46.732  51.429  1.00  0.00     0.130 A 
HETATM    5  C   UNL     1      25.494  45.452  51.103  1.00  0.00     0.053 A 
HETATM    6  C   UNL     1      26.406  44.804  51.940  1.00  0.00     0.035 A 
ENDROOT
BRANCH   4   7
HETATM    7  N   UNL     1      24.165  47.483  50.685  1.00  0.00    -0.307 N 
HETATM    8  C   UNL     1      24.406  48.331  49.635  1.00  0.00     0.259 C 
HETATM    9  O   UNL     1      25.522  48.567  49.176  1.00  0.00    -0.267 OA
HETATM   10  H   UNL     1      23.221  47.362  51.030  1.00  0.00     0.170 HD
BRANCH   8  11
HETATM   11  C   UNL     1      23.222  48.996  48.986  1.00  0.00     0.054 A 
HETATM   12  C   UNL     1      22.201  48.367  48.255  1.00  0.00     0.049 A 
HETATM   13 CL   UNL     1      22.091  46.661  47.990  1.00  0.00    -0.083 Cl
HETATM   14  C   UNL     1      21.158  49.127  47.699  1.00  0.00     0.025 A 
HETATM   15  C   UNL     1      21.112  50.510  47.867  1.00  0.00     0.002 A 
HETATM   16  C   UNL     1      22.108  51.146  48.595  1.00  0.00     0.001 A 
HETATM   17  C   UNL     1      23.150  50.396  49.148  1.00  0.00     0.019 A 
ENDBRANCH   8  11
ENDBRANCH   4   7
BRANCH   1  18
HETATM   18  N   UNL     1      27.801  44.741  53.893  1.00  0.00    -0.326 N 
HETATM   19  C   UNL     1      28.836  43.934  53.462  1.00  0.00     0.218 C 
HETATM   20  C   UNL     1      29.620  43.353  54.611  1.00  0.00     0.117 C 
HETATM   21  O   UNL     1      29.123  43.674  52.301  1.00  0.00    -0.274 OA
HETATM   22  H   UNL     1      27.682  44.842  54.893  1.00  0.00     0.169 HD
ENDBRANCH   1  18
TORSDOF 3
ENDMDL
