MODEL 1
REMARK VINA RESULT:      -9.4      0.000      0.000
REMARK  6 active torsions:
REMARK  status: ('A' for Active; 'I' for Inactive)
REMARK    1  A    between atoms: O_2  and  C_3 
REMARK    2  A    between atoms: C_6  and  C_7 
REMARK    3  A    between atoms: C_9  and  N_10 
REMARK    4  A    between atoms: N_10  and  N_11 
REMARK       I    between atoms: N_10  and  C_21 
REMARK       I    between atoms: N_11  and  C_12 
REMARK       I    between atoms: C_12  and  N_13 
REMARK    5  A    between atoms: N_13  and  C_14 
REMARK       I    between atoms: C_21  and  N_22 
REMARK    6  A    between atoms: N_22  and  C_23 
ROOT
HETATM    1  N   UNL     1      25.775  46.361  50.823  1.00  0.00    -0.176 N 
HETATM    2  C   UNL     1      26.393  46.725  52.052  1.00  0.00     0.348 C 
HETATM    3  N   UNL     1      26.846  45.617  52.762  1.00  0.00    -0.307 N 
HETATM    4  O   UNL     1      26.494  47.872  52.479  1.00  0.00    -0.245 OA
HETATM    5  H   UNL     1      26.353  44.758  52.526  1.00  0.00     0.170 HD
ENDROOT
BRANCH   1   6
HETATM    6  C   UNL     1      25.175  47.360  50.053  1.00  0.00     0.197 A 
HETATM    7  N   UNL     1      23.897  47.605  49.887  1.00  0.00    -0.222 NA
HETATM    8  C   UNL     1      23.705  48.769  49.153  1.00  0.00     0.076 A 
HETATM    9  C   UNL     1      24.870  49.328  48.666  1.00  0.00     0.086 A 
HETATM   10  S   UNL     1      26.228  48.448  49.230  1.00  0.00    -0.060 SA
BRANCH   8  11
HETATM   11  C   UNL     1      22.369  49.349  49.008  1.00  0.00    -0.007 A 
HETATM   12  C   UNL     1      22.153  50.727  48.890  1.00  0.00     0.016 A 
HETATM   13  C   UNL     1      20.850  51.240  48.847  1.00  0.00     0.037 A 
HETATM   14  C   UNL     1      19.743  50.394  48.924  1.00  0.00     0.068 A 
HETATM   15  C   UNL     1      19.947  49.019  49.011  1.00  0.00     0.037 A 
HETATM   16  C   UNL     1      21.249  48.504  49.050  1.00  0.00     0.016 A 
BRANCH  14  17
HETATM   17  O   UNL     1      18.533  51.030  48.903  1.00  0.00    -0.356 OA
HETATM   18  C   UNL     1      18.511  52.341  48.351  1.00  0.00     0.210 C 
ENDBRANCH  14  17
ENDBRANCH   8  11
ENDBRANCH   1   6
BRANCH   1  19
HETATM   19  N   UNL     1      26.300  45.253  50.081  1.00  0.00    -0.239 N 
HETATM   20  C   UNL     1      25.569  44.122  49.828  1.00  0.00     0.335 C 
HETATM   21  N   UNL     1      26.289  43.202  49.111  1.00  0.00    -0.337 N 
HETATM   22  O   UNL     1      24.436  43.933  50.254  1.00  0.00    -0.246 OA
HETATM   23  H   UNL     1      27.217  43.454  48.808  1.00  0.00     0.164 HD
HETATM   24  H   UNL     1      27.308  45.179  50.129  1.00  0.00     0.192 HD
BRANCH  21  25
HETATM   25  C   UNL     1      25.889  41.803  49.011  1.00  0.00     0.086 C 
HETATM   26  C   UNL     1      26.478  41.156  47.751  1.00  0.00     0.025 C 
HETATM   27  C   UNL     1      27.990  40.947  47.839  1.00  0.00     0.002 C 
HETATM   28  C   UNL     1      28.391  40.197  49.106  1.00  0.00     0.000 C 
HETATM   29  C   UNL     1      27.829  40.859  50.361  1.00  0.00     0.002 C 
HETATM   30  C   UNL     1      26.313  41.038  50.274  1.00  0.00     0.025 C 
ENDBRANCH  21  25
ENDBRANCH   1  19
BRANCH   3  31
HETATM   31  C   UNL     1      27.598  45.577  53.948  1.00  0.00     0.036 A 
HETATM   32  C   UNL     1      27.449  46.484  55.000  1.00  0.00     0.031 A 
HETATM   33  C   UNL     1      28.249  46.375  56.144  1.00  0.00     0.026 A 
HETATM   34  C   UNL     1      29.206  45.368  56.232  1.00  0.00     0.034 A 
HETATM   35 CL   UNL     1      30.192  45.241  57.637  1.00  0.00    -0.084 Cl
HETATM   36  C   UNL     1      29.373  44.465  55.187  1.00  0.00     0.026 A 
HETATM   37  C   UNL     1      28.569  44.570  54.048  1.00  0.00     0.031 A 
ENDBRANCH   3  31
TORSDOF 6
ENDMDL
MODEL 2
REMARK VINA RESULT:      -9.1      3.625      8.674
REMARK  6 active torsions:
REMARK  status: ('A' for Active; 'I' for Inactive)
REMARK    1  A    between atoms: O_2  and  C_3 
REMARK    2  A    between atoms: C_6  and  C_7 
REMARK    3  A    between atoms: C_9  and  N_10 
REMARK    4  A    between atoms: N_10  and  N_11 
REMARK       I    between atoms: N_10  and  C_21 
REMARK       I    between atoms: N_11  and  C_12 
REMARK       I    between atoms: C_12  and  N_13 
REMARK    5  A    between atoms: N_13  and  C_14 
REMARK       I    between atoms: C_21  and  N_22 
REMARK    6  A    between atoms: N_22  and  C_23 
ROOT
HETATM    1  N   UNL     1      25.659  45.312  49.915  1.00  0.00    -0.176 N 
HETATM    2  C   UNL     1      24.905  46.476  50.234  1.00  0.00     0.348 C 
HETATM    3  N   UNL     1      24.491  47.161  49.095  1.00  0.00    -0.307 N 
HETATM    4  O   UNL     1      24.665  46.873  51.371  1.00  0.00    -0.245 OA
HETATM    5  H   UNL     1      25.076  46.983  48.282  1.00  0.00     0.170 HD
ENDROOT
BRANCH   1   6
HETATM    6  C   UNL     1      26.235  44.581  50.957  1.00  0.00     0.197 A 
HETATM    7  N   UNL     1      27.296  44.874  51.671  1.00  0.00    -0.222 NA
HETATM    8  C   UNL     1      27.470  43.961  52.703  1.00  0.00     0.076 A 
HETATM    9  C   UNL     1      26.584  42.902  52.676  1.00  0.00     0.086 A 
HETATM   10  S   UNL     1      25.449  43.116  51.409  1.00  0.00    -0.060 SA
BRANCH   8  11
HETATM   11  C   UNL     1      28.470  44.193  53.745  1.00  0.00    -0.007 A 
HETATM   12  C   UNL     1      29.520  43.302  53.997  1.00  0.00     0.016 A 
HETATM   13  C   UNL     1      30.398  43.521  55.067  1.00  0.00     0.037 A 
HETATM   14  C   UNL     1      30.245  44.627  55.904  1.00  0.00     0.068 A 
HETATM   15  C   UNL     1      29.223  45.537  55.644  1.00  0.00     0.037 A 
HETATM   16  C   UNL     1      28.347  45.320  54.572  1.00  0.00     0.016 A 
BRANCH  14  17
HETATM   17  O   UNL     1      31.150  44.702  56.926  1.00  0.00    -0.356 OA
HETATM   18  C   UNL     1      31.801  43.491  57.291  1.00  0.00     0.210 C 
ENDBRANCH  14  17
ENDBRANCH   8  11
ENDBRANCH   1   6
BRANCH   1  19
HETATM   19  N   UNL     1      25.302  44.545  48.759  1.00  0.00    -0.239 N 
HETATM   20  C   UNL     1      24.009  44.181  48.486  1.00  0.00     0.335 C 
HETATM   21  N   UNL     1      23.921  43.444  47.334  1.00  0.00    -0.337 N 
HETATM   22  O   UNL     1      23.062  44.427  49.222  1.00  0.00    -0.246 OA
HETATM   23  H   UNL     1      24.763  43.295  46.798  1.00  0.00     0.164 HD
HETATM   24  H   UNL     1      26.053  43.960  48.417  1.00  0.00     0.192 HD
BRANCH  21  25
HETATM   25  C   UNL     1      22.746  42.647  47.003  1.00  0.00     0.086 C 
HETATM   26  C   UNL     1      22.617  42.467  45.486  1.00  0.00     0.025 C 
HETATM   27  C   UNL     1      23.683  41.540  44.901  1.00  0.00     0.002 C 
HETATM   28  C   UNL     1      23.738  40.201  45.632  1.00  0.00     0.000 C 
HETATM   29  C   UNL     1      23.897  40.380  47.139  1.00  0.00     0.002 C 
HETATM   30  C   UNL     1      22.809  41.287  47.716  1.00  0.00     0.025 C 
ENDBRANCH  21  25
ENDBRANCH   1  19
BRANCH   3  31
HETATM   31  C   UNL     1      23.643  48.277  48.999  1.00  0.00     0.036 A 
HETATM   32  C   UNL     1      24.090  49.600  48.974  1.00  0.00     0.031 A 
HETATM   33  C   UNL     1      23.172  50.654  48.886  1.00  0.00     0.026 A 
HETATM   34  C   UNL     1      21.806  50.387  48.833  1.00  0.00     0.034 A 
HETATM   35 CL   UNL     1      20.681  51.684  48.730  1.00  0.00    -0.084 Cl
HETATM   36  C   UNL     1      21.347  49.074  48.869  1.00  0.00     0.026 A 
HETATM   37  C   UNL     1      22.264  48.023  48.951  1.00  0.00     0.031 A 
ENDBRANCH   3  31
TORSDOF 6
ENDMDL
MODEL 3
REMARK VINA RESULT:      -8.9      1.525      2.084
REMARK  6 active torsions:
REMARK  status: ('A' for Active; 'I' for Inactive)
REMARK    1  A    between atoms: O_2  and  C_3 
REMARK    2  A    between atoms: C_6  and  C_7 
REMARK    3  A    between atoms: C_9  and  N_10 
REMARK    4  A    between atoms: N_10  and  N_11 
REMARK       I    between atoms: N_10  and  C_21 
REMARK       I    between atoms: N_11  and  C_12 
REMARK       I    between atoms: C_12  and  N_13 
REMARK    5  A    between atoms: N_13  and  C_14 
REMARK       I    between atoms: C_21  and  N_22 
REMARK    6  A    between atoms: N_22  and  C_23 
ROOT
HETATM    1  N   UNL     1      24.577  46.474  50.043  1.00  0.00    -0.176 N 
HETATM    2  C   UNL     1      25.526  46.533  51.102  1.00  0.00     0.348 C 
HETATM    3  N   UNL     1      25.887  45.267  51.554  1.00  0.00    -0.307 N 
HETATM    4  O   UNL     1      25.963  47.565  51.603  1.00  0.00    -0.245 OA
HETATM    5  H   UNL     1      25.184  44.556  51.367  1.00  0.00     0.170 HD
ENDROOT
BRANCH   1   6
HETATM    6  C   UNL     1      24.039  47.670  49.560  1.00  0.00     0.197 A 
HETATM    7  N   UNL     1      22.783  48.048  49.537  1.00  0.00    -0.222 NA
HETATM    8  C   UNL     1      22.667  49.362  49.099  1.00  0.00     0.076 A 
HETATM    9  C   UNL     1      23.856  49.923  48.677  1.00  0.00     0.086 A 
HETATM   10  S   UNL     1      25.150  48.831  48.939  1.00  0.00    -0.060 SA
BRANCH   8  11
HETATM   11  C   UNL     1      21.386  50.065  49.176  1.00  0.00    -0.007 A 
HETATM   12  C   UNL     1      20.264  49.524  49.817  1.00  0.00     0.016 A 
HETATM   13  C   UNL     1      19.035  50.194  49.782  1.00  0.00     0.037 A 
HETATM   14  C   UNL     1      18.899  51.410  49.111  1.00  0.00     0.068 A 
HETATM   15  C   UNL     1      20.016  51.972  48.497  1.00  0.00     0.037 A 
HETATM   16  C   UNL     1      21.247  51.304  48.533  1.00  0.00     0.016 A 
BRANCH  14  17
HETATM   17  O   UNL     1      17.639  51.939  49.130  1.00  0.00    -0.356 OA
HETATM   18  C   UNL     1      16.726  51.448  48.156  1.00  0.00     0.210 C 
ENDBRANCH  14  17
ENDBRANCH   8  11
ENDBRANCH   1   6
BRANCH   1  19
HETATM   19  N   UNL     1      24.670  45.416  49.082  1.00  0.00    -0.239 N 
HETATM   20  C   UNL     1      23.977  44.241  49.210  1.00  0.00     0.335 C 
HETATM   21  N   UNL     1      24.238  43.382  48.173  1.00  0.00    -0.337 N 
HETATM   22  O   UNL     1      23.269  43.968  50.171  1.00  0.00    -0.246 OA
HETATM   23  H   UNL     1      24.838  43.702  47.429  1.00  0.00     0.164 HD
HETATM   24  H   UNL     1      25.544  45.411  48.573  1.00  0.00     0.192 HD
BRANCH  21  25
HETATM   25  C   UNL     1      23.919  41.960  48.237  1.00  0.00     0.086 C 
HETATM   26  C   UNL     1      23.671  41.394  46.834  1.00  0.00     0.025 C 
HETATM   27  C   UNL     1      24.945  41.297  45.995  1.00  0.00     0.002 C 
HETATM   28  C   UNL     1      26.054  40.545  46.725  1.00  0.00     0.000 C 
HETATM   29  C   UNL     1      26.322  41.129  48.110  1.00  0.00     0.002 C 
HETATM   30  C   UNL     1      25.046  41.196  48.949  1.00  0.00     0.025 C 
ENDBRANCH  21  25
ENDBRANCH   1  19
BRANCH   3  31
HETATM   31  C   UNL     1      26.868  44.915  52.496  1.00  0.00     0.036 A 
HETATM   32  C   UNL     1      26.915  45.411  53.801  1.00  0.00     0.031 A 
HETATM   33  C   UNL     1      27.936  45.013  54.672  1.00  0.00     0.026 A 
HETATM   34  C   UNL     1      28.918  44.127  54.236  1.00  0.00     0.034 A 
HETATM   35 CL   UNL     1      30.175  43.644  55.306  1.00  0.00    -0.084 Cl
HETATM   36  C   UNL     1      28.891  43.634  52.935  1.00  0.00     0.026 A 
HETATM   37  C   UNL     1      27.867  44.028  52.069  1.00  0.00     0.031 A 
ENDBRANCH   3  31
TORSDOF 6
ENDMDL
MODEL 4
REMARK VINA RESULT:      -8.9      3.461      9.413
REMARK  6 active torsions:
REMARK  status: ('A' for Active; 'I' for Inactive)
REMARK    1  A    between atoms: O_2  and  C_3 
REMARK    2  A    between atoms: C_6  and  C_7 
REMARK    3  A    between atoms: C_9  and  N_10 
REMARK    4  A    between atoms: N_10  and  N_11 
REMARK       I    between atoms: N_10  and  C_21 
REMARK       I    between atoms: N_11  and  C_12 
REMARK       I    between atoms: C_12  and  N_13 
REMARK    5  A    between atoms: N_13  and  C_14 
REMARK       I    between atoms: C_21  and  N_22 
REMARK    6  A    between atoms: N_22  and  C_23 
ROOT
HETATM    1  N   UNL     1      24.057  45.298  49.766  1.00  0.00    -0.176 N 
HETATM    2  C   UNL     1      23.306  46.244  49.014  1.00  0.00     0.348 C 
HETATM    3  N   UNL     1      22.957  47.359  49.771  1.00  0.00    -0.307 N 
HETATM    4  O   UNL     1      22.959  46.101  47.845  1.00  0.00    -0.245 OA
HETATM    5  H   UNL     1      22.932  47.175  50.771  1.00  0.00     0.170 HD
ENDROOT
BRANCH   1   6
HETATM    6  C   UNL     1      24.386  44.078  49.171  1.00  0.00     0.197 A 
HETATM    7  N   UNL     1      25.530  43.436  49.203  1.00  0.00    -0.222 NA
HETATM    8  C   UNL     1      25.419  42.190  48.601  1.00  0.00     0.076 A 
HETATM    9  C   UNL     1      24.194  41.957  48.006  1.00  0.00     0.086 A 
HETATM   10  S   UNL     1      23.135  43.271  48.304  1.00  0.00    -0.060 SA
BRANCH   8  11
HETATM   11  C   UNL     1      26.509  41.217  48.689  1.00  0.00    -0.007 A 
HETATM   12  C   UNL     1      26.622  40.303  49.743  1.00  0.00     0.016 A 
HETATM   13  C   UNL     1      27.734  39.455  49.832  1.00  0.00     0.037 A 
HETATM   14  C   UNL     1      28.750  39.503  48.877  1.00  0.00     0.068 A 
HETATM   15  C   UNL     1      28.632  40.387  47.807  1.00  0.00     0.037 A 
HETATM   16  C   UNL     1      27.519  41.233  47.715  1.00  0.00     0.016 A 
BRANCH  14  17
HETATM   17  O   UNL     1      29.789  38.644  49.102  1.00  0.00    -0.356 OA
HETATM   18  C   UNL     1      29.732  37.872  50.296  1.00  0.00     0.210 C 
ENDBRANCH  14  17
ENDBRANCH   8  11
ENDBRANCH   1   6
BRANCH   1  19
HETATM   19  N   UNL     1      24.994  45.770  50.743  1.00  0.00    -0.239 N 
HETATM   20  C   UNL     1      25.006  45.313  52.034  1.00  0.00     0.335 C 
HETATM   21  N   UNL     1      25.984  45.920  52.779  1.00  0.00    -0.337 N 
HETATM   22  O   UNL     1      24.195  44.511  52.481  1.00  0.00    -0.246 OA
HETATM   23  H   UNL     1      26.601  46.569  52.316  1.00  0.00     0.164 HD
HETATM   24  H   UNL     1      25.332  46.706  50.556  1.00  0.00     0.192 HD
BRANCH  21  25
HETATM   25  C   UNL     1      25.992  45.884  54.237  1.00  0.00     0.086 C 
HETATM   26  C   UNL     1      26.962  44.813  54.750  1.00  0.00     0.025 C 
HETATM   27  C   UNL     1      28.429  45.182  54.531  1.00  0.00     0.002 C 
HETATM   28  C   UNL     1      28.759  46.565  55.087  1.00  0.00     0.000 C 
HETATM   29  C   UNL     1      27.812  47.635  54.552  1.00  0.00     0.002 C 
HETATM   30  C   UNL     1      26.349  47.267  54.801  1.00  0.00     0.025 C 
ENDBRANCH  21  25
ENDBRANCH   1  19
BRANCH   3  31
HETATM   31  C   UNL     1      22.322  48.541  49.355  1.00  0.00     0.036 A 
HETATM   32  C   UNL     1      22.984  49.750  49.136  1.00  0.00     0.031 A 
HETATM   33  C   UNL     1      22.270  50.884  48.731  1.00  0.00     0.026 A 
HETATM   34  C   UNL     1      20.889  50.813  48.557  1.00  0.00     0.034 A 
HETATM   35 CL   UNL     1      20.013  52.209  48.065  1.00  0.00    -0.084 Cl
HETATM   36  C   UNL     1      20.215  49.617  48.783  1.00  0.00     0.026 A 
HETATM   37  C   UNL     1      20.931  48.484  49.181  1.00  0.00     0.031 A 
ENDBRANCH   3  31
TORSDOF 6
ENDMDL
MODEL 5
REMARK VINA RESULT:      -8.8      2.499      3.446
REMARK  6 active torsions:
REMARK  status: ('A' for Active; 'I' for Inactive)
REMARK    1  A    between atoms: O_2  and  C_3 
REMARK    2  A    between atoms: C_6  and  C_7 
REMARK    3  A    between atoms: C_9  and  N_10 
REMARK    4  A    between atoms: N_10  and  N_11 
REMARK       I    between atoms: N_10  and  C_21 
REMARK       I    between atoms: N_11  and  C_12 
REMARK       I    between atoms: C_12  and  N_13 
REMARK    5  A    between atoms: N_13  and  C_14 
REMARK       I    between atoms: C_21  and  N_22 
REMARK    6  A    between atoms: N_22  and  C_23 
ROOT
HETATM    1  N   UNL     1      25.350  42.951  51.273  1.00  0.00    -0.176 N 
HETATM    2  C   UNL     1      26.289  43.733  52.002  1.00  0.00     0.348 C 
HETATM    3  N   UNL     1      26.907  43.004  53.013  1.00  0.00    -0.307 N 
HETATM    4  O   UNL     1      26.518  44.924  51.808  1.00  0.00    -0.245 OA
HETATM    5  H   UNL     1      26.357  42.207  53.330  1.00  0.00     0.170 HD
ENDROOT
BRANCH   1   6
HETATM    6  C   UNL     1      24.572  43.577  50.295  1.00  0.00     0.197 A 
HETATM    7  N   UNL     1      24.064  44.787  50.308  1.00  0.00    -0.222 NA
HETATM    8  C   UNL     1      23.465  45.087  49.092  1.00  0.00     0.076 A 
HETATM    9  C   UNL     1      23.426  44.030  48.204  1.00  0.00     0.086 A 
HETATM   10  S   UNL     1      24.252  42.679  48.860  1.00  0.00    -0.060 SA
BRANCH   8  11
HETATM   11  C   UNL     1      23.003  46.445  48.802  1.00  0.00    -0.007 A 
HETATM   12  C   UNL     1      21.897  46.709  47.986  1.00  0.00     0.016 A 
HETATM   13  C   UNL     1      21.550  48.028  47.662  1.00  0.00     0.037 A 
HETATM   14  C   UNL     1      22.298  49.104  48.142  1.00  0.00     0.068 A 
HETATM   15  C   UNL     1      23.382  48.854  48.981  1.00  0.00     0.037 A 
HETATM   16  C   UNL     1      23.728  47.536  49.307  1.00  0.00     0.016 A 
BRANCH  14  17
HETATM   17  O   UNL     1      21.869  50.332  47.725  1.00  0.00    -0.356 OA
HETATM   18  C   UNL     1      21.197  51.135  48.688  1.00  0.00     0.210 C 
ENDBRANCH  14  17
ENDBRANCH   8  11
ENDBRANCH   1   6
BRANCH   1  19
HETATM   19  N   UNL     1      25.635  41.568  51.029  1.00  0.00    -0.239 N 
HETATM   20  C   UNL     1      26.820  41.144  50.486  1.00  0.00     0.335 C 
HETATM   21  N   UNL     1      26.853  39.781  50.340  1.00  0.00    -0.337 N 
HETATM   22  O   UNL     1      27.709  41.900  50.114  1.00  0.00    -0.246 OA
HETATM   23  H   UNL     1      26.067  39.247  50.678  1.00  0.00     0.164 HD
HETATM   24  H   UNL     1      24.807  41.006  50.883  1.00  0.00     0.192 HD
BRANCH  21  25
HETATM   25  C   UNL     1      27.825  39.110  49.483  1.00  0.00     0.086 C 
HETATM   26  C   UNL     1      27.981  37.639  49.886  1.00  0.00     0.025 C 
HETATM   27  C   UNL     1      26.758  36.791  49.537  1.00  0.00     0.002 C 
HETATM   28  C   UNL     1      26.356  36.942  48.072  1.00  0.00     0.000 C 
HETATM   29  C   UNL     1      26.170  38.406  47.681  1.00  0.00     0.002 C 
HETATM   30  C   UNL     1      27.410  39.238  48.010  1.00  0.00     0.025 C 
ENDBRANCH  21  25
ENDBRANCH   1  19
BRANCH   3  31
HETATM   31  C   UNL     1      27.958  43.390  53.862  1.00  0.00     0.036 A 
HETATM   32  C   UNL     1      27.947  44.548  54.643  1.00  0.00     0.031 A 
HETATM   33  C   UNL     1      29.044  44.862  55.455  1.00  0.00     0.026 A 
HETATM   34  C   UNL     1      30.156  44.024  55.478  1.00  0.00     0.034 A 
HETATM   35 CL   UNL     1      31.505  44.415  56.473  1.00  0.00    -0.084 Cl
HETATM   36  C   UNL     1      30.184  42.874  54.697  1.00  0.00     0.026 A 
HETATM   37  C   UNL     1      29.087  42.558  53.892  1.00  0.00     0.031 A 
ENDBRANCH   3  31
TORSDOF 6
ENDMDL
MODEL 6
REMARK VINA RESULT:      -8.5      4.561      9.609
REMARK  6 active torsions:
REMARK  status: ('A' for Active; 'I' for Inactive)
REMARK    1  A    between atoms: O_2  and  C_3 
REMARK    2  A    between atoms: C_6  and  C_7 
REMARK    3  A    between atoms: C_9  and  N_10 
REMARK    4  A    between atoms: N_10  and  N_11 
REMARK       I    between atoms: N_10  and  C_21 
REMARK       I    between atoms: N_11  and  C_12 
REMARK       I    between atoms: C_12  and  N_13 
REMARK    5  A    between atoms: N_13  and  C_14 
REMARK       I    between atoms: C_21  and  N_22 
REMARK    6  A    between atoms: N_22  and  C_23 
ROOT
HETATM    1  N   UNL     1      21.976  49.102  48.141  1.00  0.00    -0.176 N 
HETATM    2  C   UNL     1      21.086  49.940  48.871  1.00  0.00     0.348 C 
HETATM    3  N   UNL     1      19.902  50.176  48.180  1.00  0.00    -0.307 N 
HETATM    4  O   UNL     1      21.326  50.439  49.967  1.00  0.00    -0.245 OA
HETATM    5  H   UNL     1      19.995  50.070  47.172  1.00  0.00     0.170 HD
ENDROOT
BRANCH   1   6
HETATM    6  C   UNL     1      23.250  48.865  48.661  1.00  0.00     0.197 A 
HETATM    7  N   UNL     1      23.633  47.915  49.482  1.00  0.00    -0.222 NA
HETATM    8  C   UNL     1      25.010  47.935  49.658  1.00  0.00     0.076 A 
HETATM    9  C   UNL     1      25.643  49.000  49.047  1.00  0.00     0.086 A 
HETATM   10  S   UNL     1      24.512  49.920  48.146  1.00  0.00    -0.060 SA
BRANCH   8  11
HETATM   11  C   UNL     1      25.688  46.853  50.374  1.00  0.00    -0.007 A 
HETATM   12  C   UNL     1      26.472  45.893  49.724  1.00  0.00     0.016 A 
HETATM   13  C   UNL     1      27.024  44.822  50.440  1.00  0.00     0.037 A 
HETATM   14  C   UNL     1      26.803  44.688  51.812  1.00  0.00     0.068 A 
HETATM   15  C   UNL     1      26.050  45.655  52.473  1.00  0.00     0.037 A 
HETATM   16  C   UNL     1      25.500  46.728  51.759  1.00  0.00     0.016 A 
BRANCH  14  17
HETATM   17  O   UNL     1      27.373  43.583  52.379  1.00  0.00    -0.356 OA
HETATM   18  C   UNL     1      27.322  43.495  53.798  1.00  0.00     0.210 C 
ENDBRANCH  14  17
ENDBRANCH   8  11
ENDBRANCH   1   6
BRANCH   1  19
HETATM   19  N   UNL     1      21.437  48.041  47.342  1.00  0.00    -0.239 N 
HETATM   20  C   UNL     1      20.528  47.139  47.831  1.00  0.00     0.335 C 
HETATM   21  N   UNL     1      20.170  46.215  46.884  1.00  0.00    -0.337 N 
HETATM   22  O   UNL     1      20.141  47.123  48.993  1.00  0.00    -0.246 OA
HETATM   23  H   UNL     1      20.548  46.315  45.954  1.00  0.00     0.164 HD
HETATM   24  H   UNL     1      22.048  47.754  46.589  1.00  0.00     0.192 HD
BRANCH  21  25
HETATM   25  C   UNL     1      19.507  44.962  47.226  1.00  0.00     0.086 C 
HETATM   26  C   UNL     1      17.984  45.105  47.121  1.00  0.00     0.025 C 
HETATM   27  C   UNL     1      17.494  45.226  45.677  1.00  0.00     0.002 C 
HETATM   28  C   UNL     1      18.024  44.097  44.798  1.00  0.00     0.000 C 
HETATM   29  C   UNL     1      19.543  43.975  44.880  1.00  0.00     0.002 C 
HETATM   30  C   UNL     1      20.019  43.827  46.326  1.00  0.00     0.025 C 
ENDBRANCH  21  25
ENDBRANCH   1  19
BRANCH   3  31
HETATM   31  C   UNL     1      18.748  50.852  48.614  1.00  0.00     0.036 A 
HETATM   32  C   UNL     1      18.758  52.119  49.200  1.00  0.00     0.031 A 
HETATM   33  C   UNL     1      17.560  52.715  49.613  1.00  0.00     0.026 A 
HETATM   34  C   UNL     1      16.353  52.040  49.451  1.00  0.00     0.034 A 
HETATM   35 CL   UNL     1      14.883  52.772  49.964  1.00  0.00    -0.084 Cl
HETATM   36  C   UNL     1      16.331  50.772  48.879  1.00  0.00     0.026 A 
HETATM   37  C   UNL     1      17.526  50.181  48.462  1.00  0.00     0.031 A 
ENDBRANCH   3  31
TORSDOF 6
ENDMDL
MODEL 7
REMARK VINA RESULT:      -8.5      4.062      8.728
REMARK  6 active torsions:
REMARK  status: ('A' for Active; 'I' for Inactive)
REMARK    1  A    between atoms: O_2  and  C_3 
REMARK    2  A    between atoms: C_6  and  C_7 
REMARK    3  A    between atoms: C_9  and  N_10 
REMARK    4  A    between atoms: N_10  and  N_11 
REMARK       I    between atoms: N_10  and  C_21 
REMARK       I    between atoms: N_11  and  C_12 
REMARK       I    between atoms: C_12  and  N_13 
REMARK    5  A    between atoms: N_13  and  C_14 
REMARK       I    between atoms: C_21  and  N_22 
REMARK    6  A    between atoms: N_22  and  C_23 
ROOT
HETATM    1  N   UNL     1      26.416  43.605  49.993  1.00  0.00    -0.176 N 
HETATM    2  C   UNL     1      25.169  44.255  50.213  1.00  0.00     0.348 C 
HETATM    3  N   UNL     1      24.615  44.741  49.032  1.00  0.00    -0.307 N 
HETATM    4  O   UNL     1      24.640  44.414  51.309  1.00  0.00    -0.245 OA
HETATM    5  H   UNL     1      25.305  44.915  48.305  1.00  0.00     0.170 HD
ENDROOT
BRANCH   1   6
HETATM    6  C   UNL     1      27.144  43.160  51.099  1.00  0.00     0.197 A 
HETATM    7  N   UNL     1      27.855  43.866  51.946  1.00  0.00    -0.222 NA
HETATM    8  C   UNL     1      28.317  43.075  52.989  1.00  0.00     0.076 A 
HETATM    9  C   UNL     1      28.040  41.729  52.844  1.00  0.00     0.086 A 
HETATM   10  S   UNL     1      27.090  41.472  51.440  1.00  0.00    -0.060 SA
BRANCH   8  11
HETATM   11  C   UNL     1      28.966  43.677  54.154  1.00  0.00    -0.007 A 
HETATM   12  C   UNL     1      28.522  44.872  54.732  1.00  0.00     0.016 A 
HETATM   13  C   UNL     1      29.232  45.458  55.788  1.00  0.00     0.037 A 
HETATM   14  C   UNL     1      30.396  44.868  56.284  1.00  0.00     0.068 A 
HETATM   15  C   UNL     1      30.829  43.663  55.736  1.00  0.00     0.037 A 
HETATM   16  C   UNL     1      30.118  43.074  54.683  1.00  0.00     0.016 A 
BRANCH  14  17
HETATM   17  O   UNL     1      31.005  45.561  57.292  1.00  0.00    -0.356 OA
HETATM   18  C   UNL     1      30.306  45.635  58.529  1.00  0.00     0.210 C 
ENDBRANCH  14  17
ENDBRANCH   8  11
ENDBRANCH   1   6
BRANCH   1  19
HETATM   19  N   UNL     1      26.602  42.841  48.795  1.00  0.00    -0.239 N 
HETATM   20  C   UNL     1      25.699  41.900  48.373  1.00  0.00     0.335 C 
HETATM   21  N   UNL     1      26.101  41.296  47.210  1.00  0.00    -0.337 N 
HETATM   22  O   UNL     1      24.693  41.591  49.000  1.00  0.00    -0.246 OA
HETATM   23  H   UNL     1      26.949  41.622  46.772  1.00  0.00     0.164 HD
HETATM   24  H   UNL     1      27.573  42.732  48.534  1.00  0.00     0.192 HD
BRANCH  21  25
HETATM   25  C   UNL     1      25.522  40.042  46.740  1.00  0.00     0.086 C 
HETATM   26  C   UNL     1      25.680  39.905  45.221  1.00  0.00     0.025 C 
HETATM   27  C   UNL     1      27.126  39.655  44.791  1.00  0.00     0.002 C 
HETATM   28  C   UNL     1      27.749  38.478  45.539  1.00  0.00     0.000 C 
HETATM   29  C   UNL     1      27.618  38.631  47.051  1.00  0.00     0.002 C 
HETATM   30  C   UNL     1      26.165  38.854  47.471  1.00  0.00     0.025 C 
ENDBRANCH  21  25
ENDBRANCH   1  19
BRANCH   3  31
HETATM   31  C   UNL     1      23.357  45.333  48.828  1.00  0.00     0.036 A 
HETATM   32  C   UNL     1      23.138  46.712  48.786  1.00  0.00     0.031 A 
HETATM   33  C   UNL     1      21.848  47.216  48.587  1.00  0.00     0.026 A 
HETATM   34  C   UNL     1      20.772  46.343  48.442  1.00  0.00     0.034 A 
HETATM   35 CL   UNL     1      19.186  46.965  48.203  1.00  0.00    -0.084 Cl
HETATM   36  C   UNL     1      20.975  44.967  48.494  1.00  0.00     0.026 A 
HETATM   37  C   UNL     1      22.264  44.465  48.686  1.00  0.00     0.031 A 
ENDBRANCH   3  31
TORSDOF 6
ENDMDL
MODEL 8
REMARK VINA RESULT:      -8.3      7.417     14.099
REMARK  6 active torsions:
REMARK  status: ('A' for Active; 'I' for Inactive)
REMARK    1  A    between atoms: O_2  and  C_3 
REMARK    2  A    between atoms: C_6  and  C_7 
REMARK    3  A    between atoms: C_9  and  N_10 
REMARK    4  A    between atoms: N_10  and  N_11 
REMARK       I    between atoms: N_10  and  C_21 
REMARK       I    between atoms: N_11  and  C_12 
REMARK       I    between atoms: C_12  and  N_13 
REMARK    5  A    between atoms: N_13  and  C_14 
REMARK       I    between atoms: C_21  and  N_22 
REMARK    6  A    between atoms: N_22  and  C_23 
ROOT
HETATM    1  N   UNL     1      17.540  51.720  48.210  1.00  0.00    -0.176 N 
HETATM    2  C   UNL     1      17.376  51.916  46.810  1.00  0.00     0.348 C 
HETATM    3  N   UNL     1      16.230  52.648  46.513  1.00  0.00    -0.307 N 
HETATM    4  O   UNL     1      18.123  51.471  45.942  1.00  0.00    -0.245 OA
HETATM    5  H   UNL     1      15.517  52.592  47.237  1.00  0.00     0.170 HD
ENDROOT
BRANCH   1   6
HETATM    6  C   UNL     1      18.589  50.911  48.655  1.00  0.00     0.197 A 
HETATM    7  N   UNL     1      19.828  50.873  48.227  1.00  0.00    -0.222 NA
HETATM    8  C   UNL     1      20.601  50.030  49.015  1.00  0.00     0.076 A 
HETATM    9  C   UNL     1      19.885  49.338  49.973  1.00  0.00     0.086 A 
HETATM   10  S   UNL     1      18.246  49.838  49.959  1.00  0.00    -0.060 SA
BRANCH   8  11
HETATM   11  C   UNL     1      22.054  49.978  48.852  1.00  0.00    -0.007 A 
HETATM   12  C   UNL     1      22.781  50.996  48.224  1.00  0.00     0.016 A 
HETATM   13  C   UNL     1      24.158  50.858  48.008  1.00  0.00     0.037 A 
HETATM   14  C   UNL     1      24.834  49.705  48.411  1.00  0.00     0.068 A 
HETATM   15  C   UNL     1      24.127  48.700  49.065  1.00  0.00     0.037 A 
HETATM   16  C   UNL     1      22.750  48.838  49.284  1.00  0.00     0.016 A 
BRANCH  14  17
HETATM   17  O   UNL     1      26.168  49.689  48.112  1.00  0.00    -0.356 OA
HETATM   18  C   UNL     1      27.011  48.960  48.996  1.00  0.00     0.210 C 
ENDBRANCH  14  17
ENDBRANCH   8  11
ENDBRANCH   1   6
BRANCH   1  19
HETATM   19  N   UNL     1      17.156  52.767  49.110  1.00  0.00    -0.239 N 
HETATM   20  C   UNL     1      15.956  52.767  49.771  1.00  0.00     0.335 C 
HETATM   21  N   UNL     1      15.813  53.876  50.565  1.00  0.00    -0.337 N 
HETATM   22  O   UNL     1      15.091  51.913  49.615  1.00  0.00    -0.246 OA
HETATM   23  H   UNL     1      16.585  54.522  50.624  1.00  0.00     0.164 HD
HETATM   24  H   UNL     1      17.598  53.654  48.907  1.00  0.00     0.192 HD
BRANCH  21  25
HETATM   25  C   UNL     1      14.520  54.298  51.093  1.00  0.00     0.086 C 
HETATM   26  C   UNL     1      14.698  55.134  52.366  1.00  0.00     0.025 C 
HETATM   27  C   UNL     1      15.288  56.518  52.094  1.00  0.00     0.002 C 
HETATM   28  C   UNL     1      14.505  57.271  51.021  1.00  0.00     0.000 C 
HETATM   29  C   UNL     1      14.356  56.450  49.743  1.00  0.00     0.002 C 
HETATM   30  C   UNL     1      13.740  55.079  50.024  1.00  0.00     0.025 C 
ENDBRANCH  21  25
ENDBRANCH   1  19
BRANCH   3  31
HETATM   31  C   UNL     1      15.794  53.134  45.269  1.00  0.00     0.036 A 
HETATM   32  C   UNL     1      14.453  53.233  44.893  1.00  0.00     0.031 A 
HETATM   33  C   UNL     1      14.108  53.722  43.628  1.00  0.00     0.026 A 
HETATM   34  C   UNL     1      15.104  54.102  42.732  1.00  0.00     0.034 A 
HETATM   35 CL   UNL     1      14.677  54.697  41.175  1.00  0.00    -0.084 Cl
HETATM   36  C   UNL     1      16.445  53.998  43.089  1.00  0.00     0.026 A 
HETATM   37  C   UNL     1      16.787  53.516  44.355  1.00  0.00     0.031 A 
ENDBRANCH   3  31
TORSDOF 6
ENDMDL
MODEL 9
REMARK VINA RESULT:      -8.2      6.276      8.841
REMARK  6 active torsions:
REMARK  status: ('A' for Active; 'I' for Inactive)
REMARK    1  A    between atoms: O_2  and  C_3 
REMARK    2  A    between atoms: C_6  and  C_7 
REMARK    3  A    between atoms: C_9  and  N_10 
REMARK    4  A    between atoms: N_10  and  N_11 
REMARK       I    between atoms: N_10  and  C_21 
REMARK       I    between atoms: N_11  and  C_12 
REMARK       I    between atoms: C_12  and  N_13 
REMARK    5  A    between atoms: N_13  and  C_14 
REMARK       I    between atoms: C_21  and  N_22 
REMARK    6  A    between atoms: N_22  and  C_23 
ROOT
HETATM    1  N   UNL     1      18.760  49.646  47.459  1.00  0.00    -0.176 N 
HETATM    2  C   UNL     1      20.055  50.116  47.812  1.00  0.00     0.348 C 
HETATM    3  N   UNL     1      20.953  49.073  48.023  1.00  0.00    -0.307 N 
HETATM    4  O   UNL     1      20.364  51.296  47.958  1.00  0.00    -0.245 OA
HETATM    5  H   UNL     1      20.501  48.198  48.276  1.00  0.00     0.170 HD
ENDROOT
BRANCH   1   6
HETATM    6  C   UNL     1      17.725  50.575  47.322  1.00  0.00     0.197 A 
HETATM    7  N   UNL     1      16.873  50.988  48.231  1.00  0.00    -0.222 NA
HETATM    8  C   UNL     1      16.081  52.017  47.739  1.00  0.00     0.076 A 
HETATM    9  C   UNL     1      16.273  52.287  46.398  1.00  0.00     0.086 A 
HETATM   10  S   UNL     1      17.541  51.316  45.777  1.00  0.00    -0.060 SA
BRANCH   8  11
HETATM   11  C   UNL     1      15.195  52.768  48.629  1.00  0.00    -0.007 A 
HETATM   12  C   UNL     1      15.036  52.450  49.983  1.00  0.00     0.016 A 
HETATM   13  C   UNL     1      14.105  53.139  50.771  1.00  0.00     0.037 A 
HETATM   14  C   UNL     1      13.317  54.154  50.227  1.00  0.00     0.068 A 
HETATM   15  C   UNL     1      13.489  54.500  48.889  1.00  0.00     0.037 A 
HETATM   16  C   UNL     1      14.422  53.814  48.100  1.00  0.00     0.016 A 
BRANCH  14  17
HETATM   17  O   UNL     1      12.431  54.721  51.099  1.00  0.00    -0.356 OA
HETATM   18  C   UNL     1      11.731  55.871  50.639  1.00  0.00     0.210 C 
ENDBRANCH  14  17
ENDBRANCH   8  11
ENDBRANCH   1   6
BRANCH   1  19
HETATM   19  N   UNL     1      18.642  48.478  46.636  1.00  0.00    -0.239 N 
HETATM   20  C   UNL     1      17.975  47.354  47.045  1.00  0.00     0.335 C 
HETATM   21  N   UNL     1      18.008  46.369  46.092  1.00  0.00    -0.337 N 
HETATM   22  O   UNL     1      17.473  47.224  48.155  1.00  0.00    -0.246 OA
HETATM   23  H   UNL     1      18.449  46.576  45.209  1.00  0.00     0.164 HD
HETATM   24  H   UNL     1      19.394  48.380  45.967  1.00  0.00     0.192 HD
BRANCH  21  25
HETATM   25  C   UNL     1      17.691  44.977  46.394  1.00  0.00     0.086 C 
HETATM   26  C   UNL     1      16.966  44.316  45.216  1.00  0.00     0.025 C 
HETATM   27  C   UNL     1      17.876  44.078  44.011  1.00  0.00     0.002 C 
HETATM   28  C   UNL     1      19.147  43.324  44.395  1.00  0.00     0.000 C 
HETATM   29  C   UNL     1      19.884  44.001  45.547  1.00  0.00     0.002 C 
HETATM   30  C   UNL     1      18.971  44.208  46.756  1.00  0.00     0.025 C 
ENDBRANCH  21  25
ENDBRANCH   1  19
BRANCH   3  31
HETATM   31  C   UNL     1      22.334  49.137  48.272  1.00  0.00     0.036 A 
HETATM   32  C   UNL     1      23.191  50.079  47.698  1.00  0.00     0.031 A 
HETATM   33  C   UNL     1      24.558  50.063  47.996  1.00  0.00     0.026 A 
HETATM   34  C   UNL     1      25.073  49.099  48.859  1.00  0.00     0.034 A 
HETATM   35 CL   UNL     1      26.756  49.079  49.219  1.00  0.00    -0.084 Cl
HETATM   36  C   UNL     1      24.233  48.148  49.429  1.00  0.00     0.026 A 
HETATM   37  C   UNL     1      22.867  48.169  49.136  1.00  0.00     0.031 A 
ENDBRANCH   3  31
TORSDOF 6
ENDMDL
MODEL 10
REMARK VINA RESULT:      -8.1      4.027      9.196
REMARK  6 active torsions:
REMARK  status: ('A' for Active; 'I' for Inactive)
REMARK    1  A    between atoms: O_2  and  C_3 
REMARK    2  A    between atoms: C_6  and  C_7 
REMARK    3  A    between atoms: C_9  and  N_10 
REMARK    4  A    between atoms: N_10  and  N_11 
REMARK       I    between atoms: N_10  and  C_21 
REMARK       I    between atoms: N_11  and  C_12 
REMARK       I    between atoms: C_12  and  N_13 
REMARK    5  A    between atoms: N_13  and  C_14 
REMARK       I    between atoms: C_21  and  N_22 
REMARK    6  A    between atoms: N_22  and  C_23 
ROOT
HETATM    1  N   UNL     1      25.733  43.409  50.510  1.00  0.00    -0.176 N 
HETATM    2  C   UNL     1      26.593  42.377  50.041  1.00  0.00     0.348 C 
HETATM    3  N   UNL     1      26.002  41.617  49.036  1.00  0.00    -0.307 N 
HETATM    4  O   UNL     1      27.715  42.139  50.479  1.00  0.00    -0.245 OA
HETATM    5  H   UNL     1      24.984  41.638  49.061  1.00  0.00     0.170 HD
ENDROOT
BRANCH   1   6
HETATM    6  C   UNL     1      26.149  44.186  51.594  1.00  0.00     0.197 A 
HETATM    7  N   UNL     1      26.922  43.841  52.597  1.00  0.00    -0.222 NA
HETATM    8  C   UNL     1      27.212  44.936  53.401  1.00  0.00     0.076 A 
HETATM    9  C   UNL     1      26.539  46.090  53.049  1.00  0.00     0.086 A 
HETATM   10  S   UNL     1      25.622  45.827  51.626  1.00  0.00    -0.060 SA
BRANCH   8  11
HETATM   11  C   UNL     1      28.211  44.837  54.466  1.00  0.00    -0.007 A 
HETATM   12  C   UNL     1      28.291  45.760  55.516  1.00  0.00     0.016 A 
HETATM   13  C   UNL     1      29.323  45.676  56.459  1.00  0.00     0.037 A 
HETATM   14  C   UNL     1      30.293  44.676  56.373  1.00  0.00     0.068 A 
HETATM   15  C   UNL     1      30.206  43.735  55.351  1.00  0.00     0.037 A 
HETATM   16  C   UNL     1      29.172  43.816  54.408  1.00  0.00     0.016 A 
BRANCH  14  17
HETATM   17  O   UNL     1      31.259  44.730  57.339  1.00  0.00    -0.356 OA
HETATM   18  C   UNL     1      30.958  45.496  58.499  1.00  0.00     0.210 C 
ENDBRANCH  14  17
ENDBRANCH   8  11
ENDBRANCH   1   6
BRANCH   1  19
HETATM   19  N   UNL     1      24.871  44.076  49.579  1.00  0.00    -0.239 N 
HETATM   20  C   UNL     1      23.507  43.949  49.617  1.00  0.00     0.335 C 
HETATM   21  N   UNL     1      22.902  44.671  48.621  1.00  0.00    -0.337 N 
HETATM   22  O   UNL     1      22.911  43.222  50.403  1.00  0.00    -0.246 OA
HETATM   23  H   UNL     1      23.484  45.238  48.023  1.00  0.00     0.164 HD
HETATM   24  H   UNL     1      25.315  44.277  48.693  1.00  0.00     0.192 HD
BRANCH  21  25
HETATM   25  C   UNL     1      21.519  44.441  48.218  1.00  0.00     0.086 C 
HETATM   26  C   UNL     1      20.623  45.606  48.656  1.00  0.00     0.025 C 
HETATM   27  C   UNL     1      20.875  46.885  47.858  1.00  0.00     0.002 C 
HETATM   28  C   UNL     1      20.802  46.643  46.353  1.00  0.00     0.000 C 
HETATM   29  C   UNL     1      21.718  45.504  45.914  1.00  0.00     0.002 C 
HETATM   30  C   UNL     1      21.438  44.222  46.700  1.00  0.00     0.025 C 
ENDBRANCH  21  25
ENDBRANCH   1  19
BRANCH   3  31
HETATM   31  C   UNL     1      26.568  40.596  48.255  1.00  0.00     0.036 A 
HETATM   32  C   UNL     1      26.420  39.233  48.522  1.00  0.00     0.031 A 
HETATM   33  C   UNL     1      27.028  38.281  47.694  1.00  0.00     0.026 A 
HETATM   34  C   UNL     1      27.795  38.692  46.606  1.00  0.00     0.034 A 
HETATM   35 CL   UNL     1      28.546  37.520  45.595  1.00  0.00    -0.084 Cl
HETATM   36  C   UNL     1      27.961  40.046  46.336  1.00  0.00     0.026 A 
HETATM   37  C   UNL     1      27.347  40.995  47.159  1.00  0.00     0.031 A 
ENDBRANCH   3  31
TORSDOF 6
ENDMDL
