MODEL 1
REMARK VINA RESULT:     -10.9      0.000      0.000
REMARK  8 active torsions:
REMARK  status: ('A' for Active; 'I' for Inactive)
REMARK    1  A    between atoms: C_4  and  C_5 
REMARK    2  A    between atoms: C_5  and  C_6 
REMARK    3  A    between atoms: C_6  and  C_7 
REMARK    4  A    between atoms: C_7  and  N_8 
REMARK       I    between atoms: N_8  and  C_9 
REMARK    5  A    between atoms: C_9  and  C_10 
REMARK    6  A    between atoms: C_11  and  N_12 
REMARK    7  A    between atoms: N_13  and  N_14 
REMARK    8  A    between atoms: C_15  and  C_16 
ROOT
HETATM    1  C   UNL     1      25.031  46.931  50.314  1.00  0.00     0.104 C 
HETATM    2  C   UNL     1      25.152  46.675  51.675  1.00  0.00     0.123 C 
HETATM    3  N   UNL     1      25.317  45.293  51.787  1.00  0.00    -0.202 N 
HETATM    4  C   UNL     1      24.619  44.727  50.737  1.00  0.00     0.183 A 
HETATM    5  C   UNL     1      24.508  45.721  49.765  1.00  0.00     0.124 A 
HETATM    6  N   UNL     1      24.019  45.433  48.532  1.00  0.00    -0.242 NA
HETATM    7  C   UNL     1      23.598  44.167  48.371  1.00  0.00     0.086 A 
HETATM    8  C   UNL     1      23.703  43.184  49.391  1.00  0.00     0.088 A 
HETATM    9  N   UNL     1      24.250  43.434  50.591  1.00  0.00    -0.225 NA
HETATM   10  C   UNL     1      23.029  43.810  47.155  1.00  0.00     0.034 A 
HETATM   11  C   UNL     1      22.545  42.522  46.921  1.00  0.00     0.002 A 
HETATM   12  C   UNL     1      22.637  41.566  47.923  1.00  0.00     0.002 A 
HETATM   13  C   UNL     1      23.219  41.905  49.144  1.00  0.00     0.034 A 
ENDROOT
BRANCH   1  14
HETATM   14  C   UNL     1      25.453  48.143  49.619  1.00  0.00     0.257 C 
HETATM   15  N   UNL     1      24.483  48.649  48.759  1.00  0.00    -0.357 N 
HETATM   16  H   UNL     1      23.675  48.041  48.679  1.00  0.00     0.162 HD
HETATM   17  O   UNL     1      26.485  48.748  49.881  1.00  0.00    -0.267 OA
BRANCH  15  18
HETATM   18  C   UNL     1      24.097  50.043  48.828  1.00  0.00     0.123 C 
BRANCH  18  19
HETATM   19  C   UNL     1      22.723  50.373  49.392  1.00  0.00     0.024 C 
BRANCH  19  20
HETATM   20  C   UNL     1      21.823  51.116  48.400  1.00  0.00     0.040 C 
BRANCH  20  21
HETATM   21  C   UNL     1      20.392  51.295  48.863  1.00  0.00    -0.058 A 
HETATM   22  C   UNL     1      19.575  52.341  48.412  1.00  0.00     0.007 A 
HETATM   23  C   UNL     1      18.271  52.487  48.892  1.00  0.00     0.001 A 
HETATM   24  C   UNL     1      17.756  51.571  49.806  1.00  0.00     0.000 A 
HETATM   25  C   UNL     1      18.542  50.504  50.235  1.00  0.00     0.001 A 
HETATM   26  C   UNL     1      19.849  50.365  49.763  1.00  0.00     0.007 A 
ENDBRANCH  20  21
ENDBRANCH  19  20
ENDBRANCH  18  19
ENDBRANCH  15  18
ENDBRANCH   1  14
BRANCH   2  27
HETATM   27  N   UNL     1      25.309  47.513  52.750  1.00  0.00    -0.286 NA
HETATM   28  H   UNL     1      26.101  47.303  53.367  1.00  0.00     0.125 HD
HETATM   29  H   UNL     1      25.354  48.514  52.523  1.00  0.00     0.125 HD
ENDBRANCH   2  27
BRANCH   3  30
HETATM   30  N   UNL     1      26.129  44.620  52.672  1.00  0.00    -0.176 NA
HETATM   31  C   UNL     1      27.350  44.553  52.246  1.00  0.00     0.153 C 
BRANCH  31  32
HETATM   32  C   UNL     1      28.375  43.811  52.941  1.00  0.00     0.011 A 
HETATM   33  C   UNL     1      29.015  44.211  54.158  1.00  0.00     0.004 A 
HETATM   34  C   UNL     1      30.030  43.292  54.416  1.00  0.00     0.043 A 
HETATM   35  C   UNL     1      28.834  45.286  55.056  1.00  0.00     0.014 A 
HETATM   36  C   UNL     1      30.889  43.406  55.516  1.00  0.00     0.030 A 
HETATM   37  N   UNL     1      29.985  42.349  53.414  1.00  0.00    -0.364 N 
HETATM   38  C   UNL     1      30.690  44.481  56.389  1.00  0.00     0.002 A 
HETATM   39  C   UNL     1      29.673  45.407  56.168  1.00  0.00     0.001 A 
HETATM   40  H   UNL     1      30.619  41.566  53.335  1.00  0.00     0.165 HD
HETATM   41  C   UNL     1      28.980  42.642  52.529  1.00  0.00     0.102 A 
ENDBRANCH  31  32
ENDBRANCH   3  30
TORSDOF 8
ENDMDL
MODEL 2
REMARK VINA RESULT:     -10.9      2.369      3.592
REMARK  8 active torsions:
REMARK  status: ('A' for Active; 'I' for Inactive)
REMARK    1  A    between atoms: C_4  and  C_5 
REMARK    2  A    between atoms: C_5  and  C_6 
REMARK    3  A    between atoms: C_6  and  C_7 
REMARK    4  A    between atoms: C_7  and  N_8 
REMARK       I    between atoms: N_8  and  C_9 
REMARK    5  A    between atoms: C_9  and  C_10 
REMARK    6  A    between atoms: C_11  and  N_12 
REMARK    7  A    between atoms: N_13  and  N_14 
REMARK    8  A    between atoms: C_15  and  C_16 
ROOT
HETATM    1  C   UNL     1      25.927  44.455  50.591  1.00  0.00     0.104 C 
HETATM    2  C   UNL     1      25.553  44.432  51.930  1.00  0.00     0.123 C 
HETATM    3  N   UNL     1      26.500  43.634  52.574  1.00  0.00    -0.202 N 
HETATM    4  C   UNL     1      26.914  42.693  51.651  1.00  0.00     0.183 A 
HETATM    5  C   UNL     1      26.640  43.233  50.395  1.00  0.00     0.124 A 
HETATM    6  N   UNL     1      27.084  42.626  49.265  1.00  0.00    -0.242 NA
HETATM    7  C   UNL     1      27.721  41.459  49.464  1.00  0.00     0.086 A 
HETATM    8  C   UNL     1      27.962  40.921  50.757  1.00  0.00     0.088 A 
HETATM    9  N   UNL     1      27.593  41.547  51.886  1.00  0.00    -0.225 NA
HETATM   10  C   UNL     1      28.153  40.746  48.353  1.00  0.00     0.034 A 
HETATM   11  C   UNL     1      28.798  39.514  48.477  1.00  0.00     0.002 A 
HETATM   12  C   UNL     1      29.022  38.985  49.740  1.00  0.00     0.002 A 
HETATM   13  C   UNL     1      28.607  39.696  50.866  1.00  0.00     0.034 A 
ENDROOT
BRANCH   1  14
HETATM   14  C   UNL     1      25.713  45.550  49.650  1.00  0.00     0.257 C 
HETATM   15  N   UNL     1      24.369  45.841  49.442  1.00  0.00    -0.357 N 
HETATM   16  H   UNL     1      23.750  45.182  49.903  1.00  0.00     0.162 HD
HETATM   17  O   UNL     1      26.616  46.251  49.210  1.00  0.00    -0.267 OA
BRANCH  15  18
HETATM   18  C   UNL     1      23.885  47.201  49.563  1.00  0.00     0.123 C 
BRANCH  18  19
HETATM   19  C   UNL     1      22.900  47.701  48.516  1.00  0.00     0.024 C 
BRANCH  19  20
HETATM   20  C   UNL     1      23.056  49.191  48.200  1.00  0.00     0.040 C 
BRANCH  20  21
HETATM   21  C   UNL     1      21.838  50.032  48.524  1.00  0.00    -0.058 A 
HETATM   22  C   UNL     1      20.921  50.445  47.547  1.00  0.00     0.007 A 
HETATM   23  C   UNL     1      19.830  51.248  47.886  1.00  0.00     0.001 A 
HETATM   24  C   UNL     1      19.623  51.624  49.211  1.00  0.00     0.000 A 
HETATM   25  C   UNL     1      20.503  51.190  50.199  1.00  0.00     0.001 A 
HETATM   26  C   UNL     1      21.600  50.395  49.859  1.00  0.00     0.007 A 
ENDBRANCH  20  21
ENDBRANCH  19  20
ENDBRANCH  18  19
ENDBRANCH  15  18
ENDBRANCH   1  14
BRANCH   2  27
HETATM   27  N   UNL     1      24.620  45.156  52.629  1.00  0.00    -0.286 NA
HETATM   28  H   UNL     1      23.930  44.607  53.153  1.00  0.00     0.125 HD
HETATM   29  H   UNL     1      25.002  45.861  53.271  1.00  0.00     0.125 HD
ENDBRANCH   2  27
BRANCH   3  30
HETATM   30  N   UNL     1      27.034  43.823  53.829  1.00  0.00    -0.176 NA
HETATM   31  C   UNL     1      27.691  44.937  53.907  1.00  0.00     0.153 C 
BRANCH  31  32
HETATM   32  C   UNL     1      28.433  45.320  55.085  1.00  0.00     0.011 A 
HETATM   33  C   UNL     1      29.564  44.623  55.620  1.00  0.00     0.004 A 
HETATM   34  C   UNL     1      29.896  45.235  56.828  1.00  0.00     0.043 A 
HETATM   35  C   UNL     1      30.326  43.513  55.195  1.00  0.00     0.014 A 
HETATM   36  C   UNL     1      30.938  44.778  57.644  1.00  0.00     0.030 A 
HETATM   37  N   UNL     1      29.023  46.286  57.001  1.00  0.00    -0.364 N 
HETATM   38  C   UNL     1      31.676  43.674  57.200  1.00  0.00     0.002 A 
HETATM   39  C   UNL     1      31.380  43.052  55.990  1.00  0.00     0.001 A 
HETATM   40  H   UNL     1      29.018  46.900  57.803  1.00  0.00     0.165 HD
HETATM   41  C   UNL     1      28.149  46.357  55.948  1.00  0.00     0.102 A 
ENDBRANCH  31  32
ENDBRANCH   3  30
TORSDOF 8
ENDMDL
MODEL 3
REMARK VINA RESULT:     -10.8      2.546      8.102
REMARK  8 active torsions:
REMARK  status: ('A' for Active; 'I' for Inactive)
REMARK    1  A    between atoms: C_4  and  C_5 
REMARK    2  A    between atoms: C_5  and  C_6 
REMARK    3  A    between atoms: C_6  and  C_7 
REMARK    4  A    between atoms: C_7  and  N_8 
REMARK       I    between atoms: N_8  and  C_9 
REMARK    5  A    between atoms: C_9  and  C_10 
REMARK    6  A    between atoms: C_11  and  N_12 
REMARK    7  A    between atoms: N_13  and  N_14 
REMARK    8  A    between atoms: C_15  and  C_16 
ROOT
HETATM    1  C   UNL     1      26.719  43.024  52.101  1.00  0.00     0.104 C 
HETATM    2  C   UNL     1      25.667  43.931  52.020  1.00  0.00     0.123 C 
HETATM    3  N   UNL     1      26.200  45.163  52.400  1.00  0.00    -0.202 N 
HETATM    4  C   UNL     1      27.200  44.894  53.316  1.00  0.00     0.183 A 
HETATM    5  C   UNL     1      27.597  43.578  53.082  1.00  0.00     0.124 A 
HETATM    6  N   UNL     1      28.684  43.060  53.707  1.00  0.00    -0.242 NA
HETATM    7  C   UNL     1      29.271  43.881  54.595  1.00  0.00     0.086 A 
HETATM    8  C   UNL     1      28.826  45.209  54.830  1.00  0.00     0.088 A 
HETATM    9  N   UNL     1      27.796  45.760  54.167  1.00  0.00    -0.225 NA
HETATM   10  C   UNL     1      30.355  43.401  55.320  1.00  0.00     0.034 A 
HETATM   11  C   UNL     1      31.000  44.184  56.279  1.00  0.00     0.002 A 
HETATM   12  C   UNL     1      30.556  45.478  56.516  1.00  0.00     0.002 A 
HETATM   13  C   UNL     1      29.478  45.978  55.785  1.00  0.00     0.034 A 
ENDROOT
BRANCH   1  14
HETATM   14  C   UNL     1      26.903  41.834  51.277  1.00  0.00     0.257 C 
HETATM   15  N   UNL     1      25.705  41.264  50.859  1.00  0.00    -0.357 N 
HETATM   16  H   UNL     1      24.894  41.710  51.273  1.00  0.00     0.162 HD
HETATM   17  O   UNL     1      27.993  41.463  50.859  1.00  0.00    -0.267 OA
BRANCH  15  18
HETATM   18  C   UNL     1      25.489  40.956  49.460  1.00  0.00     0.123 C 
BRANCH  18  19
HETATM   19  C   UNL     1      24.912  42.049  48.572  1.00  0.00     0.024 C 
BRANCH  19  20
HETATM   20  C   UNL     1      23.383  42.117  48.609  1.00  0.00     0.040 C 
BRANCH  20  21
HETATM   21  C   UNL     1      22.796  43.375  48.003  1.00  0.00    -0.058 A 
HETATM   22  C   UNL     1      21.968  44.248  48.723  1.00  0.00     0.007 A 
HETATM   23  C   UNL     1      21.421  45.380  48.114  1.00  0.00     0.001 A 
HETATM   24  C   UNL     1      21.720  45.672  46.785  1.00  0.00     0.000 A 
HETATM   25  C   UNL     1      22.572  44.836  46.067  1.00  0.00     0.001 A 
HETATM   26  C   UNL     1      23.110  43.698  46.674  1.00  0.00     0.007 A 
ENDBRANCH  20  21
ENDBRANCH  19  20
ENDBRANCH  18  19
ENDBRANCH  15  18
ENDBRANCH   1  14
BRANCH   2  27
HETATM   27  N   UNL     1      24.405  43.818  51.494  1.00  0.00    -0.286 NA
HETATM   28  H   UNL     1      24.346  43.833  50.470  1.00  0.00     0.125 HD
HETATM   29  H   UNL     1      23.865  43.006  51.819  1.00  0.00     0.125 HD
ENDBRANCH   2  27
BRANCH   3  30
HETATM   30  N   UNL     1      25.903  46.399  51.870  1.00  0.00    -0.176 NA
HETATM   31  C   UNL     1      26.334  46.515  50.654  1.00  0.00     0.153 C 
BRANCH  31  32
HETATM   32  C   UNL     1      26.240  47.749  49.912  1.00  0.00     0.011 A 
HETATM   33  C   UNL     1      25.031  48.335  49.418  1.00  0.00     0.004 A 
HETATM   34  C   UNL     1      25.388  49.439  48.646  1.00  0.00     0.043 A 
HETATM   35  C   UNL     1      23.661  48.015  49.543  1.00  0.00     0.014 A 
HETATM   36  C   UNL     1      24.445  50.226  47.972  1.00  0.00     0.030 A 
HETATM   37  N   UNL     1      26.760  49.541  48.698  1.00  0.00    -0.364 N 
HETATM   38  C   UNL     1      23.095  49.885  48.111  1.00  0.00     0.002 A 
HETATM   39  C   UNL     1      22.704  48.799  48.890  1.00  0.00     0.001 A 
HETATM   40  H   UNL     1      27.301  50.244  48.215  1.00  0.00     0.165 HD
HETATM   41  C   UNL     1      27.283  48.538  49.473  1.00  0.00     0.102 A 
ENDBRANCH  31  32
ENDBRANCH   3  30
TORSDOF 8
ENDMDL
MODEL 4
REMARK VINA RESULT:     -10.7      3.325      9.959
REMARK  8 active torsions:
REMARK  status: ('A' for Active; 'I' for Inactive)
REMARK    1  A    between atoms: C_4  and  C_5 
REMARK    2  A    between atoms: C_5  and  C_6 
REMARK    3  A    between atoms: C_6  and  C_7 
REMARK    4  A    between atoms: C_7  and  N_8 
REMARK       I    between atoms: N_8  and  C_9 
REMARK    5  A    between atoms: C_9  and  C_10 
REMARK    6  A    between atoms: C_11  and  N_12 
REMARK    7  A    between atoms: N_13  and  N_14 
REMARK    8  A    between atoms: C_15  and  C_16 
ROOT
HETATM    1  C   UNL     1      26.571  42.891  51.891  1.00  0.00     0.104 C 
HETATM    2  C   UNL     1      25.530  43.812  51.861  1.00  0.00     0.123 C 
HETATM    3  N   UNL     1      26.085  45.024  52.275  1.00  0.00    -0.202 N 
HETATM    4  C   UNL     1      27.098  44.710  53.162  1.00  0.00     0.183 A 
HETATM    5  C   UNL     1      27.474  43.399  52.874  1.00  0.00     0.124 A 
HETATM    6  N   UNL     1      28.567  42.845  53.459  1.00  0.00    -0.242 NA
HETATM    7  C   UNL     1      29.180  43.627  54.365  1.00  0.00     0.086 A 
HETATM    8  C   UNL     1      28.756  44.951  54.655  1.00  0.00     0.088 A 
HETATM    9  N   UNL     1      27.722  45.538  54.032  1.00  0.00    -0.225 NA
HETATM   10  C   UNL     1      30.271  43.109  55.052  1.00  0.00     0.034 A 
HETATM   11  C   UNL     1      30.943  43.849  56.025  1.00  0.00     0.002 A 
HETATM   12  C   UNL     1      30.520  45.139  56.316  1.00  0.00     0.002 A 
HETATM   13  C   UNL     1      29.435  45.677  55.624  1.00  0.00     0.034 A 
ENDROOT
BRANCH   1  14
HETATM   14  C   UNL     1      26.725  41.728  51.021  1.00  0.00     0.257 C 
HETATM   15  N   UNL     1      28.051  41.343  50.849  1.00  0.00    -0.357 N 
HETATM   16  H   UNL     1      28.705  41.990  51.276  1.00  0.00     0.162 HD
HETATM   17  O   UNL     1      25.784  41.059  50.614  1.00  0.00    -0.267 OA
BRANCH  15  18
HETATM   18  C   UNL     1      28.447  39.966  51.059  1.00  0.00     0.123 C 
BRANCH  18  19
HETATM   19  C   UNL     1      29.005  39.197  49.870  1.00  0.00     0.024 C 
BRANCH  19  20
HETATM   20  C   UNL     1      27.922  38.674  48.924  1.00  0.00     0.040 C 
BRANCH  20  21
HETATM   21  C   UNL     1      28.024  39.194  47.505  1.00  0.00    -0.058 A 
HETATM   22  C   UNL     1      28.118  40.561  47.204  1.00  0.00     0.007 A 
HETATM   23  C   UNL     1      28.177  40.998  45.879  1.00  0.00     0.001 A 
HETATM   24  C   UNL     1      28.173  40.074  44.837  1.00  0.00     0.000 A 
HETATM   25  C   UNL     1      28.118  38.711  45.120  1.00  0.00     0.001 A 
HETATM   26  C   UNL     1      28.049  38.275  46.445  1.00  0.00     0.007 A 
ENDBRANCH  20  21
ENDBRANCH  19  20
ENDBRANCH  18  19
ENDBRANCH  15  18
ENDBRANCH   1  14
BRANCH   2  27
HETATM   27  N   UNL     1      24.257  43.733  51.356  1.00  0.00    -0.286 NA
HETATM   28  H   UNL     1      24.063  44.327  50.542  1.00  0.00     0.125 HD
HETATM   29  H   UNL     1      23.934  42.785  51.127  1.00  0.00     0.125 HD
ENDBRANCH   2  27
BRANCH   3  30
HETATM   30  N   UNL     1      25.794  46.281  51.795  1.00  0.00    -0.176 NA
HETATM   31  C   UNL     1      26.190  46.430  50.570  1.00  0.00     0.153 C 
BRANCH  31  32
HETATM   32  C   UNL     1      26.095  47.690  49.872  1.00  0.00     0.011 A 
HETATM   33  C   UNL     1      24.887  48.283  49.382  1.00  0.00     0.004 A 
HETATM   34  C   UNL     1      25.246  49.417  48.655  1.00  0.00     0.043 A 
HETATM   35  C   UNL     1      23.519  47.946  49.476  1.00  0.00     0.014 A 
HETATM   36  C   UNL     1      24.305  50.219  47.998  1.00  0.00     0.030 A 
HETATM   37  N   UNL     1      26.616  49.528  48.731  1.00  0.00    -0.364 N 
HETATM   38  C   UNL     1      22.956  49.863  48.105  1.00  0.00     0.002 A 
HETATM   39  C   UNL     1      22.565  48.745  48.838  1.00  0.00     0.001 A 
HETATM   40  H   UNL     1      27.157  50.253  48.281  1.00  0.00     0.165 HD
HETATM   41  C   UNL     1      27.137  48.503  49.477  1.00  0.00     0.102 A 
ENDBRANCH  31  32
ENDBRANCH   3  30
TORSDOF 8
ENDMDL
MODEL 5
REMARK VINA RESULT:     -10.5      2.764      5.003
REMARK  8 active torsions:
REMARK  status: ('A' for Active; 'I' for Inactive)
REMARK    1  A    between atoms: C_4  and  C_5 
REMARK    2  A    between atoms: C_5  and  C_6 
REMARK    3  A    between atoms: C_6  and  C_7 
REMARK    4  A    between atoms: C_7  and  N_8 
REMARK       I    between atoms: N_8  and  C_9 
REMARK    5  A    between atoms: C_9  and  C_10 
REMARK    6  A    between atoms: C_11  and  N_12 
REMARK    7  A    between atoms: N_13  and  N_14 
REMARK    8  A    between atoms: C_15  and  C_16 
ROOT
HETATM    1  C   UNL     1      20.965  45.038  48.272  1.00  0.00     0.104 C 
HETATM    2  C   UNL     1      21.967  44.114  48.547  1.00  0.00     0.123 C 
HETATM    3  N   UNL     1      22.903  44.793  49.328  1.00  0.00    -0.202 N 
HETATM    4  C   UNL     1      22.865  46.116  48.928  1.00  0.00     0.183 A 
HETATM    5  C   UNL     1      21.615  46.307  48.339  1.00  0.00     0.124 A 
HETATM    6  N   UNL     1      21.196  47.550  47.990  1.00  0.00    -0.242 NA
HETATM    7  C   UNL     1      22.097  48.527  48.189  1.00  0.00     0.086 A 
HETATM    8  C   UNL     1      23.373  48.295  48.769  1.00  0.00     0.088 A 
HETATM    9  N   UNL     1      23.774  47.084  49.185  1.00  0.00    -0.225 NA
HETATM   10  C   UNL     1      21.764  49.819  47.801  1.00  0.00     0.034 A 
HETATM   11  C   UNL     1      22.655  50.882  47.951  1.00  0.00     0.002 A 
HETATM   12  C   UNL     1      23.907  50.652  48.506  1.00  0.00     0.002 A 
HETATM   13  C   UNL     1      24.249  49.362  48.914  1.00  0.00     0.034 A 
ENDROOT
BRANCH   1  14
HETATM   14  C   UNL     1      19.549  44.746  48.067  1.00  0.00     0.257 C 
HETATM   15  N   UNL     1      18.704  45.628  48.733  1.00  0.00    -0.357 N 
HETATM   16  H   UNL     1      19.206  46.274  49.332  1.00  0.00     0.162 HD
HETATM   17  O   UNL     1      19.138  43.914  47.267  1.00  0.00    -0.267 OA
BRANCH  15  18
HETATM   18  C   UNL     1      17.626  46.286  48.024  1.00  0.00     0.123 C 
BRANCH  18  19
HETATM   19  C   UNL     1      17.033  47.545  48.640  1.00  0.00     0.024 C 
BRANCH  19  20
HETATM   20  C   UNL     1      17.973  48.236  49.631  1.00  0.00     0.040 C 
BRANCH  20  21
HETATM   21  C   UNL     1      18.343  49.656  49.258  1.00  0.00    -0.058 A 
HETATM   22  C   UNL     1      18.967  50.537  50.154  1.00  0.00     0.007 A 
HETATM   23  C   UNL     1      19.260  51.850  49.778  1.00  0.00     0.001 A 
HETATM   24  C   UNL     1      18.961  52.292  48.492  1.00  0.00     0.000 A 
HETATM   25  C   UNL     1      18.377  51.418  47.577  1.00  0.00     0.001 A 
HETATM   26  C   UNL     1      18.074  50.109  47.957  1.00  0.00     0.007 A 
ENDBRANCH  20  21
ENDBRANCH  19  20
ENDBRANCH  18  19
ENDBRANCH  15  18
ENDBRANCH   1  14
BRANCH   2  27
HETATM   27  N   UNL     1      22.039  42.759  48.343  1.00  0.00    -0.286 NA
HETATM   28  H   UNL     1      21.337  42.366  47.707  1.00  0.00     0.125 HD
HETATM   29  H   UNL     1      22.956  42.409  48.040  1.00  0.00     0.125 HD
ENDBRANCH   2  27
BRANCH   3  30
HETATM   30  N   UNL     1      23.622  44.292  50.390  1.00  0.00    -0.176 NA
HETATM   31  C   UNL     1      24.746  43.774  50.006  1.00  0.00     0.153 C 
BRANCH  31  32
HETATM   32  C   UNL     1      25.636  43.089  50.913  1.00  0.00     0.011 A 
HETATM   33  C   UNL     1      26.332  43.691  52.011  1.00  0.00     0.004 A 
HETATM   34  C   UNL     1      27.183  42.724  52.543  1.00  0.00     0.043 A 
HETATM   35  C   UNL     1      26.327  44.979  52.590  1.00  0.00     0.014 A 
HETATM   36  C   UNL     1      28.049  42.988  53.612  1.00  0.00     0.030 A 
HETATM   37  N   UNL     1      26.986  41.570  51.819  1.00  0.00    -0.364 N 
HETATM   38  C   UNL     1      28.027  44.273  54.166  1.00  0.00     0.002 A 
HETATM   39  C   UNL     1      27.175  45.255  53.668  1.00  0.00     0.001 A 
HETATM   40  H   UNL     1      27.484  40.704  51.974  1.00  0.00     0.165 HD
HETATM   41  C   UNL     1      26.042  41.773  50.846  1.00  0.00     0.102 A 
ENDBRANCH  31  32
ENDBRANCH   3  30
TORSDOF 8
ENDMDL
MODEL 6
REMARK VINA RESULT:     -10.5      3.329      7.915
REMARK  8 active torsions:
REMARK  status: ('A' for Active; 'I' for Inactive)
REMARK    1  A    between atoms: C_4  and  C_5 
REMARK    2  A    between atoms: C_5  and  C_6 
REMARK    3  A    between atoms: C_6  and  C_7 
REMARK    4  A    between atoms: C_7  and  N_8 
REMARK       I    between atoms: N_8  and  C_9 
REMARK    5  A    between atoms: C_9  and  C_10 
REMARK    6  A    between atoms: C_11  and  N_12 
REMARK    7  A    between atoms: N_13  and  N_14 
REMARK    8  A    between atoms: C_15  and  C_16 
ROOT
HETATM    1  C   UNL     1      24.975  45.533  51.805  1.00  0.00     0.104 C 
HETATM    2  C   UNL     1      25.034  44.304  52.451  1.00  0.00     0.123 C 
HETATM    3  N   UNL     1      24.958  43.342  51.443  1.00  0.00    -0.202 N 
HETATM    4  C   UNL     1      24.186  43.889  50.435  1.00  0.00     0.183 A 
HETATM    5  C   UNL     1      24.258  45.272  50.598  1.00  0.00     0.124 A 
HETATM    6  N   UNL     1      23.741  46.109  49.662  1.00  0.00    -0.242 NA
HETATM    7  C   UNL     1      23.111  45.498  48.644  1.00  0.00     0.086 A 
HETATM    8  C   UNL     1      23.033  44.085  48.520  1.00  0.00     0.088 A 
HETATM    9  N   UNL     1      23.601  43.245  49.399  1.00  0.00    -0.225 NA
HETATM   10  C   UNL     1      22.503  46.288  47.676  1.00  0.00     0.034 A 
HETATM   11  C   UNL     1      21.808  45.729  46.603  1.00  0.00     0.002 A 
HETATM   12  C   UNL     1      21.722  44.348  46.490  1.00  0.00     0.002 A 
HETATM   13  C   UNL     1      22.340  43.541  47.447  1.00  0.00     0.034 A 
ENDROOT
BRANCH   1  14
HETATM   14  C   UNL     1      25.607  46.775  52.242  1.00  0.00     0.257 C 
HETATM   15  N   UNL     1      25.727  46.872  53.625  1.00  0.00    -0.357 N 
HETATM   16  H   UNL     1      25.270  46.109  54.113  1.00  0.00     0.162 HD
HETATM   17  O   UNL     1      26.125  47.576  51.475  1.00  0.00    -0.267 OA
BRANCH  15  18
HETATM   18  C   UNL     1      27.002  47.202  54.228  1.00  0.00     0.123 C 
BRANCH  18  19
HETATM   19  C   UNL     1      27.902  46.055  54.663  1.00  0.00     0.024 C 
BRANCH  19  20
HETATM   20  C   UNL     1      28.615  46.314  55.993  1.00  0.00     0.040 C 
BRANCH  20  21
HETATM   21  C   UNL     1      29.674  45.291  56.346  1.00  0.00    -0.058 A 
HETATM   22  C   UNL     1      30.029  44.240  55.488  1.00  0.00     0.007 A 
HETATM   23  C   UNL     1      30.988  43.300  55.869  1.00  0.00     0.001 A 
HETATM   24  C   UNL     1      31.629  43.413  57.100  1.00  0.00     0.000 A 
HETATM   25  C   UNL     1      31.316  44.473  57.948  1.00  0.00     0.001 A 
HETATM   26  C   UNL     1      30.349  45.408  57.571  1.00  0.00     0.007 A 
ENDBRANCH  20  21
ENDBRANCH  19  20
ENDBRANCH  18  19
ENDBRANCH  15  18
ENDBRANCH   1  14
BRANCH   2  27
HETATM   27  N   UNL     1      25.320  43.970  53.751  1.00  0.00    -0.286 NA
HETATM   28  H   UNL     1      25.903  44.640  54.265  1.00  0.00     0.125 HD
HETATM   29  H   UNL     1      24.504  43.759  54.340  1.00  0.00     0.125 HD
ENDBRANCH   2  27
BRANCH   3  30
HETATM   30  N   UNL     1      25.631  42.143  51.383  1.00  0.00    -0.176 NA
HETATM   31  C   UNL     1      26.874  42.308  51.054  1.00  0.00     0.153 C 
BRANCH  31  32
HETATM   32  C   UNL     1      27.769  41.199  50.822  1.00  0.00     0.011 A 
HETATM   33  C   UNL     1      27.890  40.467  49.597  1.00  0.00     0.004 A 
HETATM   34  C   UNL     1      28.755  39.400  49.833  1.00  0.00     0.043 A 
HETATM   35  C   UNL     1      27.327  40.607  48.309  1.00  0.00     0.014 A 
HETATM   36  C   UNL     1      29.067  38.451  48.852  1.00  0.00     0.030 A 
HETATM   37  N   UNL     1      29.171  39.500  51.142  1.00  0.00    -0.364 N 
HETATM   38  C   UNL     1      28.494  38.610  47.586  1.00  0.00     0.002 A 
HETATM   39  C   UNL     1      27.640  39.676  47.313  1.00  0.00     0.001 A 
HETATM   40  H   UNL     1      29.795  38.848  51.597  1.00  0.00     0.165 HD
HETATM   41  C   UNL     1      28.597  40.591  51.742  1.00  0.00     0.102 A 
ENDBRANCH  31  32
ENDBRANCH   3  30
TORSDOF 8
ENDMDL
MODEL 7
REMARK VINA RESULT:     -10.5      2.993      9.952
REMARK  8 active torsions:
REMARK  status: ('A' for Active; 'I' for Inactive)
REMARK    1  A    between atoms: C_4  and  C_5 
REMARK    2  A    between atoms: C_5  and  C_6 
REMARK    3  A    between atoms: C_6  and  C_7 
REMARK    4  A    between atoms: C_7  and  N_8 
REMARK       I    between atoms: N_8  and  C_9 
REMARK    5  A    between atoms: C_9  and  C_10 
REMARK    6  A    between atoms: C_11  and  N_12 
REMARK    7  A    between atoms: N_13  and  N_14 
REMARK    8  A    between atoms: C_15  and  C_16 
ROOT
HETATM    1  C   UNL     1      26.025  43.134  51.768  1.00  0.00     0.104 C 
HETATM    2  C   UNL     1      25.058  44.133  51.765  1.00  0.00     0.123 C 
HETATM    3  N   UNL     1      25.721  45.302  52.143  1.00  0.00    -0.202 N 
HETATM    4  C   UNL     1      26.739  44.919  52.995  1.00  0.00     0.183 A 
HETATM    5  C   UNL     1      27.002  43.580  52.710  1.00  0.00     0.124 A 
HETATM    6  N   UNL     1      28.070  42.949  53.261  1.00  0.00    -0.242 NA
HETATM    7  C   UNL     1      28.775  43.690  54.133  1.00  0.00     0.086 A 
HETATM    8  C   UNL     1      28.466  45.046  54.422  1.00  0.00     0.088 A 
HETATM    9  N   UNL     1      27.457  45.705  53.830  1.00  0.00    -0.225 NA
HETATM   10  C   UNL     1      29.849  43.096  54.785  1.00  0.00     0.034 A 
HETATM   11  C   UNL     1      30.613  43.791  55.723  1.00  0.00     0.002 A 
HETATM   12  C   UNL     1      30.302  45.113  56.013  1.00  0.00     0.002 A 
HETATM   13  C   UNL     1      29.236  45.727  55.356  1.00  0.00     0.034 A 
ENDROOT
BRANCH   1  14
HETATM   14  C   UNL     1      26.056  41.955  50.908  1.00  0.00     0.257 C 
HETATM   15  N   UNL     1      25.092  41.980  49.906  1.00  0.00    -0.357 N 
HETATM   16  H   UNL     1      24.459  42.768  49.991  1.00  0.00     0.162 HD
HETATM   17  O   UNL     1      26.938  41.105  50.956  1.00  0.00    -0.267 OA
BRANCH  15  18
HETATM   18  C   UNL     1      25.463  41.741  48.526  1.00  0.00     0.123 C 
BRANCH  18  19
HETATM   19  C   UNL     1      25.252  40.342  47.965  1.00  0.00     0.024 C 
BRANCH  19  20
HETATM   20  C   UNL     1      26.518  39.738  47.351  1.00  0.00     0.040 C 
BRANCH  20  21
HETATM   21  C   UNL     1      27.344  38.906  48.309  1.00  0.00    -0.058 A 
HETATM   22  C   UNL     1      26.810  37.828  49.031  1.00  0.00     0.007 A 
HETATM   23  C   UNL     1      27.600  37.109  49.930  1.00  0.00     0.001 A 
HETATM   24  C   UNL     1      28.943  37.436  50.097  1.00  0.00     0.000 A 
HETATM   25  C   UNL     1      29.499  38.478  49.360  1.00  0.00     0.001 A 
HETATM   26  C   UNL     1      28.706  39.205  48.469  1.00  0.00     0.007 A 
ENDBRANCH  20  21
ENDBRANCH  19  20
ENDBRANCH  18  19
ENDBRANCH  15  18
ENDBRANCH   1  14
BRANCH   2  27
HETATM   27  N   UNL     1      23.764  44.148  51.309  1.00  0.00    -0.286 NA
HETATM   28  H   UNL     1      23.535  44.895  50.645  1.00  0.00     0.125 HD
HETATM   29  H   UNL     1      23.432  43.264  50.902  1.00  0.00     0.125 HD
ENDBRANCH   2  27
BRANCH   3  30
HETATM   30  N   UNL     1      25.509  46.573  51.658  1.00  0.00    -0.176 NA
HETATM   31  C   UNL     1      25.873  46.680  50.419  1.00  0.00     0.153 C 
BRANCH  31  32
HETATM   32  C   UNL     1      25.851  47.937  49.710  1.00  0.00     0.011 A 
HETATM   33  C   UNL     1      24.680  48.585  49.198  1.00  0.00     0.004 A 
HETATM   34  C   UNL     1      25.104  49.694  48.468  1.00  0.00     0.043 A 
HETATM   35  C   UNL     1      23.296  48.317  49.276  1.00  0.00     0.014 A 
HETATM   36  C   UNL     1      24.213  50.536  47.791  1.00  0.00     0.030 A 
HETATM   37  N   UNL     1      26.477  49.738  48.562  1.00  0.00    -0.364 N 
HETATM   38  C   UNL     1      22.847  50.247  47.882  1.00  0.00     0.002 A 
HETATM   39  C   UNL     1      22.391  49.156  48.618  1.00  0.00     0.001 A 
HETATM   40  H   UNL     1      27.059  50.432  48.114  1.00  0.00     0.165 HD
HETATM   41  C   UNL     1      26.936  48.695  49.323  1.00  0.00     0.102 A 
ENDBRANCH  31  32
ENDBRANCH   3  30
TORSDOF 8
ENDMDL
MODEL 8
REMARK VINA RESULT:     -10.4      2.591      4.500
REMARK  8 active torsions:
REMARK  status: ('A' for Active; 'I' for Inactive)
REMARK    1  A    between atoms: C_4  and  C_5 
REMARK    2  A    between atoms: C_5  and  C_6 
REMARK    3  A    between atoms: C_6  and  C_7 
REMARK    4  A    between atoms: C_7  and  N_8 
REMARK       I    between atoms: N_8  and  C_9 
REMARK    5  A    between atoms: C_9  and  C_10 
REMARK    6  A    between atoms: C_11  and  N_12 
REMARK    7  A    between atoms: N_13  and  N_14 
REMARK    8  A    between atoms: C_15  and  C_16 
ROOT
HETATM    1  C   UNL     1      26.180  43.455  50.625  1.00  0.00     0.104 C 
HETATM    2  C   UNL     1      25.810  43.534  51.963  1.00  0.00     0.123 C 
HETATM    3  N   UNL     1      26.832  42.905  52.676  1.00  0.00    -0.202 N 
HETATM    4  C   UNL     1      27.338  41.918  51.851  1.00  0.00     0.183 A 
HETATM    5  C   UNL     1      27.011  42.296  50.549  1.00  0.00     0.124 A 
HETATM    6  N   UNL     1      27.514  41.620  49.484  1.00  0.00    -0.242 NA
HETATM    7  C   UNL     1      28.263  40.549  49.796  1.00  0.00     0.086 A 
HETATM    8  C   UNL     1      28.557  40.176  51.135  1.00  0.00     0.088 A 
HETATM    9  N   UNL     1      28.127  40.876  52.197  1.00  0.00    -0.225 NA
HETATM   10  C   UNL     1      28.764  39.771  48.760  1.00  0.00     0.034 A 
HETATM   11  C   UNL     1      29.529  38.629  49.005  1.00  0.00     0.002 A 
HETATM   12  C   UNL     1      29.805  38.259  50.314  1.00  0.00     0.002 A 
HETATM   13  C   UNL     1      29.320  39.039  51.364  1.00  0.00     0.034 A 
ENDROOT
BRANCH   1  14
HETATM   14  C   UNL     1      25.858  44.419  49.578  1.00  0.00     0.257 C 
HETATM   15  N   UNL     1      24.492  44.548  49.351  1.00  0.00    -0.357 N 
HETATM   16  H   UNL     1      23.942  43.881  49.882  1.00  0.00     0.162 HD
HETATM   17  O   UNL     1      26.686  45.159  49.061  1.00  0.00    -0.267 OA
BRANCH  15  18
HETATM   18  C   UNL     1      23.872  45.856  49.334  1.00  0.00     0.123 C 
BRANCH  18  19
HETATM   19  C   UNL     1      22.824  46.134  48.266  1.00  0.00     0.024 C 
BRANCH  19  20
HETATM   20  C   UNL     1      21.719  47.086  48.732  1.00  0.00     0.040 C 
BRANCH  20  21
HETATM   21  C   UNL     1      22.084  48.554  48.658  1.00  0.00    -0.058 A 
HETATM   22  C   UNL     1      23.212  49.021  47.968  1.00  0.00     0.007 A 
HETATM   23  C   UNL     1      23.529  50.380  47.954  1.00  0.00     0.001 A 
HETATM   24  C   UNL     1      22.706  51.297  48.603  1.00  0.00     0.000 A 
HETATM   25  C   UNL     1      21.561  50.854  49.261  1.00  0.00     0.001 A 
HETATM   26  C   UNL     1      21.250  49.493  49.284  1.00  0.00     0.007 A 
ENDBRANCH  20  21
ENDBRANCH  19  20
ENDBRANCH  18  19
ENDBRANCH  15  18
ENDBRANCH   1  14
BRANCH   2  27
HETATM   27  N   UNL     1      24.809  44.231  52.592  1.00  0.00    -0.286 NA
HETATM   28  H   UNL     1      23.853  43.921  52.387  1.00  0.00     0.125 HD
HETATM   29  H   UNL     1      24.897  44.298  53.614  1.00  0.00     0.125 HD
ENDBRANCH   2  27
BRANCH   3  30
HETATM   30  N   UNL     1      27.344  43.276  53.899  1.00  0.00    -0.176 NA
HETATM   31  C   UNL     1      27.834  44.475  53.870  1.00  0.00     0.153 C 
BRANCH  31  32
HETATM   32  C   UNL     1      28.524  45.059  54.995  1.00  0.00     0.011 A 
HETATM   33  C   UNL     1      29.637  44.479  55.684  1.00  0.00     0.004 A 
HETATM   34  C   UNL     1      29.914  45.289  56.784  1.00  0.00     0.043 A 
HETATM   35  C   UNL     1      30.426  43.325  55.480  1.00  0.00     0.014 A 
HETATM   36  C   UNL     1      30.925  44.989  57.705  1.00  0.00     0.030 A 
HETATM   37  N   UNL     1      29.026  46.340  56.745  1.00  0.00    -0.364 N 
HETATM   38  C   UNL     1      31.690  43.839  57.482  1.00  0.00     0.002 A 
HETATM   39  C   UNL     1      31.450  43.019  56.382  1.00  0.00     0.001 A 
HETATM   40  H   UNL     1      28.983  47.079  57.432  1.00  0.00     0.165 HD
HETATM   41  C   UNL     1      28.195  46.221  55.661  1.00  0.00     0.102 A 
ENDBRANCH  31  32
ENDBRANCH   3  30
TORSDOF 8
ENDMDL
MODEL 9
REMARK VINA RESULT:     -10.4      1.837      9.777
REMARK  8 active torsions:
REMARK  status: ('A' for Active; 'I' for Inactive)
REMARK    1  A    between atoms: C_4  and  C_5 
REMARK    2  A    between atoms: C_5  and  C_6 
REMARK    3  A    between atoms: C_6  and  C_7 
REMARK    4  A    between atoms: C_7  and  N_8 
REMARK       I    between atoms: N_8  and  C_9 
REMARK    5  A    between atoms: C_9  and  C_10 
REMARK    6  A    between atoms: C_11  and  N_12 
REMARK    7  A    between atoms: N_13  and  N_14 
REMARK    8  A    between atoms: C_15  and  C_16 
ROOT
HETATM    1  C   UNL     1      24.291  46.581  50.100  1.00  0.00     0.104 C 
HETATM    2  C   UNL     1      23.944  47.670  49.308  1.00  0.00     0.123 C 
HETATM    3  N   UNL     1      22.813  47.272  48.593  1.00  0.00    -0.202 N 
HETATM    4  C   UNL     1      22.931  45.909  48.396  1.00  0.00     0.183 A 
HETATM    5  C   UNL     1      23.790  45.446  49.391  1.00  0.00     0.124 A 
HETATM    6  N   UNL     1      23.982  44.115  49.579  1.00  0.00    -0.242 NA
HETATM    7  C   UNL     1      23.348  43.323  48.697  1.00  0.00     0.086 A 
HETATM    8  C   UNL     1      22.498  43.829  47.677  1.00  0.00     0.088 A 
HETATM    9  N   UNL     1      22.242  45.138  47.525  1.00  0.00    -0.225 NA
HETATM   10  C   UNL     1      23.541  41.950  48.787  1.00  0.00     0.034 A 
HETATM   11  C   UNL     1      22.939  41.065  47.892  1.00  0.00     0.002 A 
HETATM   12  C   UNL     1      22.118  41.561  46.888  1.00  0.00     0.002 A 
HETATM   13  C   UNL     1      21.903  42.936  46.795  1.00  0.00     0.034 A 
ENDROOT
BRANCH   1  14
HETATM   14  C   UNL     1      24.934  46.630  51.410  1.00  0.00     0.257 C 
HETATM   15  N   UNL     1      24.914  45.410  52.078  1.00  0.00    -0.357 N 
HETATM   16  H   UNL     1      24.371  44.706  51.590  1.00  0.00     0.162 HD
HETATM   17  O   UNL     1      25.568  47.596  51.816  1.00  0.00    -0.267 OA
BRANCH  15  18
HETATM   18  C   UNL     1      26.133  44.857  52.630  1.00  0.00     0.123 C 
BRANCH  18  19
HETATM   19  C   UNL     1      26.327  44.927  54.138  1.00  0.00     0.024 C 
BRANCH  19  20
HETATM   20  C   UNL     1      27.500  45.816  54.558  1.00  0.00     0.040 C 
BRANCH  20  21
HETATM   21  C   UNL     1      28.722  45.059  55.035  1.00  0.00    -0.058 A 
HETATM   22  C   UNL     1      29.118  43.833  54.481  1.00  0.00     0.007 A 
HETATM   23  C   UNL     1      30.232  43.152  54.975  1.00  0.00     0.001 A 
HETATM   24  C   UNL     1      30.986  43.701  56.009  1.00  0.00     0.000 A 
HETATM   25  C   UNL     1      30.629  44.937  56.544  1.00  0.00     0.001 A 
HETATM   26  C   UNL     1      29.507  45.612  56.057  1.00  0.00     0.007 A 
ENDBRANCH  20  21
ENDBRANCH  19  20
ENDBRANCH  18  19
ENDBRANCH  15  18
ENDBRANCH   1  14
BRANCH   2  27
HETATM   27  N   UNL     1      24.391  48.967  49.296  1.00  0.00    -0.286 NA
HETATM   28  H   UNL     1      25.045  49.206  48.544  1.00  0.00     0.125 HD
HETATM   29  H   UNL     1      23.655  49.685  49.302  1.00  0.00     0.125 HD
ENDBRANCH   2  27
BRANCH   3  30
HETATM   30  N   UNL     1      21.719  48.043  48.270  1.00  0.00    -0.176 NA
HETATM   31  C   UNL     1      20.757  47.893  49.125  1.00  0.00     0.153 C 
BRANCH  31  32
HETATM   32  C   UNL     1      19.464  48.512  48.955  1.00  0.00     0.011 A 
HETATM   33  C   UNL     1      19.224  49.915  48.804  1.00  0.00     0.004 A 
HETATM   34  C   UNL     1      17.844  50.105  48.806  1.00  0.00     0.043 A 
HETATM   35  C   UNL     1      20.060  51.048  48.682  1.00  0.00     0.014 A 
HETATM   36  C   UNL     1      17.256  51.373  48.717  1.00  0.00     0.030 A 
HETATM   37  N   UNL     1      17.266  48.860  48.919  1.00  0.00    -0.364 N 
HETATM   38  C   UNL     1      18.106  52.478  48.600  1.00  0.00     0.002 A 
HETATM   39  C   UNL     1      19.490  52.320  48.577  1.00  0.00     0.001 A 
HETATM   40  H   UNL     1      16.271  48.692  48.963  1.00  0.00     0.165 HD
HETATM   41  C   UNL     1      18.233  47.891  48.991  1.00  0.00     0.102 A 
ENDBRANCH  31  32
ENDBRANCH   3  30
TORSDOF 8
ENDMDL
MODEL 10
REMARK VINA RESULT:     -10.4      2.172      9.791
REMARK  8 active torsions:
REMARK  status: ('A' for Active; 'I' for Inactive)
REMARK    1  A    between atoms: C_4  and  C_5 
REMARK    2  A    between atoms: C_5  and  C_6 
REMARK    3  A    between atoms: C_6  and  C_7 
REMARK    4  A    between atoms: C_7  and  N_8 
REMARK       I    between atoms: N_8  and  C_9 
REMARK    5  A    between atoms: C_9  and  C_10 
REMARK    6  A    between atoms: C_11  and  N_12 
REMARK    7  A    between atoms: N_13  and  N_14 
REMARK    8  A    between atoms: C_15  and  C_16 
ROOT
HETATM    1  C   UNL     1      25.185  46.052  51.407  1.00  0.00     0.104 C 
HETATM    2  C   UNL     1      24.622  46.859  50.425  1.00  0.00     0.123 C 
HETATM    3  N   UNL     1      23.876  46.002  49.614  1.00  0.00    -0.202 N 
HETATM    4  C   UNL     1      24.521  44.780  49.634  1.00  0.00     0.183 A 
HETATM    5  C   UNL     1      25.282  44.762  50.803  1.00  0.00     0.124 A 
HETATM    6  N   UNL     1      25.908  43.627  51.206  1.00  0.00    -0.242 NA
HETATM    7  C   UNL     1      25.791  42.587  50.362  1.00  0.00     0.086 A 
HETATM    8  C   UNL     1      25.029  42.646  49.165  1.00  0.00     0.088 A 
HETATM    9  N   UNL     1      24.345  43.738  48.790  1.00  0.00    -0.225 NA
HETATM   10  C   UNL     1      26.454  41.407  50.676  1.00  0.00     0.034 A 
HETATM   11  C   UNL     1      26.403  40.292  49.837  1.00  0.00     0.002 A 
HETATM   12  C   UNL     1      25.668  40.355  48.661  1.00  0.00     0.002 A 
HETATM   13  C   UNL     1      24.985  41.529  48.341  1.00  0.00     0.034 A 
ENDROOT
BRANCH   1  14
HETATM   14  C   UNL     1      25.499  46.445  52.778  1.00  0.00     0.257 C 
HETATM   15  N   UNL     1      25.676  45.363  53.633  1.00  0.00    -0.357 N 
HETATM   16  H   UNL     1      25.463  44.475  53.191  1.00  0.00     0.162 HD
HETATM   17  O   UNL     1      25.744  47.598  53.111  1.00  0.00    -0.267 OA
BRANCH  15  18
HETATM   18  C   UNL     1      26.856  45.273  54.468  1.00  0.00     0.123 C 
BRANCH  18  19
HETATM   19  C   UNL     1      27.667  43.986  54.418  1.00  0.00     0.024 C 
BRANCH  19  20
HETATM   20  C   UNL     1      29.168  44.222  54.227  1.00  0.00     0.040 C 
BRANCH  20  21
HETATM   21  C   UNL     1      29.963  44.276  55.515  1.00  0.00    -0.058 A 
HETATM   22  C   UNL     1      30.894  43.290  55.874  1.00  0.00     0.007 A 
HETATM   23  C   UNL     1      31.580  43.363  57.087  1.00  0.00     0.001 A 
HETATM   24  C   UNL     1      31.369  44.438  57.947  1.00  0.00     0.000 A 
HETATM   25  C   UNL     1      30.476  45.446  57.589  1.00  0.00     0.001 A 
HETATM   26  C   UNL     1      29.782  45.367  56.379  1.00  0.00     0.007 A 
ENDBRANCH  20  21
ENDBRANCH  19  20
ENDBRANCH  18  19
ENDBRANCH  15  18
ENDBRANCH   1  14
BRANCH   2  27
HETATM   27  N   UNL     1      24.555  48.223  50.294  1.00  0.00    -0.286 NA
HETATM   28  H   UNL     1      24.191  48.567  49.399  1.00  0.00     0.125 HD
HETATM   29  H   UNL     1      24.044  48.711  51.040  1.00  0.00     0.125 HD
ENDBRANCH   2  27
BRANCH   3  30
HETATM   30  N   UNL     1      22.660  46.263  49.023  1.00  0.00    -0.176 NA
HETATM   31  C   UNL     1      22.691  47.355  48.326  1.00  0.00     0.153 C 
BRANCH  31  32
HETATM   32  C   UNL     1      21.515  47.903  47.692  1.00  0.00     0.011 A 
HETATM   33  C   UNL     1      21.000  49.224  47.892  1.00  0.00     0.004 A 
HETATM   34  C   UNL     1      19.788  49.306  47.208  1.00  0.00     0.043 A 
HETATM   35  C   UNL     1      21.447  50.356  48.609  1.00  0.00     0.014 A 
HETATM   36  C   UNL     1      18.989  50.456  47.225  1.00  0.00     0.030 A 
HETATM   37  N   UNL     1      19.593  48.093  46.587  1.00  0.00    -0.364 N 
HETATM   38  C   UNL     1      19.454  51.562  47.945  1.00  0.00     0.002 A 
HETATM   39  C   UNL     1      20.669  51.517  48.625  1.00  0.00     0.001 A 
HETATM   40  H   UNL     1      18.783  47.858  46.030  1.00  0.00     0.165 HD
HETATM   41  C   UNL     1      20.636  47.246  46.857  1.00  0.00     0.102 A 
ENDBRANCH  31  32
ENDBRANCH   3  30
TORSDOF 8
ENDMDL
