MODEL 1
REMARK VINA RESULT:     -10.3      0.000      0.000
REMARK  4 active torsions:
REMARK  status: ('A' for Active; 'I' for Inactive)
REMARK    1  A    between atoms: C_3  and  C_4 
REMARK    2  A    between atoms: C_4  and  N_5 
REMARK       I    between atoms: N_5  and  C_6 
REMARK       I    between atoms: C_6  and  N_7 
REMARK    3  A    between atoms: N_7  and  C_8 
REMARK    4  A    between atoms: C_17  and  C_18 
ROOT
HETATM    1  C   UNL     1      25.660  48.359  49.368  1.00  0.00     0.049 C 
HETATM    2  C   UNL     1      25.409  47.213  50.309  1.00  0.00    -0.053 A 
HETATM    3  C   UNL     1      24.401  46.255  50.072  1.00  0.00    -0.035 A 
HETATM    4  C   UNL     1      24.265  45.169  50.956  1.00  0.00     0.010 A 
HETATM    5  C   UNL     1      25.061  45.068  52.099  1.00  0.00     0.014 A 
HETATM    6  C   UNL     1      25.982  46.075  52.390  1.00  0.00    -0.004 A 
HETATM    7  C   UNL     1      26.179  47.121  51.481  1.00  0.00     0.021 A 
ENDROOT
BRANCH   3   8
HETATM    8  C   UNL     1      23.462  46.345  48.892  1.00  0.00     0.163 C 
BRANCH   8   9
HETATM    9  N   UNL     1      22.283  47.117  49.200  1.00  0.00    -0.339 N 
HETATM   10  C   UNL     1      21.988  48.201  48.416  1.00  0.00     0.316 C 
HETATM   11  N   UNL     1      20.818  48.806  48.788  1.00  0.00    -0.339 N 
HETATM   12  O   UNL     1      22.706  48.594  47.506  1.00  0.00    -0.247 OA
HETATM   13  H   UNL     1      20.255  48.354  49.492  1.00  0.00     0.164 HD
HETATM   14  H   UNL     1      21.507  46.624  49.612  1.00  0.00     0.164 HD
BRANCH  11  15
HETATM   15  C   UNL     1      20.238  49.895  48.011  1.00  0.00     0.086 C 
HETATM   16  C   UNL     1      18.722  49.708  47.857  1.00  0.00     0.025 C 
HETATM   17  C   UNL     1      17.967  49.968  49.160  1.00  0.00     0.002 C 
HETATM   18  C   UNL     1      18.299  51.341  49.735  1.00  0.00     0.000 C 
HETATM   19  C   UNL     1      19.801  51.528  49.924  1.00  0.00     0.002 C 
HETATM   20  C   UNL     1      20.573  51.255  48.633  1.00  0.00     0.025 C 
ENDBRANCH  11  15
ENDBRANCH   8   9
ENDBRANCH   3   8
BRANCH   6  21
HETATM   21  C   UNL     1      26.807  46.046  53.631  1.00  0.00     0.098 A 
HETATM   22  N   UNL     1      26.532  46.943  54.530  1.00  0.00    -0.169 NA
HETATM   23  N   UNL     1      27.273  46.997  55.680  1.00  0.00    -0.238 N 
HETATM   24  C   UNL     1      26.901  48.012  56.643  1.00  0.00     0.183 C 
HETATM   25  C   UNL     1      28.380  46.198  55.939  1.00  0.00     0.274 A 
HETATM   26  O   UNL     1      29.086  46.306  56.941  1.00  0.00    -0.266 OA
HETATM   27  C   UNL     1      28.673  45.148  54.949  1.00  0.00     0.046 A 
HETATM   28  C   UNL     1      27.873  45.028  53.817  1.00  0.00     0.011 A 
HETATM   29  C   UNL     1      29.721  44.244  55.182  1.00  0.00     0.018 A 
HETATM   30  C   UNL     1      28.083  43.948  52.947  1.00  0.00     0.015 A 
HETATM   31  C   UNL     1      29.126  43.045  53.179  1.00  0.00     0.001 A 
HETATM   32  C   UNL     1      29.952  43.199  54.289  1.00  0.00     0.001 A 
ENDBRANCH   6  21
TORSDOF 4
ENDMDL
MODEL 2
REMARK VINA RESULT:     -10.2      1.084      1.677
REMARK  4 active torsions:
REMARK  status: ('A' for Active; 'I' for Inactive)
REMARK    1  A    between atoms: C_3  and  C_4 
REMARK    2  A    between atoms: C_4  and  N_5 
REMARK       I    between atoms: N_5  and  C_6 
REMARK       I    between atoms: C_6  and  N_7 
REMARK    3  A    between atoms: N_7  and  C_8 
REMARK    4  A    between atoms: C_17  and  C_18 
ROOT
HETATM    1  C   UNL     1      24.204  43.628  50.809  1.00  0.00     0.049 C 
HETATM    2  C   UNL     1      24.918  44.837  51.349  1.00  0.00    -0.053 A 
HETATM    3  C   UNL     1      24.740  46.122  50.795  1.00  0.00    -0.035 A 
HETATM    4  C   UNL     1      25.385  47.222  51.391  1.00  0.00     0.010 A 
HETATM    5  C   UNL     1      26.253  47.047  52.471  1.00  0.00     0.014 A 
HETATM    6  C   UNL     1      26.514  45.761  52.946  1.00  0.00    -0.004 A 
HETATM    7  C   UNL     1      25.822  44.669  52.411  1.00  0.00     0.021 A 
ENDROOT
BRANCH   3   8
HETATM    8  C   UNL     1      23.870  46.367  49.584  1.00  0.00     0.163 C 
BRANCH   8   9
HETATM    9  N   UNL     1      23.059  47.550  49.735  1.00  0.00    -0.339 N 
HETATM   10  C   UNL     1      22.048  47.768  48.835  1.00  0.00     0.316 C 
HETATM   11  N   UNL     1      21.329  48.895  49.129  1.00  0.00    -0.339 N 
HETATM   12  O   UNL     1      21.836  47.050  47.868  1.00  0.00    -0.247 OA
HETATM   13  H   UNL     1      21.525  49.369  49.997  1.00  0.00     0.164 HD
HETATM   14  H   UNL     1      22.922  47.896  50.671  1.00  0.00     0.164 HD
BRANCH  11  15
HETATM   15  C   UNL     1      20.124  49.249  48.388  1.00  0.00     0.086 C 
HETATM   16  C   UNL     1      18.893  49.228  49.305  1.00  0.00     0.025 C 
HETATM   17  C   UNL     1      18.876  50.400  50.285  1.00  0.00     0.002 C 
HETATM   18  C   UNL     1      19.003  51.737  49.562  1.00  0.00     0.000 C 
HETATM   19  C   UNL     1      20.241  51.784  48.672  1.00  0.00     0.002 C 
HETATM   20  C   UNL     1      20.282  50.608  47.696  1.00  0.00     0.025 C 
ENDBRANCH  11  15
ENDBRANCH   8   9
ENDBRANCH   3   8
BRANCH   6  21
HETATM   21  C   UNL     1      27.481  45.518  54.053  1.00  0.00     0.098 A 
HETATM   22  N   UNL     1      27.342  46.254  55.116  1.00  0.00    -0.169 NA
HETATM   23  N   UNL     1      28.218  46.108  56.158  1.00  0.00    -0.238 N 
HETATM   24  C   UNL     1      27.994  46.951  57.314  1.00  0.00     0.183 C 
HETATM   25  C   UNL     1      29.324  45.268  56.143  1.00  0.00     0.274 A 
HETATM   26  O   UNL     1      30.148  45.202  57.054  1.00  0.00    -0.266 OA
HETATM   27  C   UNL     1      29.466  44.397  54.964  1.00  0.00     0.046 A 
HETATM   28  C   UNL     1      28.532  44.474  53.936  1.00  0.00     0.011 A 
HETATM   29  C   UNL     1      30.508  43.458  54.914  1.00  0.00     0.018 A 
HETATM   30  C   UNL     1      28.605  43.553  52.881  1.00  0.00     0.015 A 
HETATM   31  C   UNL     1      29.642  42.616  52.829  1.00  0.00     0.001 A 
HETATM   32  C   UNL     1      30.600  42.575  53.839  1.00  0.00     0.001 A 
ENDBRANCH   6  21
TORSDOF 4
ENDMDL
MODEL 3
REMARK VINA RESULT:     -10.1      2.763      3.878
REMARK  4 active torsions:
REMARK  status: ('A' for Active; 'I' for Inactive)
REMARK    1  A    between atoms: C_3  and  C_4 
REMARK    2  A    between atoms: C_4  and  N_5 
REMARK       I    between atoms: N_5  and  C_6 
REMARK       I    between atoms: C_6  and  N_7 
REMARK    3  A    between atoms: N_7  and  C_8 
REMARK    4  A    between atoms: C_17  and  C_18 
ROOT
HETATM    1  C   UNL     1      27.472  49.470  48.868  1.00  0.00     0.049 C 
HETATM    2  C   UNL     1      26.416  48.465  49.239  1.00  0.00    -0.053 A 
HETATM    3  C   UNL     1      25.039  48.753  49.135  1.00  0.00    -0.035 A 
HETATM    4  C   UNL     1      24.103  47.744  49.433  1.00  0.00     0.010 A 
HETATM    5  C   UNL     1      24.516  46.494  49.898  1.00  0.00     0.014 A 
HETATM    6  C   UNL     1      25.875  46.249  50.105  1.00  0.00    -0.004 A 
HETATM    7  C   UNL     1      26.819  47.217  49.743  1.00  0.00     0.021 A 
ENDROOT
BRANCH   3   8
HETATM    8  C   UNL     1      24.526  50.107  48.706  1.00  0.00     0.163 C 
BRANCH   8   9
HETATM    9  N   UNL     1      23.112  50.082  48.421  1.00  0.00    -0.339 N 
HETATM   10  C   UNL     1      22.258  50.701  49.295  1.00  0.00     0.316 C 
HETATM   11  N   UNL     1      20.957  50.646  48.875  1.00  0.00    -0.339 N 
HETATM   12  O   UNL     1      22.620  51.219  50.344  1.00  0.00    -0.247 OA
HETATM   13  H   UNL     1      20.772  50.276  47.955  1.00  0.00     0.164 HD
HETATM   14  H   UNL     1      22.840  50.061  47.451  1.00  0.00     0.164 HD
BRANCH  11  15
HETATM   15  C   UNL     1      19.894  51.354  49.578  1.00  0.00     0.086 C 
HETATM   16  C   UNL     1      19.175  52.331  48.636  1.00  0.00     0.025 C 
HETATM   17  C   UNL     1      18.294  51.613  47.614  1.00  0.00     0.002 C 
HETATM   18  C   UNL     1      17.306  50.669  48.290  1.00  0.00     0.000 C 
HETATM   19  C   UNL     1      18.011  49.671  49.204  1.00  0.00     0.002 C 
HETATM   20  C   UNL     1      18.909  50.372  50.222  1.00  0.00     0.025 C 
ENDBRANCH  11  15
ENDBRANCH   8   9
ENDBRANCH   3   8
BRANCH   6  21
HETATM   21  C   UNL     1      26.360  44.955  50.661  1.00  0.00     0.098 A 
HETATM   22  N   UNL     1      26.585  44.004  49.803  1.00  0.00    -0.169 NA
HETATM   23  N   UNL     1      26.999  42.778  50.246  1.00  0.00    -0.238 N 
HETATM   24  C   UNL     1      27.244  41.772  49.233  1.00  0.00     0.183 C 
HETATM   25  C   UNL     1      27.129  42.428  51.585  1.00  0.00     0.274 A 
HETATM   26  O   UNL     1      27.427  41.301  51.975  1.00  0.00    -0.266 OA
HETATM   27  C   UNL     1      26.921  43.509  52.563  1.00  0.00     0.046 A 
HETATM   28  C   UNL     1      26.584  44.784  52.119  1.00  0.00     0.011 A 
HETATM   29  C   UNL     1      27.121  43.258  53.930  1.00  0.00     0.018 A 
HETATM   30  C   UNL     1      26.514  45.831  53.049  1.00  0.00     0.015 A 
HETATM   31  C   UNL     1      26.713  45.584  54.411  1.00  0.00     0.001 A 
HETATM   32  C   UNL     1      27.004  44.296  54.854  1.00  0.00     0.001 A 
ENDBRANCH   6  21
TORSDOF 4
ENDMDL
MODEL 4
REMARK VINA RESULT:      -9.8      1.473      2.925
REMARK  4 active torsions:
REMARK  status: ('A' for Active; 'I' for Inactive)
REMARK    1  A    between atoms: C_3  and  C_4 
REMARK    2  A    between atoms: C_4  and  N_5 
REMARK       I    between atoms: N_5  and  C_6 
REMARK       I    between atoms: C_6  and  N_7 
REMARK    3  A    between atoms: N_7  and  C_8 
REMARK    4  A    between atoms: C_17  and  C_18 
ROOT
HETATM    1  C   UNL     1      22.757  43.248  50.235  1.00  0.00     0.049 C 
HETATM    2  C   UNL     1      23.740  44.377  50.377  1.00  0.00    -0.053 A 
HETATM    3  C   UNL     1      23.673  45.533  49.571  1.00  0.00    -0.035 A 
HETATM    4  C   UNL     1      24.582  46.583  49.802  1.00  0.00     0.010 A 
HETATM    5  C   UNL     1      25.589  46.465  50.762  1.00  0.00     0.014 A 
HETATM    6  C   UNL     1      25.721  45.276  51.481  1.00  0.00    -0.004 A 
HETATM    7  C   UNL     1      24.780  44.254  51.314  1.00  0.00     0.021 A 
ENDROOT
BRANCH   3   8
HETATM    8  C   UNL     1      22.653  45.694  48.469  1.00  0.00     0.163 C 
BRANCH   8   9
HETATM    9  N   UNL     1      21.627  46.646  48.819  1.00  0.00    -0.339 N 
HETATM   10  C   UNL     1      21.619  47.860  48.185  1.00  0.00     0.316 C 
HETATM   11  N   UNL     1      20.564  48.640  48.574  1.00  0.00    -0.339 N 
HETATM   12  O   UNL     1      22.475  48.212  47.384  1.00  0.00    -0.247 OA
HETATM   13  H   UNL     1      19.865  48.227  49.172  1.00  0.00     0.164 HD
HETATM   14  H   UNL     1      20.737  46.274  49.110  1.00  0.00     0.164 HD
BRANCH  11  15
HETATM   15  C   UNL     1      20.278  49.917  47.932  1.00  0.00     0.086 C 
HETATM   16  C   UNL     1      18.769  50.091  47.711  1.00  0.00     0.025 C 
HETATM   17  C   UNL     1      18.015  50.350  49.015  1.00  0.00     0.002 C 
HETATM   18  C   UNL     1      18.602  51.534  49.776  1.00  0.00     0.000 C 
HETATM   19  C   UNL     1      20.095  51.359  50.031  1.00  0.00     0.002 C 
HETATM   20  C   UNL     1      20.862  51.082  48.739  1.00  0.00     0.025 C 
ENDBRANCH  11  15
ENDBRANCH   8   9
ENDBRANCH   3   8
BRANCH   6  21
HETATM   21  C   UNL     1      26.819  45.078  52.470  1.00  0.00     0.098 A 
HETATM   22  N   UNL     1      27.644  44.103  52.229  1.00  0.00    -0.169 NA
HETATM   23  N   UNL     1      28.656  43.841  53.113  1.00  0.00    -0.238 N 
HETATM   24  C   UNL     1      29.546  42.750  52.774  1.00  0.00     0.183 C 
HETATM   25  C   UNL     1      28.834  44.501  54.323  1.00  0.00     0.274 A 
HETATM   26  O   UNL     1      29.699  44.207  55.145  1.00  0.00    -0.266 OA
HETATM   27  C   UNL     1      27.933  45.637  54.584  1.00  0.00     0.046 A 
HETATM   28  C   UNL     1      26.955  45.967  53.651  1.00  0.00     0.011 A 
HETATM   29  C   UNL     1      28.105  46.409  55.743  1.00  0.00     0.018 A 
HETATM   30  C   UNL     1      26.189  47.125  53.851  1.00  0.00     0.015 A 
HETATM   31  C   UNL     1      26.359  47.897  55.005  1.00  0.00     0.001 A 
HETATM   32  C   UNL     1      27.309  47.533  55.957  1.00  0.00     0.001 A 
ENDBRANCH   6  21
TORSDOF 4
ENDMDL
MODEL 5
REMARK VINA RESULT:      -9.4      2.838      9.736
REMARK  4 active torsions:
REMARK  status: ('A' for Active; 'I' for Inactive)
REMARK    1  A    between atoms: C_3  and  C_4 
REMARK    2  A    between atoms: C_4  and  N_5 
REMARK       I    between atoms: N_5  and  C_6 
REMARK       I    between atoms: C_6  and  N_7 
REMARK    3  A    between atoms: N_7  and  C_8 
REMARK    4  A    between atoms: C_17  and  C_18 
ROOT
HETATM    1  C   UNL     1      25.190  44.570  53.885  1.00  0.00     0.049 C 
HETATM    2  C   UNL     1      25.688  44.675  52.470  1.00  0.00    -0.053 A 
HETATM    3  C   UNL     1      26.558  43.717  51.909  1.00  0.00    -0.035 A 
HETATM    4  C   UNL     1      26.932  43.838  50.557  1.00  0.00     0.010 A 
HETATM    5  C   UNL     1      26.515  44.928  49.790  1.00  0.00     0.014 A 
HETATM    6  C   UNL     1      25.745  45.932  50.379  1.00  0.00    -0.004 A 
HETATM    7  C   UNL     1      25.305  45.787  51.700  1.00  0.00     0.021 A 
ENDROOT
BRANCH   3   8
HETATM    8  C   UNL     1      27.102  42.554  52.704  1.00  0.00     0.163 C 
BRANCH   8   9
HETATM    9  N   UNL     1      27.674  42.979  53.958  1.00  0.00    -0.339 N 
HETATM   10  C   UNL     1      28.941  43.501  53.955  1.00  0.00     0.316 C 
HETATM   11  N   UNL     1      29.335  43.911  55.200  1.00  0.00    -0.339 N 
HETATM   12  O   UNL     1      29.644  43.565  52.955  1.00  0.00    -0.247 OA
HETATM   13  H   UNL     1      28.651  43.898  55.940  1.00  0.00     0.164 HD
HETATM   14  H   UNL     1      27.038  43.325  54.659  1.00  0.00     0.164 HD
BRANCH  11  15
HETATM   15  C   UNL     1      30.591  44.621  55.410  1.00  0.00     0.086 C 
HETATM   16  C   UNL     1      30.359  45.918  56.198  1.00  0.00     0.025 C 
HETATM   17  C   UNL     1      30.030  45.656  57.667  1.00  0.00     0.002 C 
HETATM   18  C   UNL     1      31.091  44.786  58.334  1.00  0.00     0.000 C 
HETATM   19  C   UNL     1      31.307  43.479  57.578  1.00  0.00     0.002 C 
HETATM   20  C   UNL     1      31.622  43.722  56.103  1.00  0.00     0.025 C 
ENDBRANCH  11  15
ENDBRANCH   8   9
ENDBRANCH   3   8
BRANCH   6  21
HETATM   21  C   UNL     1      25.330  47.146  49.621  1.00  0.00     0.098 A 
HETATM   22  N   UNL     1      26.238  48.061  49.451  1.00  0.00    -0.169 NA
HETATM   23  N   UNL     1      25.917  49.217  48.794  1.00  0.00    -0.238 N 
HETATM   24  C   UNL     1      26.981  50.185  48.629  1.00  0.00     0.183 C 
HETATM   25  C   UNL     1      24.641  49.540  48.347  1.00  0.00     0.274 A 
HETATM   26  O   UNL     1      24.347  50.614  47.826  1.00  0.00    -0.266 OA
HETATM   27  C   UNL     1      23.616  48.492  48.492  1.00  0.00     0.046 A 
HETATM   28  C   UNL     1      23.952  47.278  49.081  1.00  0.00     0.011 A 
HETATM   29  C   UNL     1      22.325  48.708  47.985  1.00  0.00     0.018 A 
HETATM   30  C   UNL     1      23.003  46.245  49.099  1.00  0.00     0.015 A 
HETATM   31  C   UNL     1      21.716  46.457  48.593  1.00  0.00     0.001 A 
HETATM   32  C   UNL     1      21.373  47.691  48.047  1.00  0.00     0.001 A 
ENDBRANCH   6  21
TORSDOF 4
ENDMDL
MODEL 6
REMARK VINA RESULT:      -9.1      3.753      9.781
REMARK  4 active torsions:
REMARK  status: ('A' for Active; 'I' for Inactive)
REMARK    1  A    between atoms: C_3  and  C_4 
REMARK    2  A    between atoms: C_4  and  N_5 
REMARK       I    between atoms: N_5  and  C_6 
REMARK       I    between atoms: C_6  and  N_7 
REMARK    3  A    between atoms: N_7  and  C_8 
REMARK    4  A    between atoms: C_17  and  C_18 
ROOT
HETATM    1  C   UNL     1      26.841  45.224  54.400  1.00  0.00     0.049 C 
HETATM    2  C   UNL     1      26.859  45.083  52.902  1.00  0.00    -0.053 A 
HETATM    3  C   UNL     1      27.671  44.133  52.248  1.00  0.00    -0.035 A 
HETATM    4  C   UNL     1      27.588  44.007  50.849  1.00  0.00     0.010 A 
HETATM    5  C   UNL     1      26.774  44.856  50.097  1.00  0.00     0.014 A 
HETATM    6  C   UNL     1      26.056  45.868  50.736  1.00  0.00    -0.004 A 
HETATM    7  C   UNL     1      26.071  45.956  52.132  1.00  0.00     0.021 A 
ENDROOT
BRANCH   3   8
HETATM    8  C   UNL     1      28.625  43.233  52.997  1.00  0.00     0.163 C 
BRANCH   8   9
HETATM    9  N   UNL     1      29.175  42.205  52.147  1.00  0.00    -0.339 N 
HETATM   10  C   UNL     1      28.544  40.990  52.099  1.00  0.00     0.316 C 
HETATM   11  N   UNL     1      29.141  40.132  51.215  1.00  0.00    -0.339 N 
HETATM   12  O   UNL     1      27.576  40.702  52.789  1.00  0.00    -0.247 OA
HETATM   13  H   UNL     1      29.878  40.493  50.629  1.00  0.00     0.164 HD
HETATM   14  H   UNL     1      29.653  42.507  51.313  1.00  0.00     0.164 HD
BRANCH  11  15
HETATM   15  C   UNL     1      28.561  38.832  50.899  1.00  0.00     0.086 C 
HETATM   16  C   UNL     1      27.498  38.962  49.799  1.00  0.00     0.025 C 
HETATM   17  C   UNL     1      28.110  39.246  48.428  1.00  0.00     0.002 C 
HETATM   18  C   UNL     1      29.164  38.206  48.058  1.00  0.00     0.000 C 
HETATM   19  C   UNL     1      30.245  38.091  49.129  1.00  0.00     0.002 C 
HETATM   20  C   UNL     1      29.648  37.824  50.510  1.00  0.00     0.025 C 
ENDBRANCH  11  15
ENDBRANCH   8   9
ENDBRANCH   3   8
BRANCH   6  21
HETATM   21  C   UNL     1      25.224  46.839  49.971  1.00  0.00     0.098 A 
HETATM   22  N   UNL     1      23.966  46.543  49.835  1.00  0.00    -0.169 NA
HETATM   23  N   UNL     1      23.150  47.373  49.114  1.00  0.00    -0.238 N 
HETATM   24  C   UNL     1      21.757  46.987  49.017  1.00  0.00     0.183 C 
HETATM   25  C   UNL     1      23.584  48.500  48.429  1.00  0.00     0.274 A 
HETATM   26  O   UNL     1      22.858  49.196  47.721  1.00  0.00    -0.266 OA
HETATM   27  C   UNL     1      24.997  48.872  48.613  1.00  0.00     0.046 A 
HETATM   28  C   UNL     1      25.816  48.083  49.415  1.00  0.00     0.011 A 
HETATM   29  C   UNL     1      25.490  50.047  48.026  1.00  0.00     0.018 A 
HETATM   30  C   UNL     1      27.123  48.516  49.684  1.00  0.00     0.015 A 
HETATM   31  C   UNL     1      27.616  49.687  49.101  1.00  0.00     0.001 A 
HETATM   32  C   UNL     1      26.804  50.446  48.262  1.00  0.00     0.001 A 
ENDBRANCH   6  21
TORSDOF 4
ENDMDL
MODEL 7
REMARK VINA RESULT:      -8.8      5.903      8.596
REMARK  4 active torsions:
REMARK  status: ('A' for Active; 'I' for Inactive)
REMARK    1  A    between atoms: C_3  and  C_4 
REMARK    2  A    between atoms: C_4  and  N_5 
REMARK       I    between atoms: N_5  and  C_6 
REMARK       I    between atoms: C_6  and  N_7 
REMARK    3  A    between atoms: N_7  and  C_8 
REMARK    4  A    between atoms: C_17  and  C_18 
ROOT
HETATM    1  C   UNL     1      25.558  41.996  49.262  1.00  0.00     0.049 C 
HETATM    2  C   UNL     1      26.616  41.895  50.327  1.00  0.00    -0.053 A 
HETATM    3  C   UNL     1      27.441  40.759  50.458  1.00  0.00    -0.035 A 
HETATM    4  C   UNL     1      28.457  40.758  51.432  1.00  0.00     0.010 A 
HETATM    5  C   UNL     1      28.610  41.830  52.313  1.00  0.00     0.014 A 
HETATM    6  C   UNL     1      27.722  42.905  52.253  1.00  0.00    -0.004 A 
HETATM    7  C   UNL     1      26.755  42.952  51.242  1.00  0.00     0.021 A 
ENDROOT
BRANCH   3   8
HETATM    8  C   UNL     1      27.281  39.537  49.584  1.00  0.00     0.163 C 
BRANCH   8   9
HETATM    9  N   UNL     1      27.988  39.674  48.334  1.00  0.00    -0.339 N 
HETATM   10  C   UNL     1      27.308  39.433  47.169  1.00  0.00     0.316 C 
HETATM   11  N   UNL     1      28.084  39.652  46.063  1.00  0.00    -0.339 N 
HETATM   12  O   UNL     1      26.150  39.040  47.129  1.00  0.00    -0.247 OA
HETATM   13  H   UNL     1      28.997  40.058  46.197  1.00  0.00     0.164 HD
HETATM   14  H   UNL     1      28.730  40.354  48.299  1.00  0.00     0.164 HD
BRANCH  11  15
HETATM   15  C   UNL     1      27.531  39.588  44.715  1.00  0.00     0.086 C 
HETATM   16  C   UNL     1      27.862  40.865  43.929  1.00  0.00     0.025 C 
HETATM   17  C   UNL     1      29.336  40.943  43.537  1.00  0.00     0.002 C 
HETATM   18  C   UNL     1      29.781  39.697  42.778  1.00  0.00     0.000 C 
HETATM   19  C   UNL     1      29.488  38.421  43.562  1.00  0.00     0.002 C 
HETATM   20  C   UNL     1      28.019  38.336  43.977  1.00  0.00     0.025 C 
ENDBRANCH  11  15
ENDBRANCH   8   9
ENDBRANCH   3   8
BRANCH   6  21
HETATM   21  C   UNL     1      27.804  44.042  53.213  1.00  0.00     0.098 A 
HETATM   22  N   UNL     1      26.901  44.969  53.090  1.00  0.00    -0.169 NA
HETATM   23  N   UNL     1      26.936  46.060  53.916  1.00  0.00    -0.238 N 
HETATM   24  C   UNL     1      25.891  47.045  53.733  1.00  0.00     0.183 C 
HETATM   25  C   UNL     1      27.934  46.306  54.852  1.00  0.00     0.274 A 
HETATM   26  O   UNL     1      27.999  47.326  55.535  1.00  0.00    -0.266 OA
HETATM   27  C   UNL     1      28.936  45.241  55.031  1.00  0.00     0.046 A 
HETATM   28  C   UNL     1      28.860  44.088  54.257  1.00  0.00     0.011 A 
HETATM   29  C   UNL     1      29.924  45.375  56.019  1.00  0.00     0.018 A 
HETATM   30  C   UNL     1      29.742  43.031  54.524  1.00  0.00     0.015 A 
HETATM   31  C   UNL     1      30.727  43.161  55.508  1.00  0.00     0.001 A 
HETATM   32  C   UNL     1      30.826  44.338  56.248  1.00  0.00     0.001 A 
ENDBRANCH   6  21
TORSDOF 4
ENDMDL
MODEL 8
REMARK VINA RESULT:      -8.4      5.938      8.484
REMARK  4 active torsions:
REMARK  status: ('A' for Active; 'I' for Inactive)
REMARK    1  A    between atoms: C_3  and  C_4 
REMARK    2  A    between atoms: C_4  and  N_5 
REMARK       I    between atoms: N_5  and  C_6 
REMARK       I    between atoms: C_6  and  N_7 
REMARK    3  A    between atoms: N_7  and  C_8 
REMARK    4  A    between atoms: C_17  and  C_18 
ROOT
HETATM    1  C   UNL     1      25.731  42.761  50.571  1.00  0.00     0.049 C 
HETATM    2  C   UNL     1      26.912  42.343  51.403  1.00  0.00    -0.053 A 
HETATM    3  C   UNL     1      27.542  41.092  51.235  1.00  0.00    -0.035 A 
HETATM    4  C   UNL     1      28.685  40.791  51.999  1.00  0.00     0.010 A 
HETATM    5  C   UNL     1      29.156  41.678  52.968  1.00  0.00     0.014 A 
HETATM    6  C   UNL     1      28.466  42.867  53.210  1.00  0.00    -0.004 A 
HETATM    7  C   UNL     1      27.373  43.212  52.407  1.00  0.00     0.021 A 
ENDROOT
BRANCH   3   8
HETATM    8  C   UNL     1      27.039  40.059  50.254  1.00  0.00     0.163 C 
BRANCH   8   9
HETATM    9  N   UNL     1      27.661  40.198  48.960  1.00  0.00    -0.339 N 
HETATM   10  C   UNL     1      26.934  39.869  47.846  1.00  0.00     0.316 C 
HETATM   11  N   UNL     1      27.627  40.100  46.689  1.00  0.00    -0.339 N 
HETATM   12  O   UNL     1      25.806  39.398  47.889  1.00  0.00    -0.247 OA
HETATM   13  H   UNL     1      28.515  40.572  46.755  1.00  0.00     0.164 HD
HETATM   14  H   UNL     1      28.351  40.925  48.858  1.00  0.00     0.164 HD
BRANCH  11  15
HETATM   15  C   UNL     1      27.003  39.950  45.380  1.00  0.00     0.086 C 
HETATM   16  C   UNL     1      27.495  41.038  44.414  1.00  0.00     0.025 C 
HETATM   17  C   UNL     1      28.941  40.814  43.972  1.00  0.00     0.002 C 
HETATM   18  C   UNL     1      29.138  39.421  43.383  1.00  0.00     0.000 C 
HETATM   19  C   UNL     1      28.683  38.329  44.347  1.00  0.00     0.002 C 
HETATM   20  C   UNL     1      27.243  38.547  44.811  1.00  0.00     0.025 C 
ENDBRANCH  11  15
ENDBRANCH   8   9
ENDBRANCH   3   8
BRANCH   6  21
HETATM   21  C   UNL     1      28.892  43.816  54.277  1.00  0.00     0.098 A 
HETATM   22  N   UNL     1      29.926  43.467  54.983  1.00  0.00    -0.169 NA
HETATM   23  N   UNL     1      30.352  44.274  56.003  1.00  0.00    -0.238 N 
HETATM   24  C   UNL     1      31.519  43.829  56.737  1.00  0.00     0.183 C 
HETATM   25  C   UNL     1      29.704  45.433  56.411  1.00  0.00     0.274 A 
HETATM   26  O   UNL     1      30.050  46.110  57.378  1.00  0.00    -0.266 OA
HETATM   27  C   UNL     1      28.558  45.863  55.591  1.00  0.00     0.046 A 
HETATM   28  C   UNL     1      28.169  45.095  54.498  1.00  0.00     0.011 A 
HETATM   29  C   UNL     1      27.906  47.070  55.885  1.00  0.00     0.018 A 
HETATM   30  C   UNL     1      27.161  45.580  53.652  1.00  0.00     0.015 A 
HETATM   31  C   UNL     1      26.510  46.782  53.942  1.00  0.00     0.001 A 
HETATM   32  C   UNL     1      26.873  47.522  55.065  1.00  0.00     0.001 A 
ENDBRANCH   6  21
TORSDOF 4
ENDMDL
MODEL 9
REMARK VINA RESULT:      -8.4      3.103     11.198
REMARK  4 active torsions:
REMARK  status: ('A' for Active; 'I' for Inactive)
REMARK    1  A    between atoms: C_3  and  C_4 
REMARK    2  A    between atoms: C_4  and  N_5 
REMARK       I    between atoms: N_5  and  C_6 
REMARK       I    between atoms: C_6  and  N_7 
REMARK    3  A    between atoms: N_7  and  C_8 
REMARK    4  A    between atoms: C_17  and  C_18 
ROOT
HETATM    1  C   UNL     1      23.317  50.866  48.120  1.00  0.00     0.049 C 
HETATM    2  C   UNL     1      22.003  50.140  48.217  1.00  0.00    -0.053 A 
HETATM    3  C   UNL     1      21.931  48.748  48.432  1.00  0.00    -0.035 A 
HETATM    4  C   UNL     1      20.669  48.142  48.582  1.00  0.00     0.010 A 
HETATM    5  C   UNL     1      19.494  48.883  48.447  1.00  0.00     0.014 A 
HETATM    6  C   UNL     1      19.567  50.239  48.125  1.00  0.00    -0.004 A 
HETATM    7  C   UNL     1      20.814  50.870  48.047  1.00  0.00     0.021 A 
ENDROOT
BRANCH   3   8
HETATM    8  C   UNL     1      23.163  47.878  48.517  1.00  0.00     0.163 C 
BRANCH   8   9
HETATM    9  N   UNL     1      23.550  47.625  49.884  1.00  0.00    -0.339 N 
HETATM   10  C   UNL     1      24.779  47.068  50.122  1.00  0.00     0.316 C 
HETATM   11  N   UNL     1      25.035  46.934  51.460  1.00  0.00    -0.339 N 
HETATM   12  O   UNL     1      25.542  46.708  49.236  1.00  0.00    -0.247 OA
HETATM   13  H   UNL     1      24.382  47.341  52.110  1.00  0.00     0.164 HD
HETATM   14  H   UNL     1      23.185  48.247  50.586  1.00  0.00     0.164 HD
BRANCH  11  15
HETATM   15  C   UNL     1      26.335  46.491  51.949  1.00  0.00     0.086 C 
HETATM   16  C   UNL     1      26.608  47.049  53.353  1.00  0.00     0.025 C 
HETATM   17  C   UNL     1      25.751  46.376  54.425  1.00  0.00     0.002 C 
HETATM   18  C   UNL     1      25.904  44.859  54.394  1.00  0.00     0.000 C 
HETATM   19  C   UNL     1      25.603  44.288  53.012  1.00  0.00     0.002 C 
HETATM   20  C   UNL     1      26.441  44.962  51.926  1.00  0.00     0.025 C 
ENDBRANCH  11  15
ENDBRANCH   8   9
ENDBRANCH   3   8
BRANCH   6  21
HETATM   21  C   UNL     1      18.341  51.058  47.907  1.00  0.00     0.098 A 
HETATM   22  N   UNL     1      17.806  51.593  48.965  1.00  0.00    -0.169 NA
HETATM   23  N   UNL     1      16.659  52.329  48.843  1.00  0.00    -0.238 N 
HETATM   24  C   UNL     1      16.128  52.906  50.060  1.00  0.00     0.183 C 
HETATM   25  C   UNL     1      15.952  52.493  47.658  1.00  0.00     0.274 A 
HETATM   26  O   UNL     1      14.881  53.092  47.574  1.00  0.00    -0.266 OA
HETATM   27  C   UNL     1      16.573  51.932  46.446  1.00  0.00     0.046 A 
HETATM   28  C   UNL     1      17.784  51.255  46.544  1.00  0.00     0.011 A 
HETATM   29  C   UNL     1      15.965  52.132  45.197  1.00  0.00     0.018 A 
HETATM   30  C   UNL     1      18.426  50.836  45.369  1.00  0.00     0.015 A 
HETATM   31  C   UNL     1      17.823  51.036  44.123  1.00  0.00     0.001 A 
HETATM   32  C   UNL     1      16.588  51.673  44.037  1.00  0.00     0.001 A 
ENDBRANCH   6  21
TORSDOF 4
ENDMDL
MODEL 10
REMARK VINA RESULT:      -8.4      3.945     12.438
REMARK  4 active torsions:
REMARK  status: ('A' for Active; 'I' for Inactive)
REMARK    1  A    between atoms: C_3  and  C_4 
REMARK    2  A    between atoms: C_4  and  N_5 
REMARK       I    between atoms: N_5  and  C_6 
REMARK       I    between atoms: C_6  and  N_7 
REMARK    3  A    between atoms: N_7  and  C_8 
REMARK    4  A    between atoms: C_17  and  C_18 
ROOT
HETATM    1  C   UNL     1      18.865  49.403  50.992  1.00  0.00     0.049 C 
HETATM    2  C   UNL     1      18.907  50.496  49.959  1.00  0.00    -0.053 A 
HETATM    3  C   UNL     1      20.122  51.057  49.512  1.00  0.00    -0.035 A 
HETATM    4  C   UNL     1      20.094  52.028  48.493  1.00  0.00     0.010 A 
HETATM    5  C   UNL     1      18.884  52.494  47.976  1.00  0.00     0.014 A 
HETATM    6  C   UNL     1      17.680  52.017  48.498  1.00  0.00    -0.004 A 
HETATM    7  C   UNL     1      17.694  50.998  49.458  1.00  0.00     0.021 A 
ENDROOT
BRANCH   3   8
HETATM    8  C   UNL     1      21.460  50.648  50.081  1.00  0.00     0.163 C 
BRANCH   8   9
HETATM    9  N   UNL     1      21.713  49.239  49.901  1.00  0.00    -0.339 N 
HETATM   10  C   UNL     1      22.984  48.840  49.579  1.00  0.00     0.316 C 
HETATM   11  N   UNL     1      23.091  47.478  49.493  1.00  0.00    -0.339 N 
HETATM   12  O   UNL     1      23.905  49.617  49.367  1.00  0.00    -0.247 OA
HETATM   13  H   UNL     1      22.298  46.922  49.772  1.00  0.00     0.164 HD
HETATM   14  H   UNL     1      21.156  48.600  50.445  1.00  0.00     0.164 HD
BRANCH  11  15
HETATM   15  C   UNL     1      24.379  46.823  49.295  1.00  0.00     0.086 C 
HETATM   16  C   UNL     1      25.344  47.160  50.440  1.00  0.00     0.025 C 
HETATM   17  C   UNL     1      24.964  46.463  51.746  1.00  0.00     0.002 C 
HETATM   18  C   UNL     1      24.833  44.955  51.559  1.00  0.00     0.000 C 
HETATM   19  C   UNL     1      23.851  44.606  50.445  1.00  0.00     0.002 C 
HETATM   20  C   UNL     1      24.207  45.308  49.135  1.00  0.00     0.025 C 
ENDBRANCH  11  15
ENDBRANCH   8   9
ENDBRANCH   3   8
BRANCH   6  21
HETATM   21  C   UNL     1      16.364  52.530  48.025  1.00  0.00     0.098 A 
HETATM   22  N   UNL     1      16.083  52.333  46.771  1.00  0.00    -0.169 NA
HETATM   23  N   UNL     1      14.906  52.809  46.259  1.00  0.00    -0.238 N 
HETATM   24  C   UNL     1      14.653  52.540  44.859  1.00  0.00     0.183 C 
HETATM   25  C   UNL     1      13.993  53.576  46.972  1.00  0.00     0.274 A 
HETATM   26  O   UNL     1      12.975  54.063  46.482  1.00  0.00    -0.266 OA
HETATM   27  C   UNL     1      14.278  53.766  48.404  1.00  0.00     0.046 A 
HETATM   28  C   UNL     1      15.429  53.213  48.955  1.00  0.00     0.011 A 
HETATM   29  C   UNL     1      13.358  54.454  49.211  1.00  0.00     0.018 A 
HETATM   30  C   UNL     1      15.624  53.292  50.342  1.00  0.00     0.015 A 
HETATM   31  C   UNL     1      14.709  53.977  51.148  1.00  0.00     0.001 A 
HETATM   32  C   UNL     1      13.583  54.568  50.582  1.00  0.00     0.001 A 
ENDBRANCH   6  21
TORSDOF 4
ENDMDL
