MODEL 1
REMARK VINA RESULT:      -9.8      0.000      0.000
REMARK  8 active torsions:
REMARK  status: ('A' for Active; 'I' for Inactive)
REMARK    1  A    between atoms: C_4  and  N_5 
REMARK       I    between atoms: N_5  and  C_6 
REMARK    2  A    between atoms: C_6  and  C_7 
REMARK    3  A    between atoms: C_7  and  N_8 
REMARK    4  A    between atoms: N_8  and  C_10 
REMARK    5  A    between atoms: N_8  and  C_13 
REMARK    6  A    between atoms: C_13  and  C_14 
REMARK    7  A    between atoms: C_16  and  C_17 
REMARK    8  A    between atoms: C_27  and  O_28 
ROOT
HETATM    1  N   UNL     1      26.346  45.009  52.291  1.00  0.00    -0.055 N 
HETATM    2  H   UNL     1      27.267  45.468  52.221  1.00  0.00     0.281 HD
ENDROOT
BRANCH   1   3
HETATM    3  C   UNL     1      25.839  45.012  50.831  1.00  0.00     0.338 C 
BRANCH   3   4
HETATM    4  C   UNL     1      24.319  45.171  50.747  1.00  0.00     0.248 C 
HETATM    5  N   UNL     1      23.791  46.158  49.971  1.00  0.00    -0.323 N 
HETATM    6  H   UNL     1      22.832  45.999  49.663  1.00  0.00     0.169 HD
HETATM    7  O   UNL     1      23.587  44.336  51.287  1.00  0.00    -0.271 OA
BRANCH   5   8
HETATM    8  C   UNL     1      24.371  47.346  49.484  1.00  0.00     0.069 A 
HETATM    9  C   UNL     1      25.750  47.583  49.528  1.00  0.00     0.039 A 
HETATM   10  C   UNL     1      26.274  48.804  49.087  1.00  0.00    -0.060 A 
HETATM   11  C   UNL     1      27.741  49.101  49.216  1.00  0.00     0.048 C 
HETATM   12  C   UNL     1      25.402  49.791  48.618  1.00  0.00     0.009 A 
HETATM   13  C   UNL     1      24.021  49.569  48.588  1.00  0.00     0.039 A 
HETATM   14  C   UNL     1      23.497  48.354  49.028  1.00  0.00     0.095 A 
BRANCH  14  15
HETATM   15  O   UNL     1      22.162  48.028  49.043  1.00  0.00    -0.354 OA
HETATM   16  C   UNL     1      21.386  48.438  47.921  1.00  0.00     0.210 C 
ENDBRANCH  14  15
ENDBRANCH   5   8
ENDBRANCH   3   4
ENDBRANCH   1   3
BRANCH   1  17
HETATM   17  C   UNL     1      25.548  45.933  53.177  1.00  0.00     0.189 A 
HETATM   18  C   UNL     1      26.258  46.602  54.320  1.00  0.00     0.035 A 
HETATM   19  C   UNL     1      25.755  47.421  53.169  1.00  0.00     0.035 A 
ENDBRANCH   1  17
BRANCH   1  20
HETATM   20  C   UNL     1      26.594  43.628  52.834  1.00  0.00     0.274 C 
BRANCH  20  21
HETATM   21  C   UNL     1      28.012  43.374  53.270  1.00  0.00    -0.032 A 
HETATM   22  C   UNL     1      28.504  43.931  54.465  1.00  0.00     0.021 A 
HETATM   23  C   UNL     1      29.825  43.705  54.893  1.00  0.00    -0.024 A 
HETATM   24  C   UNL     1      30.650  42.909  54.085  1.00  0.00     0.012 A 
HETATM   25  C   UNL     1      30.176  42.350  52.897  1.00  0.00     0.001 A 
HETATM   26  C   UNL     1      28.864  42.579  52.491  1.00  0.00     0.009 A 
BRANCH  23  27
HETATM   27  C   UNL     1      30.320  44.279  56.153  1.00  0.00    -0.008 A 
HETATM   28  C   UNL     1      31.315  43.654  56.909  1.00  0.00     0.128 A 
HETATM   29  N   UNL     1      31.798  44.113  58.087  1.00  0.00    -0.272 NA
HETATM   30  C   UNL     1      31.286  45.275  58.540  1.00  0.00     0.116 A 
HETATM   31  C   UNL     1      30.309  45.991  57.872  1.00  0.00     0.020 A 
HETATM   32  C   UNL     1      29.821  45.483  56.668  1.00  0.00     0.015 A 
ENDBRANCH  23  27
ENDBRANCH  20  21
ENDBRANCH   1  20
TORSDOF 8
ENDMDL
MODEL 2
REMARK VINA RESULT:      -9.8      1.830      2.877
REMARK  8 active torsions:
REMARK  status: ('A' for Active; 'I' for Inactive)
REMARK    1  A    between atoms: C_4  and  N_5 
REMARK       I    between atoms: N_5  and  C_6 
REMARK    2  A    between atoms: C_6  and  C_7 
REMARK    3  A    between atoms: C_7  and  N_8 
REMARK    4  A    between atoms: N_8  and  C_10 
REMARK    5  A    between atoms: N_8  and  C_13 
REMARK    6  A    between atoms: C_13  and  C_14 
REMARK    7  A    between atoms: C_16  and  C_17 
REMARK    8  A    between atoms: C_27  and  O_28 
ROOT
HETATM    1  N   UNL     1      25.770  43.356  49.737  1.00  0.00    -0.055 N 
HETATM    2  H   UNL     1      25.360  42.906  50.570  1.00  0.00     0.281 HD
ENDROOT
BRANCH   1   3
HETATM    3  C   UNL     1      24.833  44.560  49.490  1.00  0.00     0.338 C 
BRANCH   3   4
HETATM    4  C   UNL     1      24.406  45.238  50.794  1.00  0.00     0.248 C 
HETATM    5  N   UNL     1      24.258  46.592  50.826  1.00  0.00    -0.323 N 
HETATM    6  H   UNL     1      23.645  46.941  51.562  1.00  0.00     0.169 HD
HETATM    7  O   UNL     1      24.090  44.547  51.767  1.00  0.00    -0.271 OA
BRANCH   5   8
HETATM    8  C   UNL     1      24.778  47.589  49.977  1.00  0.00     0.069 A 
HETATM    9  C   UNL     1      26.141  47.906  49.937  1.00  0.00     0.039 A 
HETATM   10  C   UNL     1      26.603  48.945  49.120  1.00  0.00    -0.060 A 
HETATM   11  C   UNL     1      28.049  49.352  49.140  1.00  0.00     0.048 C 
HETATM   12  C   UNL     1      25.684  49.675  48.359  1.00  0.00     0.009 A 
HETATM   13  C   UNL     1      24.319  49.376  48.408  1.00  0.00     0.039 A 
HETATM   14  C   UNL     1      23.857  48.342  49.222  1.00  0.00     0.095 A 
BRANCH  14  15
HETATM   15  O   UNL     1      22.542  47.962  49.347  1.00  0.00    -0.354 OA
HETATM   16  C   UNL     1      21.619  48.522  48.417  1.00  0.00     0.210 C 
ENDBRANCH  14  15
ENDBRANCH   5   8
ENDBRANCH   3   4
ENDBRANCH   1   3
BRANCH   1  17
HETATM   17  C   UNL     1      25.649  42.305  48.663  1.00  0.00     0.189 A 
HETATM   18  C   UNL     1      25.106  40.958  49.052  1.00  0.00     0.035 A 
HETATM   19  C   UNL     1      24.316  41.849  48.140  1.00  0.00     0.035 A 
ENDBRANCH   1  17
BRANCH   1  20
HETATM   20  C   UNL     1      27.170  43.757  50.111  1.00  0.00     0.274 C 
BRANCH  20  21
HETATM   21  C   UNL     1      27.712  43.068  51.335  1.00  0.00    -0.032 A 
HETATM   22  C   UNL     1      28.269  43.815  52.389  1.00  0.00     0.021 A 
HETATM   23  C   UNL     1      28.778  43.193  53.543  1.00  0.00    -0.024 A 
HETATM   24  C   UNL     1      28.724  41.793  53.613  1.00  0.00     0.012 A 
HETATM   25  C   UNL     1      28.175  41.038  52.575  1.00  0.00     0.001 A 
HETATM   26  C   UNL     1      27.670  41.671  51.442  1.00  0.00     0.009 A 
BRANCH  23  27
HETATM   27  C   UNL     1      29.342  43.988  54.646  1.00  0.00    -0.008 A 
HETATM   28  C   UNL     1      28.785  45.208  55.036  1.00  0.00     0.128 A 
HETATM   29  N   UNL     1      29.266  46.000  56.022  1.00  0.00    -0.272 NA
HETATM   30  C   UNL     1      30.352  45.552  56.684  1.00  0.00     0.116 A 
HETATM   31  C   UNL     1      30.981  44.354  56.396  1.00  0.00     0.020 A 
HETATM   32  C   UNL     1      30.469  43.568  55.364  1.00  0.00     0.015 A 
ENDBRANCH  23  27
ENDBRANCH  20  21
ENDBRANCH   1  20
TORSDOF 8
ENDMDL
MODEL 3
REMARK VINA RESULT:      -9.6      1.926      3.183
REMARK  8 active torsions:
REMARK  status: ('A' for Active; 'I' for Inactive)
REMARK    1  A    between atoms: C_4  and  N_5 
REMARK       I    between atoms: N_5  and  C_6 
REMARK    2  A    between atoms: C_6  and  C_7 
REMARK    3  A    between atoms: C_7  and  N_8 
REMARK    4  A    between atoms: N_8  and  C_10 
REMARK    5  A    between atoms: N_8  and  C_13 
REMARK    6  A    between atoms: C_13  and  C_14 
REMARK    7  A    between atoms: C_16  and  C_17 
REMARK    8  A    between atoms: C_27  and  O_28 
ROOT
HETATM    1  N   UNL     1      26.198  45.793  52.990  1.00  0.00    -0.055 N 
HETATM    2  H   UNL     1      27.077  46.182  52.616  1.00  0.00     0.281 HD
ENDROOT
BRANCH   1   3
HETATM    3  C   UNL     1      25.144  46.243  51.953  1.00  0.00     0.338 C 
BRANCH   3   4
HETATM    4  C   UNL     1      25.786  46.824  50.691  1.00  0.00     0.248 C 
HETATM    5  N   UNL     1      25.735  46.115  49.528  1.00  0.00    -0.323 N 
HETATM    6  H   UNL     1      25.835  46.671  48.680  1.00  0.00     0.169 HD
HETATM    7  O   UNL     1      26.239  47.972  50.709  1.00  0.00    -0.271 OA
BRANCH   5   8
HETATM    8  C   UNL     1      25.521  44.741  49.304  1.00  0.00     0.069 A 
HETATM    9  C   UNL     1      26.527  43.784  49.481  1.00  0.00     0.039 A 
HETATM   10  C   UNL     1      26.284  42.436  49.189  1.00  0.00    -0.060 A 
HETATM   11  C   UNL     1      27.385  41.419  49.289  1.00  0.00     0.048 C 
HETATM   12  C   UNL     1      25.029  42.060  48.701  1.00  0.00     0.009 A 
HETATM   13  C   UNL     1      24.024  43.012  48.504  1.00  0.00     0.039 A 
HETATM   14  C   UNL     1      24.265  44.355  48.794  1.00  0.00     0.095 A 
BRANCH  14  15
HETATM   15  O   UNL     1      23.354  45.373  48.639  1.00  0.00    -0.354 OA
HETATM   16  C   UNL     1      22.435  45.256  47.557  1.00  0.00     0.210 C 
ENDBRANCH  14  15
ENDBRANCH   5   8
ENDBRANCH   3   4
ENDBRANCH   1   3
BRANCH   1  17
HETATM   17  C   UNL     1      26.031  46.491  54.317  1.00  0.00     0.189 A 
HETATM   18  C   UNL     1      27.164  47.346  54.812  1.00  0.00     0.035 A 
HETATM   19  C   UNL     1      25.863  47.980  54.419  1.00  0.00     0.035 A 
ENDBRANCH   1  17
BRANCH   1  20
HETATM   20  C   UNL     1      26.378  44.301  53.049  1.00  0.00     0.274 C 
BRANCH  20  21
HETATM   21  C   UNL     1      27.781  43.854  53.363  1.00  0.00    -0.032 A 
HETATM   22  C   UNL     1      28.412  44.259  54.553  1.00  0.00     0.021 A 
HETATM   23  C   UNL     1      29.721  43.851  54.867  1.00  0.00    -0.024 A 
HETATM   24  C   UNL     1      30.391  43.027  53.950  1.00  0.00     0.012 A 
HETATM   25  C   UNL     1      29.778  42.618  52.765  1.00  0.00     0.001 A 
HETATM   26  C   UNL     1      28.478  43.026  52.472  1.00  0.00     0.009 A 
BRANCH  23  27
HETATM   27  C   UNL     1      30.363  44.268  56.124  1.00  0.00    -0.008 A 
HETATM   28  C   UNL     1      31.349  43.496  56.741  1.00  0.00     0.128 A 
HETATM   29  N   UNL     1      31.961  43.808  57.907  1.00  0.00    -0.272 NA
HETATM   30  C   UNL     1      31.596  44.966  58.493  1.00  0.00     0.116 A 
HETATM   31  C   UNL     1      30.642  45.819  57.968  1.00  0.00     0.020 A 
HETATM   32  C   UNL     1      30.019  45.462  56.773  1.00  0.00     0.015 A 
ENDBRANCH  23  27
ENDBRANCH  20  21
ENDBRANCH   1  20
TORSDOF 8
ENDMDL
MODEL 4
REMARK VINA RESULT:      -9.5      2.356      4.129
REMARK  8 active torsions:
REMARK  status: ('A' for Active; 'I' for Inactive)
REMARK    1  A    between atoms: C_4  and  N_5 
REMARK       I    between atoms: N_5  and  C_6 
REMARK    2  A    between atoms: C_6  and  C_7 
REMARK    3  A    between atoms: C_7  and  N_8 
REMARK    4  A    between atoms: N_8  and  C_10 
REMARK    5  A    between atoms: N_8  and  C_13 
REMARK    6  A    between atoms: C_13  and  C_14 
REMARK    7  A    between atoms: C_16  and  C_17 
REMARK    8  A    between atoms: C_27  and  O_28 
ROOT
HETATM    1  N   UNL     1      26.045  42.480  49.439  1.00  0.00    -0.055 N 
HETATM    2  H   UNL     1      25.618  41.927  50.198  1.00  0.00     0.281 HD
ENDROOT
BRANCH   1   3
HETATM    3  C   UNL     1      24.868  43.340  48.926  1.00  0.00     0.338 C 
BRANCH   3   4
HETATM    4  C   UNL     1      23.713  43.397  49.929  1.00  0.00     0.248 C 
HETATM    5  N   UNL     1      23.561  44.502  50.711  1.00  0.00    -0.323 N 
HETATM    6  H   UNL     1      22.619  44.649  51.072  1.00  0.00     0.169 HD
HETATM    7  O   UNL     1      22.867  42.498  49.938  1.00  0.00    -0.271 OA
BRANCH   5   8
HETATM    8  C   UNL     1      24.485  45.503  51.068  1.00  0.00     0.069 A 
HETATM    9  C   UNL     1      24.917  46.483  50.167  1.00  0.00     0.039 A 
HETATM   10  C   UNL     1      25.882  47.423  50.549  1.00  0.00    -0.060 A 
HETATM   11  C   UNL     1      26.418  48.420  49.561  1.00  0.00     0.048 C 
HETATM   12  C   UNL     1      26.422  47.360  51.838  1.00  0.00     0.009 A 
HETATM   13  C   UNL     1      26.010  46.373  52.737  1.00  0.00     0.039 A 
HETATM   14  C   UNL     1      25.049  45.435  52.358  1.00  0.00     0.095 A 
BRANCH  14  15
HETATM   15  O   UNL     1      24.571  44.426  53.158  1.00  0.00    -0.354 OA
HETATM   16  C   UNL     1      25.232  44.222  54.403  1.00  0.00     0.210 C 
ENDBRANCH  14  15
ENDBRANCH   5   8
ENDBRANCH   3   4
ENDBRANCH   1   3
BRANCH   1  17
HETATM   17  C   UNL     1      26.478  41.443  48.435  1.00  0.00     0.189 A 
HETATM   18  C   UNL     1      26.145  40.004  48.718  1.00  0.00     0.035 A 
HETATM   19  C   UNL     1      25.492  40.712  47.568  1.00  0.00     0.035 A 
ENDBRANCH   1  17
BRANCH   1  20
HETATM   20  C   UNL     1      27.147  43.290  50.065  1.00  0.00     0.274 C 
BRANCH  20  21
HETATM   21  C   UNL     1      27.693  42.717  51.346  1.00  0.00    -0.032 A 
HETATM   22  C   UNL     1      28.250  43.559  52.326  1.00  0.00     0.021 A 
HETATM   23  C   UNL     1      28.764  43.046  53.531  1.00  0.00    -0.024 A 
HETATM   24  C   UNL     1      28.714  41.658  53.729  1.00  0.00     0.012 A 
HETATM   25  C   UNL     1      28.165  40.810  52.765  1.00  0.00     0.001 A 
HETATM   26  C   UNL     1      27.655  41.336  51.580  1.00  0.00     0.009 A 
BRANCH  23  27
HETATM   27  C   UNL     1      29.328  43.940  54.555  1.00  0.00    -0.008 A 
HETATM   28  C   UNL     1      28.775  45.194  54.825  1.00  0.00     0.128 A 
HETATM   29  N   UNL     1      29.257  46.074  55.734  1.00  0.00    -0.272 NA
HETATM   30  C   UNL     1      30.339  45.686  56.438  1.00  0.00     0.116 A 
HETATM   31  C   UNL     1      30.963  44.463  56.268  1.00  0.00     0.020 A 
HETATM   32  C   UNL     1      30.451  43.585  55.313  1.00  0.00     0.015 A 
ENDBRANCH  23  27
ENDBRANCH  20  21
ENDBRANCH   1  20
TORSDOF 8
ENDMDL
MODEL 5
REMARK VINA RESULT:      -9.3      1.192      2.284
REMARK  8 active torsions:
REMARK  status: ('A' for Active; 'I' for Inactive)
REMARK    1  A    between atoms: C_4  and  N_5 
REMARK       I    between atoms: N_5  and  C_6 
REMARK    2  A    between atoms: C_6  and  C_7 
REMARK    3  A    between atoms: C_7  and  N_8 
REMARK    4  A    between atoms: N_8  and  C_10 
REMARK    5  A    between atoms: N_8  and  C_13 
REMARK    6  A    between atoms: C_13  and  C_14 
REMARK    7  A    between atoms: C_16  and  C_17 
REMARK    8  A    between atoms: C_27  and  O_28 
ROOT
HETATM    1  N   UNL     1      25.876  44.840  52.658  1.00  0.00    -0.055 N 
HETATM    2  H   UNL     1      26.677  45.143  52.083  1.00  0.00     0.281 HD
ENDROOT
BRANCH   1   3
HETATM    3  C   UNL     1      24.737  44.694  51.623  1.00  0.00     0.338 C 
BRANCH   3   4
HETATM    4  C   UNL     1      25.269  44.433  50.211  1.00  0.00     0.248 C 
HETATM    5  N   UNL     1      25.255  45.439  49.294  1.00  0.00    -0.323 N 
HETATM    6  H   UNL     1      25.924  45.338  48.532  1.00  0.00     0.169 HD
HETATM    7  O   UNL     1      25.809  43.353  49.952  1.00  0.00    -0.271 OA
BRANCH   5   8
HETATM    8  C   UNL     1      24.495  46.626  49.250  1.00  0.00     0.069 A 
HETATM    9  C   UNL     1      23.128  46.632  48.953  1.00  0.00     0.039 A 
HETATM   10  C   UNL     1      22.427  47.842  48.863  1.00  0.00    -0.060 A 
HETATM   11  C   UNL     1      20.981  47.863  48.456  1.00  0.00     0.048 C 
HETATM   12  C   UNL     1      23.115  49.044  49.056  1.00  0.00     0.009 A 
HETATM   13  C   UNL     1      24.485  49.046  49.334  1.00  0.00     0.039 A 
HETATM   14  C   UNL     1      25.184  47.843  49.424  1.00  0.00     0.095 A 
BRANCH  14  15
HETATM   15  O   UNL     1      26.527  47.727  49.692  1.00  0.00    -0.354 OA
HETATM   16  C   UNL     1      27.395  48.659  49.052  1.00  0.00     0.210 C 
ENDBRANCH  14  15
ENDBRANCH   5   8
ENDBRANCH   3   4
ENDBRANCH   1   3
BRANCH   1  17
HETATM   17  C   UNL     1      25.649  45.997  53.598  1.00  0.00     0.189 A 
HETATM   18  C   UNL     1      26.767  46.986  53.782  1.00  0.00     0.035 A 
HETATM   19  C   UNL     1      25.496  47.408  53.106  1.00  0.00     0.035 A 
ENDBRANCH   1  17
BRANCH   1  20
HETATM   20  C   UNL     1      26.271  43.538  53.298  1.00  0.00     0.274 C 
BRANCH  20  21
HETATM   21  C   UNL     1      27.751  43.379  53.527  1.00  0.00    -0.032 A 
HETATM   22  C   UNL     1      28.351  43.879  54.697  1.00  0.00     0.021 A 
HETATM   23  C   UNL     1      29.731  43.740  54.933  1.00  0.00    -0.024 A 
HETATM   24  C   UNL     1      30.503  43.090  53.958  1.00  0.00     0.012 A 
HETATM   25  C   UNL     1      29.921  42.590  52.791  1.00  0.00     0.001 A 
HETATM   26  C   UNL     1      28.552  42.731  52.577  1.00  0.00     0.009 A 
BRANCH  23  27
HETATM   27  C   UNL     1      30.343  44.252  56.169  1.00  0.00    -0.008 A 
HETATM   28  C   UNL     1      31.361  43.561  56.830  1.00  0.00     0.128 A 
HETATM   29  N   UNL     1      31.949  43.962  57.981  1.00  0.00    -0.272 NA
HETATM   30  C   UNL     1      31.524  45.129  58.505  1.00  0.00     0.116 A 
HETATM   31  C   UNL     1      30.534  45.907  57.932  1.00  0.00     0.020 A 
HETATM   32  C   UNL     1      29.938  45.459  56.754  1.00  0.00     0.015 A 
ENDBRANCH  23  27
ENDBRANCH  20  21
ENDBRANCH   1  20
TORSDOF 8
ENDMDL
MODEL 6
REMARK VINA RESULT:      -9.3      1.673      2.704
REMARK  8 active torsions:
REMARK  status: ('A' for Active; 'I' for Inactive)
REMARK    1  A    between atoms: C_4  and  N_5 
REMARK       I    between atoms: N_5  and  C_6 
REMARK    2  A    between atoms: C_6  and  C_7 
REMARK    3  A    between atoms: C_7  and  N_8 
REMARK    4  A    between atoms: N_8  and  C_10 
REMARK    5  A    between atoms: N_8  and  C_13 
REMARK    6  A    between atoms: C_13  and  C_14 
REMARK    7  A    between atoms: C_16  and  C_17 
REMARK    8  A    between atoms: C_27  and  O_28 
ROOT
HETATM    1  N   UNL     1      26.244  46.051  52.710  1.00  0.00    -0.055 N 
HETATM    2  H   UNL     1      27.124  46.417  52.315  1.00  0.00     0.281 HD
ENDROOT
BRANCH   1   3
HETATM    3  C   UNL     1      25.162  46.695  51.813  1.00  0.00     0.338 C 
BRANCH   3   4
HETATM    4  C   UNL     1      25.769  47.474  50.643  1.00  0.00     0.248 C 
HETATM    5  N   UNL     1      24.952  47.962  49.669  1.00  0.00    -0.323 N 
HETATM    6  H   UNL     1      25.330  48.749  49.143  1.00  0.00     0.169 HD
HETATM    7  O   UNL     1      26.972  47.751  50.653  1.00  0.00    -0.271 OA
BRANCH   5   8
HETATM    8  C   UNL     1      23.646  47.586  49.298  1.00  0.00     0.069 A 
HETATM    9  C   UNL     1      23.330  46.292  48.867  1.00  0.00     0.039 A 
HETATM   10  C   UNL     1      22.029  45.981  48.452  1.00  0.00    -0.060 A 
HETATM   11  C   UNL     1      21.703  44.621  47.901  1.00  0.00     0.048 C 
HETATM   12  C   UNL     1      21.053  46.983  48.457  1.00  0.00     0.009 A 
HETATM   13  C   UNL     1      21.366  48.282  48.869  1.00  0.00     0.039 A 
HETATM   14  C   UNL     1      22.661  48.594  49.282  1.00  0.00     0.095 A 
BRANCH  14  15
HETATM   15  O   UNL     1      23.078  49.833  49.706  1.00  0.00    -0.354 OA
HETATM   16  C   UNL     1      22.981  50.901  48.769  1.00  0.00     0.210 C 
ENDBRANCH  14  15
ENDBRANCH   5   8
ENDBRANCH   3   4
ENDBRANCH   1   3
BRANCH   1  17
HETATM   17  C   UNL     1      26.224  46.599  54.115  1.00  0.00     0.189 A 
HETATM   18  C   UNL     1      27.345  47.510  54.533  1.00  0.00     0.035 A 
HETATM   19  C   UNL     1      25.951  48.049  54.401  1.00  0.00     0.035 A 
ENDBRANCH   1  17
BRANCH   1  20
HETATM   20  C   UNL     1      26.307  44.554  52.589  1.00  0.00     0.274 C 
BRANCH  20  21
HETATM   21  C   UNL     1      27.648  43.956  52.921  1.00  0.00    -0.032 A 
HETATM   22  C   UNL     1      28.300  44.285  54.123  1.00  0.00     0.021 A 
HETATM   23  C   UNL     1      29.552  43.736  54.456  1.00  0.00    -0.024 A 
HETATM   24  C   UNL     1      30.144  42.850  53.543  1.00  0.00     0.012 A 
HETATM   25  C   UNL     1      29.510  42.515  52.346  1.00  0.00     0.001 A 
HETATM   26  C   UNL     1      28.267  43.063  52.036  1.00  0.00     0.009 A 
BRANCH  23  27
HETATM   27  C   UNL     1      30.214  44.076  55.725  1.00  0.00    -0.008 A 
HETATM   28  C   UNL     1      29.931  45.258  56.413  1.00  0.00     0.128 A 
HETATM   29  N   UNL     1      30.520  45.642  57.569  1.00  0.00    -0.272 NA
HETATM   30  C   UNL     1      31.430  44.798  58.096  1.00  0.00     0.116 A 
HETATM   31  C   UNL     1      31.781  43.594  57.513  1.00  0.00     0.020 A 
HETATM   32  C   UNL     1      31.167  43.234  56.314  1.00  0.00     0.015 A 
ENDBRANCH  23  27
ENDBRANCH  20  21
ENDBRANCH   1  20
TORSDOF 8
ENDMDL
MODEL 7
REMARK VINA RESULT:      -9.3      2.612      4.749
REMARK  8 active torsions:
REMARK  status: ('A' for Active; 'I' for Inactive)
REMARK    1  A    between atoms: C_4  and  N_5 
REMARK       I    between atoms: N_5  and  C_6 
REMARK    2  A    between atoms: C_6  and  C_7 
REMARK    3  A    between atoms: C_7  and  N_8 
REMARK    4  A    between atoms: N_8  and  C_10 
REMARK    5  A    between atoms: N_8  and  C_13 
REMARK    6  A    between atoms: C_13  and  C_14 
REMARK    7  A    between atoms: C_16  and  C_17 
REMARK    8  A    between atoms: C_27  and  O_28 
ROOT
HETATM    1  N   UNL     1      26.312  45.437  51.302  1.00  0.00    -0.055 N 
HETATM    2  H   UNL     1      27.282  45.498  50.956  1.00  0.00     0.281 HD
ENDROOT
BRANCH   1   3
HETATM    3  C   UNL     1      25.622  44.531  50.257  1.00  0.00     0.338 C 
BRANCH   3   4
HETATM    4  C   UNL     1      24.444  43.756  50.852  1.00  0.00     0.248 C 
HETATM    5  N   UNL     1      24.498  42.396  50.909  1.00  0.00    -0.323 N 
HETATM    6  H   UNL     1      23.897  41.969  51.613  1.00  0.00     0.169 HD
HETATM    7  O   UNL     1      23.511  44.371  51.377  1.00  0.00    -0.271 OA
BRANCH   5   8
HETATM    8  C   UNL     1      25.287  41.481  50.183  1.00  0.00     0.069 A 
HETATM    9  C   UNL     1      26.469  40.936  50.696  1.00  0.00     0.039 A 
HETATM   10  C   UNL     1      27.252  40.076  49.915  1.00  0.00    -0.060 A 
HETATM   11  C   UNL     1      28.567  39.559  50.424  1.00  0.00     0.048 C 
HETATM   12  C   UNL     1      26.846  39.783  48.609  1.00  0.00     0.009 A 
HETATM   13  C   UNL     1      25.676  40.340  48.083  1.00  0.00     0.039 A 
HETATM   14  C   UNL     1      24.896  41.196  48.859  1.00  0.00     0.095 A 
BRANCH  14  15
HETATM   15  O   UNL     1      23.731  41.797  48.446  1.00  0.00    -0.354 OA
HETATM   16  C   UNL     1      22.722  40.946  47.911  1.00  0.00     0.210 C 
ENDBRANCH  14  15
ENDBRANCH   5   8
ENDBRANCH   3   4
ENDBRANCH   1   3
BRANCH   1  17
HETATM   17  C   UNL     1      25.817  46.860  51.241  1.00  0.00     0.189 A 
HETATM   18  C   UNL     1      26.503  47.806  50.294  1.00  0.00     0.035 A 
HETATM   19  C   UNL     1      25.080  47.398  50.048  1.00  0.00     0.035 A 
ENDBRANCH   1  17
BRANCH   1  20
HETATM   20  C   UNL     1      26.381  44.822  52.673  1.00  0.00     0.274 C 
BRANCH  20  21
HETATM   21  C   UNL     1      27.711  44.203  53.013  1.00  0.00    -0.032 A 
HETATM   22  C   UNL     1      28.348  44.502  54.231  1.00  0.00     0.021 A 
HETATM   23  C   UNL     1      29.590  43.934  54.571  1.00  0.00    -0.024 A 
HETATM   24  C   UNL     1      30.186  43.059  53.650  1.00  0.00     0.012 A 
HETATM   25  C   UNL     1      29.566  42.754  52.437  1.00  0.00     0.001 A 
HETATM   26  C   UNL     1      28.334  43.321  52.120  1.00  0.00     0.009 A 
BRANCH  23  27
HETATM   27  C   UNL     1      30.236  44.242  55.856  1.00  0.00    -0.008 A 
HETATM   28  C   UNL     1      29.942  45.405  56.571  1.00  0.00     0.128 A 
HETATM   29  N   UNL     1      30.517  45.760  57.743  1.00  0.00    -0.272 NA
HETATM   30  C   UNL     1      31.423  44.906  58.258  1.00  0.00     0.116 A 
HETATM   31  C   UNL     1      31.785  43.718  57.648  1.00  0.00     0.020 A 
HETATM   32  C   UNL     1      31.185  43.387  56.433  1.00  0.00     0.015 A 
ENDBRANCH  23  27
ENDBRANCH  20  21
ENDBRANCH   1  20
TORSDOF 8
ENDMDL
MODEL 8
REMARK VINA RESULT:      -9.3      1.643      3.678
REMARK  8 active torsions:
REMARK  status: ('A' for Active; 'I' for Inactive)
REMARK    1  A    between atoms: C_4  and  N_5 
REMARK       I    between atoms: N_5  and  C_6 
REMARK    2  A    between atoms: C_6  and  C_7 
REMARK    3  A    between atoms: C_7  and  N_8 
REMARK    4  A    between atoms: N_8  and  C_10 
REMARK    5  A    between atoms: N_8  and  C_13 
REMARK    6  A    between atoms: C_13  and  C_14 
REMARK    7  A    between atoms: C_16  and  C_17 
REMARK    8  A    between atoms: C_27  and  O_28 
ROOT
HETATM    1  N   UNL     1      25.226  45.491  51.347  1.00  0.00    -0.055 N 
HETATM    2  H   UNL     1      24.805  44.663  50.900  1.00  0.00     0.281 HD
ENDROOT
BRANCH   1   3
HETATM    3  C   UNL     1      24.469  46.669  50.692  1.00  0.00     0.338 C 
BRANCH   3   4
HETATM    4  C   UNL     1      23.695  46.235  49.444  1.00  0.00     0.248 C 
HETATM    5  N   UNL     1      23.169  47.184  48.620  1.00  0.00    -0.323 N 
HETATM    6  H   UNL     1      23.000  46.878  47.663  1.00  0.00     0.169 HD
HETATM    7  O   UNL     1      23.652  45.041  49.136  1.00  0.00    -0.271 OA
BRANCH   5   8
HETATM    8  C   UNL     1      22.863  48.538  48.863  1.00  0.00     0.069 A 
HETATM    9  C   UNL     1      21.589  48.962  49.256  1.00  0.00     0.039 A 
HETATM   10  C   UNL     1      21.316  50.325  49.428  1.00  0.00    -0.060 A 
HETATM   11  C   UNL     1      19.928  50.794  49.761  1.00  0.00     0.048 C 
HETATM   12  C   UNL     1      22.328  51.259  49.185  1.00  0.00     0.009 A 
HETATM   13  C   UNL     1      23.599  50.844  48.774  1.00  0.00     0.039 A 
HETATM   14  C   UNL     1      23.872  49.487  48.601  1.00  0.00     0.095 A 
BRANCH  14  15
HETATM   15  O   UNL     1      25.081  48.969  48.203  1.00  0.00    -0.354 OA
HETATM   16  C   UNL     1      26.224  49.802  48.366  1.00  0.00     0.210 C 
ENDBRANCH  14  15
ENDBRANCH   5   8
ENDBRANCH   3   4
ENDBRANCH   1   3
BRANCH   1  17
HETATM   17  C   UNL     1      26.672  45.433  50.924  1.00  0.00     0.189 A 
HETATM   18  C   UNL     1      27.063  44.419  49.885  1.00  0.00     0.035 A 
HETATM   19  C   UNL     1      27.124  45.883  49.563  1.00  0.00     0.035 A 
ENDBRANCH   1  17
BRANCH   1  20
HETATM   20  C   UNL     1      24.967  45.362  52.823  1.00  0.00     0.274 C 
BRANCH  20  21
HETATM   21  C   UNL     1      25.997  46.024  53.699  1.00  0.00    -0.032 A 
HETATM   22  C   UNL     1      27.075  45.285  54.219  1.00  0.00     0.021 A 
HETATM   23  C   UNL     1      28.050  45.884  55.037  1.00  0.00    -0.024 A 
HETATM   24  C   UNL     1      27.914  47.249  55.331  1.00  0.00     0.012 A 
HETATM   25  C   UNL     1      26.849  47.995  54.823  1.00  0.00     0.001 A 
HETATM   26  C   UNL     1      25.895  47.387  54.009  1.00  0.00     0.009 A 
BRANCH  23  27
HETATM   27  C   UNL     1      29.182  45.103  55.560  1.00  0.00    -0.008 A 
HETATM   28  C   UNL     1      29.873  45.484  56.712  1.00  0.00     0.128 A 
HETATM   29  N   UNL     1      30.936  44.828  57.232  1.00  0.00    -0.272 NA
HETATM   30  C   UNL     1      31.331  43.710  56.590  1.00  0.00     0.116 A 
HETATM   31  C   UNL     1      30.716  43.227  55.449  1.00  0.00     0.020 A 
HETATM   32  C   UNL     1      29.633  43.935  54.930  1.00  0.00     0.015 A 
ENDBRANCH  23  27
ENDBRANCH  20  21
ENDBRANCH   1  20
TORSDOF 8
ENDMDL
MODEL 9
REMARK VINA RESULT:      -9.3      2.010      3.382
REMARK  8 active torsions:
REMARK  status: ('A' for Active; 'I' for Inactive)
REMARK    1  A    between atoms: C_4  and  N_5 
REMARK       I    between atoms: N_5  and  C_6 
REMARK    2  A    between atoms: C_6  and  C_7 
REMARK    3  A    between atoms: C_7  and  N_8 
REMARK    4  A    between atoms: N_8  and  C_10 
REMARK    5  A    between atoms: N_8  and  C_13 
REMARK    6  A    between atoms: C_13  and  C_14 
REMARK    7  A    between atoms: C_16  and  C_17 
REMARK    8  A    between atoms: C_27  and  O_28 
ROOT
HETATM    1  N   UNL     1      25.391  43.135  49.432  1.00  0.00    -0.055 N 
HETATM    2  H   UNL     1      24.900  42.923  50.314  1.00  0.00     0.281 HD
ENDROOT
BRANCH   1   3
HETATM    3  C   UNL     1      25.098  44.638  49.219  1.00  0.00     0.338 C 
BRANCH   3   4
HETATM    4  C   UNL     1      24.303  45.242  50.380  1.00  0.00     0.248 C 
HETATM    5  N   UNL     1      24.001  46.570  50.364  1.00  0.00    -0.323 N 
HETATM    6  H   UNL     1      23.197  46.836  50.931  1.00  0.00     0.169 HD
HETATM    7  O   UNL     1      23.846  44.503  51.256  1.00  0.00    -0.271 OA
BRANCH   5   8
HETATM    8  C   UNL     1      24.593  47.633  49.653  1.00  0.00     0.069 A 
HETATM    9  C   UNL     1      25.965  47.903  49.708  1.00  0.00     0.039 A 
HETATM   10  C   UNL     1      26.499  49.007  49.031  1.00  0.00    -0.060 A 
HETATM   11  C   UNL     1      27.954  49.356  49.159  1.00  0.00     0.048 C 
HETATM   12  C   UNL     1      25.641  49.847  48.315  1.00  0.00     0.009 A 
HETATM   13  C   UNL     1      24.266  49.595  48.271  1.00  0.00     0.039 A 
HETATM   14  C   UNL     1      23.733  48.497  48.945  1.00  0.00     0.095 A 
BRANCH  14  15
HETATM   15  O   UNL     1      22.402  48.154  48.969  1.00  0.00    -0.354 OA
HETATM   16  C   UNL     1      21.576  48.705  47.948  1.00  0.00     0.210 C 
ENDBRANCH  14  15
ENDBRANCH   5   8
ENDBRANCH   3   4
ENDBRANCH   1   3
BRANCH   1  17
HETATM   17  C   UNL     1      24.696  42.266  48.414  1.00  0.00     0.189 A 
HETATM   18  C   UNL     1      23.390  41.630  48.803  1.00  0.00     0.035 A 
HETATM   19  C   UNL     1      23.421  42.690  47.742  1.00  0.00     0.035 A 
ENDBRANCH   1  17
BRANCH   1  20
HETATM   20  C   UNL     1      26.846  42.838  49.667  1.00  0.00     0.274 C 
BRANCH  20  21
HETATM   21  C   UNL     1      27.248  42.793  51.117  1.00  0.00    -0.032 A 
HETATM   22  C   UNL     1      27.230  43.960  51.901  1.00  0.00     0.021 A 
HETATM   23  C   UNL     1      27.599  43.941  53.258  1.00  0.00    -0.024 A 
HETATM   24  C   UNL     1      27.999  42.716  53.813  1.00  0.00     0.012 A 
HETATM   25  C   UNL     1      28.023  41.549  53.047  1.00  0.00     0.001 A 
HETATM   26  C   UNL     1      27.648  41.586  51.706  1.00  0.00     0.009 A 
BRANCH  23  27
HETATM   27  C   UNL     1      27.557  45.166  54.072  1.00  0.00    -0.008 A 
HETATM   28  C   UNL     1      28.404  45.354  55.167  1.00  0.00     0.128 A 
HETATM   29  N   UNL     1      28.401  46.444  55.970  1.00  0.00    -0.272 NA
HETATM   30  C   UNL     1      27.525  47.421  55.664  1.00  0.00     0.116 A 
HETATM   31  C   UNL     1      26.648  47.353  54.596  1.00  0.00     0.020 A 
HETATM   32  C   UNL     1      26.665  46.211  53.796  1.00  0.00     0.015 A 
ENDBRANCH  23  27
ENDBRANCH  20  21
ENDBRANCH   1  20
TORSDOF 8
ENDMDL
MODEL 10
REMARK VINA RESULT:      -9.1      1.443      2.281
REMARK  8 active torsions:
REMARK  status: ('A' for Active; 'I' for Inactive)
REMARK    1  A    between atoms: C_4  and  N_5 
REMARK       I    between atoms: N_5  and  C_6 
REMARK    2  A    between atoms: C_6  and  C_7 
REMARK    3  A    between atoms: C_7  and  N_8 
REMARK    4  A    between atoms: N_8  and  C_10 
REMARK    5  A    between atoms: N_8  and  C_13 
REMARK    6  A    between atoms: C_13  and  C_14 
REMARK    7  A    between atoms: C_16  and  C_17 
REMARK    8  A    between atoms: C_27  and  O_28 
ROOT
HETATM    1  N   UNL     1      26.214  45.850  52.731  1.00  0.00    -0.055 N 
HETATM    2  H   UNL     1      27.123  46.224  52.419  1.00  0.00     0.281 HD
ENDROOT
BRANCH   1   3
HETATM    3  C   UNL     1      25.234  46.355  51.648  1.00  0.00     0.338 C 
BRANCH   3   4
HETATM    4  C   UNL     1      25.893  46.445  50.269  1.00  0.00     0.248 C 
HETATM    5  N   UNL     1      25.316  47.209  49.301  1.00  0.00    -0.323 N 
HETATM    6  H   UNL     1      25.949  47.524  48.566  1.00  0.00     0.169 HD
HETATM    7  O   UNL     1      26.995  45.920  50.084  1.00  0.00    -0.271 OA
BRANCH   5   8
HETATM    8  C   UNL     1      23.993  47.677  49.172  1.00  0.00     0.069 A 
HETATM    9  C   UNL     1      23.630  48.997  49.462  1.00  0.00     0.039 A 
HETATM   10  C   UNL     1      22.292  49.401  49.376  1.00  0.00    -0.060 A 
HETATM   11  C   UNL     1      21.882  50.790  49.774  1.00  0.00     0.048 C 
HETATM   12  C   UNL     1      21.319  48.463  49.015  1.00  0.00     0.009 A 
HETATM   13  C   UNL     1      21.671  47.138  48.742  1.00  0.00     0.039 A 
HETATM   14  C   UNL     1      23.003  46.734  48.827  1.00  0.00     0.095 A 
BRANCH  14  15
HETATM   15  O   UNL     1      23.461  45.462  48.581  1.00  0.00    -0.354 OA
HETATM   16  C   UNL     1      22.693  44.387  49.114  1.00  0.00     0.210 C 
ENDBRANCH  14  15
ENDBRANCH   5   8
ENDBRANCH   3   4
ENDBRANCH   1   3
BRANCH   1  17
HETATM   17  C   UNL     1      25.987  46.517  54.065  1.00  0.00     0.189 A 
HETATM   18  C   UNL     1      27.080  47.395  54.608  1.00  0.00     0.035 A 
HETATM   19  C   UNL     1      25.772  47.998  54.189  1.00  0.00     0.035 A 
ENDBRANCH   1  17
BRANCH   1  20
HETATM   20  C   UNL     1      26.352  44.352  52.759  1.00  0.00     0.274 C 
BRANCH  20  21
HETATM   21  C   UNL     1      27.728  43.859  53.123  1.00  0.00    -0.032 A 
HETATM   22  C   UNL     1      28.339  44.266  54.322  1.00  0.00     0.021 A 
HETATM   23  C   UNL     1      29.622  43.815  54.683  1.00  0.00    -0.024 A 
HETATM   24  C   UNL     1      30.286  42.948  53.803  1.00  0.00     0.012 A 
HETATM   25  C   UNL     1      29.692  42.536  52.608  1.00  0.00     0.001 A 
HETATM   26  C   UNL     1      28.418  42.987  52.270  1.00  0.00     0.009 A 
BRANCH  23  27
HETATM   27  C   UNL     1      30.243  44.234  55.949  1.00  0.00    -0.008 A 
HETATM   28  C   UNL     1      31.236  43.474  56.572  1.00  0.00     0.128 A 
HETATM   29  N   UNL     1      31.830  43.788  57.747  1.00  0.00    -0.272 NA
HETATM   30  C   UNL     1      31.439  44.936  58.337  1.00  0.00     0.116 A 
HETATM   31  C   UNL     1      30.476  45.777  57.807  1.00  0.00     0.020 A 
HETATM   32  C   UNL     1      29.873  45.417  56.603  1.00  0.00     0.015 A 
ENDBRANCH  23  27
ENDBRANCH  20  21
ENDBRANCH   1  20
TORSDOF 8
ENDMDL
