MODEL 1
REMARK VINA RESULT:      -9.7      0.000      0.000
REMARK  6 active torsions:
REMARK  status: ('A' for Active; 'I' for Inactive)
REMARK    1  A    between atoms: N_4  and  C_5 
REMARK    2  A    between atoms: C_14  and  C_15 
REMARK       I    between atoms: C_15  and  N_16 
REMARK    3  A    between atoms: N_16  and  C_17 
REMARK    4  A    between atoms: C_17  and  C_18 
REMARK    5  A    between atoms: C_18  and  O_19 
REMARK    6  A    between atoms: C_18  and  C_20 
ROOT
HETATM    1  C   UNL     1      26.434  46.194  50.053  1.00  0.00     0.255 C 
HETATM    2  N   UNL     1      26.199  45.767  51.341  1.00  0.00    -0.354 N 
HETATM    3  O   UNL     1      27.258  45.649  49.327  1.00  0.00    -0.268 OA
HETATM    4  H   UNL     1      25.704  46.412  51.940  1.00  0.00     0.162 HD
ENDROOT
BRANCH   1   5
HETATM    5  C   UNL     1      25.682  47.369  49.619  1.00  0.00     0.082 C 
HETATM    6  C   UNL     1      26.247  48.627  49.280  1.00  0.00     0.069 C 
HETATM    7  C   UNL     1      27.679  49.026  49.288  1.00  0.00     0.073 C 
HETATM    8  N   UNL     1      25.321  49.505  48.897  1.00  0.00    -0.171 NA
HETATM    9  N   UNL     1      24.133  48.881  49.081  1.00  0.00    -0.237 N 
HETATM   10  C   UNL     1      24.320  47.526  49.357  1.00  0.00     0.050 C 
HETATM   11  C   UNL     1      23.245  46.503  49.246  1.00  0.00     0.071 C 
BRANCH   9  12
HETATM   12  C   UNL     1      22.934  49.653  48.981  1.00  0.00     0.058 A 
HETATM   13  C   UNL     1      22.308  49.773  47.727  1.00  0.00     0.033 A 
HETATM   14  C   UNL     1      21.145  50.534  47.579  1.00  0.00     0.021 A 
HETATM   15  C   UNL     1      20.612  51.197  48.680  1.00  0.00     0.011 A 
HETATM   16 BR   UNL     1      19.047  52.238  48.485  1.00  0.00    -0.051 Br
HETATM   17  C   UNL     1      21.235  51.109  49.924  1.00  0.00     0.021 A 
HETATM   18  C   UNL     1      22.396  50.341  50.075  1.00  0.00     0.033 A 
ENDBRANCH   9  12
ENDBRANCH   1   5
BRANCH   2  19
HETATM   19  C   UNL     1      27.038  44.782  52.024  1.00  0.00     0.159 C 
BRANCH  19  20
HETATM   20  C   UNL     1      26.802  44.624  53.547  1.00  0.00     0.169 C 
BRANCH  20  21
HETATM   21  O   UNL     1      26.013  43.466  53.821  1.00  0.00    -0.389 OA
HETATM   22  H   UNL     1      26.047  43.343  54.794  1.00  0.00     0.210 HD
ENDBRANCH  20  21
BRANCH  20  23
HETATM   23  C   UNL     1      28.111  44.453  54.293  1.00  0.00    -0.028 A 
HETATM   24  C   UNL     1      28.911  43.319  54.070  1.00  0.00     0.013 A 
HETATM   25  C   UNL     1      30.113  43.154  54.759  1.00  0.00     0.043 A 
HETATM   26  C   UNL     1      30.520  44.120  55.672  1.00  0.00     0.116 A 
HETATM   27  F   UNL     1      31.675  43.959  56.332  1.00  0.00    -0.206 F 
HETATM   28  C   UNL     1      29.749  45.251  55.908  1.00  0.00     0.043 A 
HETATM   29  C   UNL     1      28.548  45.418  55.219  1.00  0.00     0.013 A 
ENDBRANCH  20  23
ENDBRANCH  19  20
ENDBRANCH   2  19
TORSDOF 6
ENDMDL
MODEL 2
REMARK VINA RESULT:      -9.5      0.262      1.342
REMARK  6 active torsions:
REMARK  status: ('A' for Active; 'I' for Inactive)
REMARK    1  A    between atoms: N_4  and  C_5 
REMARK    2  A    between atoms: C_14  and  C_15 
REMARK       I    between atoms: C_15  and  N_16 
REMARK    3  A    between atoms: N_16  and  C_17 
REMARK    4  A    between atoms: C_17  and  C_18 
REMARK    5  A    between atoms: C_18  and  O_19 
REMARK    6  A    between atoms: C_18  and  C_20 
ROOT
HETATM    1  C   UNL     1      26.040  46.034  50.050  1.00  0.00     0.255 C 
HETATM    2  N   UNL     1      26.134  45.859  51.413  1.00  0.00    -0.354 N 
HETATM    3  O   UNL     1      26.535  45.240  49.257  1.00  0.00    -0.268 OA
HETATM    4  H   UNL     1      25.929  46.667  51.981  1.00  0.00     0.162 HD
ENDROOT
BRANCH   1   5
HETATM    5  C   UNL     1      25.365  47.250  49.605  1.00  0.00     0.082 C 
HETATM    6  C   UNL     1      25.998  48.493  49.341  1.00  0.00     0.069 C 
HETATM    7  C   UNL     1      27.441  48.833  49.454  1.00  0.00     0.073 C 
HETATM    8  N   UNL     1      25.134  49.417  48.926  1.00  0.00    -0.171 NA
HETATM    9  N   UNL     1      23.913  48.837  49.014  1.00  0.00    -0.237 N 
HETATM   10  C   UNL     1      24.029  47.469  49.260  1.00  0.00     0.050 C 
HETATM   11  C   UNL     1      22.926  46.493  49.048  1.00  0.00     0.071 C 
BRANCH   9  12
HETATM   12  C   UNL     1      22.754  49.659  48.859  1.00  0.00     0.058 A 
HETATM   13  C   UNL     1      22.247  50.335  49.983  1.00  0.00     0.033 A 
HETATM   14  C   UNL     1      21.104  51.134  49.881  1.00  0.00     0.021 A 
HETATM   15  C   UNL     1      20.449  51.245  48.659  1.00  0.00     0.011 A 
HETATM   16 BR   UNL     1      18.897  52.313  48.517  1.00  0.00    -0.051 Br
HETATM   17  C   UNL     1      20.924  50.561  47.541  1.00  0.00     0.021 A 
HETATM   18  C   UNL     1      22.073  49.766  47.640  1.00  0.00     0.033 A 
ENDBRANCH   9  12
ENDBRANCH   1   5
BRANCH   2  19
HETATM   19  C   UNL     1      26.991  44.848  52.034  1.00  0.00     0.159 C 
BRANCH  19  20
HETATM   20  C   UNL     1      26.759  44.591  53.543  1.00  0.00     0.169 C 
BRANCH  20  21
HETATM   21  O   UNL     1      26.012  43.391  53.745  1.00  0.00    -0.389 OA
HETATM   22  H   UNL     1      26.673  42.666  53.780  1.00  0.00     0.210 HD
ENDBRANCH  20  21
BRANCH  20  23
HETATM   23  C   UNL     1      28.073  44.422  54.282  1.00  0.00    -0.028 A 
HETATM   24  C   UNL     1      28.504  45.400  55.195  1.00  0.00     0.013 A 
HETATM   25  C   UNL     1      29.715  45.252  55.872  1.00  0.00     0.043 A 
HETATM   26  C   UNL     1      30.499  44.128  55.639  1.00  0.00     0.116 A 
HETATM   27  F   UNL     1      31.661  43.988  56.291  1.00  0.00    -0.206 F 
HETATM   28  C   UNL     1      30.094  43.146  54.744  1.00  0.00     0.043 A 
HETATM   29  C   UNL     1      28.883  43.291  54.068  1.00  0.00     0.013 A 
ENDBRANCH  20  23
ENDBRANCH  19  20
ENDBRANCH   2  19
TORSDOF 6
ENDMDL
MODEL 3
REMARK VINA RESULT:      -8.8      5.359      7.749
REMARK  6 active torsions:
REMARK  status: ('A' for Active; 'I' for Inactive)
REMARK    1  A    between atoms: N_4  and  C_5 
REMARK    2  A    between atoms: C_14  and  C_15 
REMARK       I    between atoms: C_15  and  N_16 
REMARK    3  A    between atoms: N_16  and  C_17 
REMARK    4  A    between atoms: C_17  and  C_18 
REMARK    5  A    between atoms: C_18  and  O_19 
REMARK    6  A    between atoms: C_18  and  C_20 
ROOT
HETATM    1  C   UNL     1      26.222  44.182  52.665  1.00  0.00     0.255 C 
HETATM    2  N   UNL     1      27.264  44.818  53.302  1.00  0.00    -0.354 N 
HETATM    3  O   UNL     1      25.085  44.172  53.125  1.00  0.00    -0.268 OA
HETATM    4  H   UNL     1      28.192  44.567  52.996  1.00  0.00     0.162 HD
ENDROOT
BRANCH   1   5
HETATM    5  C   UNL     1      26.561  43.470  51.435  1.00  0.00     0.082 C 
HETATM    6  C   UNL     1      26.516  44.021  50.127  1.00  0.00     0.069 C 
HETATM    7  C   UNL     1      26.126  45.396  49.720  1.00  0.00     0.073 C 
HETATM    8  N   UNL     1      26.902  43.145  49.201  1.00  0.00    -0.171 NA
HETATM    9  N   UNL     1      27.102  41.982  49.864  1.00  0.00    -0.237 N 
HETATM   10  C   UNL     1      27.068  42.183  51.244  1.00  0.00     0.050 C 
HETATM   11  C   UNL     1      27.607  41.213  52.236  1.00  0.00     0.071 C 
BRANCH   9  12
HETATM   12  C   UNL     1      27.297  40.787  49.104  1.00  0.00     0.058 A 
HETATM   13  C   UNL     1      26.175  40.016  48.750  1.00  0.00     0.033 A 
HETATM   14  C   UNL     1      26.322  38.831  48.024  1.00  0.00     0.021 A 
HETATM   15  C   UNL     1      27.595  38.399  47.664  1.00  0.00     0.011 A 
HETATM   16 BR   UNL     1      27.802  36.791  46.692  1.00  0.00    -0.051 Br
HETATM   17  C   UNL     1      28.719  39.138  48.028  1.00  0.00     0.021 A 
HETATM   18  C   UNL     1      28.572  40.330  48.749  1.00  0.00     0.033 A 
ENDBRANCH   9  12
ENDBRANCH   1   5
BRANCH   2  19
HETATM   19  C   UNL     1      27.165  45.352  54.661  1.00  0.00     0.159 C 
BRANCH  19  20
HETATM   20  C   UNL     1      28.386  46.160  55.167  1.00  0.00     0.169 C 
BRANCH  20  21
HETATM   21  O   UNL     1      27.995  47.092  56.176  1.00  0.00    -0.389 OA
HETATM   22  H   UNL     1      28.016  47.975  55.746  1.00  0.00     0.210 HD
ENDBRANCH  20  21
BRANCH  20  23
HETATM   23  C   UNL     1      29.429  45.251  55.787  1.00  0.00    -0.028 A 
HETATM   24  C   UNL     1      29.987  45.562  57.038  1.00  0.00     0.013 A 
HETATM   25  C   UNL     1      30.953  44.731  57.609  1.00  0.00     0.043 A 
HETATM   26  C   UNL     1      31.364  43.589  56.932  1.00  0.00     0.116 A 
HETATM   27  F   UNL     1      32.290  42.793  57.483  1.00  0.00    -0.206 F 
HETATM   28  C   UNL     1      30.826  43.258  55.695  1.00  0.00     0.043 A 
HETATM   29  C   UNL     1      29.859  44.086  55.124  1.00  0.00     0.013 A 
ENDBRANCH  20  23
ENDBRANCH  19  20
ENDBRANCH   2  19
TORSDOF 6
ENDMDL
MODEL 4
REMARK VINA RESULT:      -8.7      5.270     10.096
REMARK  6 active torsions:
REMARK  status: ('A' for Active; 'I' for Inactive)
REMARK    1  A    between atoms: N_4  and  C_5 
REMARK    2  A    between atoms: C_14  and  C_15 
REMARK       I    between atoms: C_15  and  N_16 
REMARK    3  A    between atoms: N_16  and  C_17 
REMARK    4  A    between atoms: C_17  and  C_18 
REMARK    5  A    between atoms: C_18  and  O_19 
REMARK    6  A    between atoms: C_18  and  C_20 
ROOT
HETATM    1  C   UNL     1      23.362  47.860  48.908  1.00  0.00     0.255 C 
HETATM    2  N   UNL     1      22.883  48.849  49.738  1.00  0.00    -0.354 N 
HETATM    3  O   UNL     1      23.131  47.852  47.704  1.00  0.00    -0.268 OA
HETATM    4  H   UNL     1      22.902  48.648  50.727  1.00  0.00     0.162 HD
ENDROOT
BRANCH   1   5
HETATM    5  C   UNL     1      24.116  46.789  49.555  1.00  0.00     0.082 C 
HETATM    6  C   UNL     1      23.710  45.431  49.638  1.00  0.00     0.069 C 
HETATM    7  C   UNL     1      22.470  44.807  49.107  1.00  0.00     0.073 C 
HETATM    8  N   UNL     1      24.610  44.677  50.266  1.00  0.00    -0.171 NA
HETATM    9  N   UNL     1      25.563  45.536  50.699  1.00  0.00    -0.237 N 
HETATM   10  C   UNL     1      25.384  46.801  50.141  1.00  0.00     0.050 C 
HETATM   11  C   UNL     1      26.439  47.851  50.113  1.00  0.00     0.071 C 
BRANCH   9  12
HETATM   12  C   UNL     1      26.550  45.055  51.615  1.00  0.00     0.058 A 
HETATM   13  C   UNL     1      27.480  44.098  51.170  1.00  0.00     0.033 A 
HETATM   14  C   UNL     1      28.449  43.586  52.036  1.00  0.00     0.021 A 
HETATM   15  C   UNL     1      28.482  44.012  53.361  1.00  0.00     0.011 A 
HETATM   16 BR   UNL     1      29.782  43.315  54.541  1.00  0.00    -0.051 Br
HETATM   17  C   UNL     1      27.552  44.940  53.825  1.00  0.00     0.021 A 
HETATM   18  C   UNL     1      26.584  45.460  52.955  1.00  0.00     0.033 A 
ENDBRANCH   9  12
ENDBRANCH   1   5
BRANCH   2  19
HETATM   19  C   UNL     1      21.901  49.847  49.311  1.00  0.00     0.159 C 
BRANCH  19  20
HETATM   20  C   UNL     1      20.461  49.328  49.075  1.00  0.00     0.169 C 
BRANCH  20  21
HETATM   21  O   UNL     1      20.092  48.381  50.078  1.00  0.00    -0.389 OA
HETATM   22  H   UNL     1      20.936  48.018  50.427  1.00  0.00     0.210 HD
ENDBRANCH  20  21
BRANCH  20  23
HETATM   23  C   UNL     1      19.451  50.457  49.142  1.00  0.00    -0.028 A 
HETATM   24  C   UNL     1      19.695  51.668  48.473  1.00  0.00     0.013 A 
HETATM   25  C   UNL     1      18.771  52.712  48.538  1.00  0.00     0.043 A 
HETATM   26  C   UNL     1      17.601  52.550  49.271  1.00  0.00     0.116 A 
HETATM   27  F   UNL     1      16.716  53.553  49.330  1.00  0.00    -0.206 F 
HETATM   28  C   UNL     1      17.335  51.362  49.939  1.00  0.00     0.043 A 
HETATM   29  C   UNL     1      18.256  50.317  49.874  1.00  0.00     0.013 A 
ENDBRANCH  20  23
ENDBRANCH  19  20
ENDBRANCH   2  19
TORSDOF 6
ENDMDL
MODEL 5
REMARK VINA RESULT:      -8.6      1.809      2.489
REMARK  6 active torsions:
REMARK  status: ('A' for Active; 'I' for Inactive)
REMARK    1  A    between atoms: N_4  and  C_5 
REMARK    2  A    between atoms: C_14  and  C_15 
REMARK       I    between atoms: C_15  and  N_16 
REMARK    3  A    between atoms: N_16  and  C_17 
REMARK    4  A    between atoms: C_17  and  C_18 
REMARK    5  A    between atoms: C_18  and  O_19 
REMARK    6  A    between atoms: C_18  and  C_20 
ROOT
HETATM    1  C   UNL     1      26.483  44.513  49.980  1.00  0.00     0.255 C 
HETATM    2  N   UNL     1      26.342  43.400  50.779  1.00  0.00    -0.354 N 
HETATM    3  O   UNL     1      27.583  44.925  49.627  1.00  0.00    -0.268 OA
HETATM    4  H   UNL     1      25.443  43.283  51.223  1.00  0.00     0.162 HD
ENDROOT
BRANCH   1   5
HETATM    5  C   UNL     1      25.249  45.208  49.624  1.00  0.00     0.082 C 
HETATM    6  C   UNL     1      24.221  44.687  48.795  1.00  0.00     0.069 C 
HETATM    7  C   UNL     1      24.165  43.364  48.120  1.00  0.00     0.073 C 
HETATM    8  N   UNL     1      23.203  45.536  48.665  1.00  0.00    -0.171 NA
HETATM    9  N   UNL     1      23.588  46.663  49.310  1.00  0.00    -0.237 N 
HETATM   10  C   UNL     1      24.751  46.442  50.048  1.00  0.00     0.050 C 
HETATM   11  C   UNL     1      25.222  47.338  51.139  1.00  0.00     0.071 C 
BRANCH   9  12
HETATM   12  C   UNL     1      22.801  47.845  49.147  1.00  0.00     0.058 A 
HETATM   13  C   UNL     1      21.435  47.714  48.838  1.00  0.00     0.033 A 
HETATM   14  C   UNL     1      20.632  48.842  48.650  1.00  0.00     0.021 A 
HETATM   15  C   UNL     1      21.195  50.111  48.750  1.00  0.00     0.011 A 
HETATM   16 BR   UNL     1      20.119  51.641  48.485  1.00  0.00    -0.051 Br
HETATM   17  C   UNL     1      22.553  50.258  49.030  1.00  0.00     0.021 A 
HETATM   18  C   UNL     1      23.356  49.128  49.226  1.00  0.00     0.033 A 
ENDBRANCH   9  12
ENDBRANCH   1   5
BRANCH   2  19
HETATM   19  C   UNL     1      27.468  42.740  51.440  1.00  0.00     0.159 C 
BRANCH  19  20
HETATM   20  C   UNL     1      27.265  42.378  52.932  1.00  0.00     0.169 C 
BRANCH  20  21
HETATM   21  O   UNL     1      27.501  40.986  53.153  1.00  0.00    -0.389 OA
HETATM   22  H   UNL     1      28.403  40.925  53.537  1.00  0.00     0.210 HD
ENDBRANCH  20  21
BRANCH  20  23
HETATM   23  C   UNL     1      28.234  43.136  53.820  1.00  0.00    -0.028 A 
HETATM   24  C   UNL     1      29.482  42.579  54.145  1.00  0.00     0.013 A 
HETATM   25  C   UNL     1      30.374  43.271  54.967  1.00  0.00     0.043 A 
HETATM   26  C   UNL     1      30.020  44.518  55.467  1.00  0.00     0.116 A 
HETATM   27  F   UNL     1      30.878  45.180  56.255  1.00  0.00    -0.206 F 
HETATM   28  C   UNL     1      28.793  45.091  55.159  1.00  0.00     0.043 A 
HETATM   29  C   UNL     1      27.902  44.403  54.336  1.00  0.00     0.013 A 
ENDBRANCH  20  23
ENDBRANCH  19  20
ENDBRANCH   2  19
TORSDOF 6
ENDMDL
MODEL 6
REMARK VINA RESULT:      -8.6      5.100      9.979
REMARK  6 active torsions:
REMARK  status: ('A' for Active; 'I' for Inactive)
REMARK    1  A    between atoms: N_4  and  C_5 
REMARK    2  A    between atoms: C_14  and  C_15 
REMARK       I    between atoms: C_15  and  N_16 
REMARK    3  A    between atoms: N_16  and  C_17 
REMARK    4  A    between atoms: C_17  and  C_18 
REMARK    5  A    between atoms: C_18  and  O_19 
REMARK    6  A    between atoms: C_18  and  C_20 
ROOT
HETATM    1  C   UNL     1      24.688  45.084  50.658  1.00  0.00     0.255 C 
HETATM    2  N   UNL     1      24.763  46.111  49.743  1.00  0.00    -0.354 N 
HETATM    3  O   UNL     1      23.615  44.612  51.019  1.00  0.00    -0.268 OA
HETATM    4  H   UNL     1      25.645  46.600  49.696  1.00  0.00     0.162 HD
ENDROOT
BRANCH   1   5
HETATM    5  C   UNL     1      25.958  44.627  51.215  1.00  0.00     0.082 C 
HETATM    6  C   UNL     1      26.801  43.640  50.640  1.00  0.00     0.069 C 
HETATM    7  C   UNL     1      26.594  42.871  49.385  1.00  0.00     0.073 C 
HETATM    8  N   UNL     1      27.906  43.445  51.358  1.00  0.00    -0.171 NA
HETATM    9  N   UNL     1      27.759  44.212  52.464  1.00  0.00    -0.237 N 
HETATM   10  C   UNL     1      26.669  45.072  52.332  1.00  0.00     0.050 C 
HETATM   11  C   UNL     1      26.456  46.275  53.182  1.00  0.00     0.071 C 
BRANCH   9  12
HETATM   12  C   UNL     1      28.680  44.036  53.543  1.00  0.00     0.058 A 
HETATM   13  C   UNL     1      28.600  44.899  54.651  1.00  0.00     0.033 A 
HETATM   14  C   UNL     1      29.493  44.776  55.719  1.00  0.00     0.021 A 
HETATM   15  C   UNL     1      30.484  43.801  55.678  1.00  0.00     0.011 A 
HETATM   16 BR   UNL     1      31.702  43.637  57.113  1.00  0.00    -0.051 Br
HETATM   17  C   UNL     1      30.593  42.954  54.576  1.00  0.00     0.021 A 
HETATM   18  C   UNL     1      29.695  43.072  53.508  1.00  0.00     0.033 A 
ENDBRANCH   9  12
ENDBRANCH   1   5
BRANCH   2  19
HETATM   19  C   UNL     1      23.594  46.862  49.284  1.00  0.00     0.159 C 
BRANCH  19  20
HETATM   20  C   UNL     1      23.533  48.352  49.702  1.00  0.00     0.169 C 
BRANCH  20  21
HETATM   21  O   UNL     1      24.750  49.023  49.370  1.00  0.00    -0.389 OA
HETATM   22  H   UNL     1      24.840  48.945  48.395  1.00  0.00     0.210 HD
ENDBRANCH  20  21
BRANCH  20  23
HETATM   23  C   UNL     1      22.416  49.082  48.982  1.00  0.00    -0.028 A 
HETATM   24  C   UNL     1      22.285  50.475  49.105  1.00  0.00     0.013 A 
HETATM   25  C   UNL     1      21.253  51.150  48.449  1.00  0.00     0.043 A 
HETATM   26  C   UNL     1      20.351  50.435  47.669  1.00  0.00     0.116 A 
HETATM   27  F   UNL     1      19.364  51.085  47.041  1.00  0.00    -0.206 F 
HETATM   28  C   UNL     1      20.461  49.057  47.530  1.00  0.00     0.043 A 
HETATM   29  C   UNL     1      21.492  48.382  48.183  1.00  0.00     0.013 A 
ENDBRANCH  20  23
ENDBRANCH  19  20
ENDBRANCH   2  19
TORSDOF 6
ENDMDL
MODEL 7
REMARK VINA RESULT:      -8.5      2.602      4.145
REMARK  6 active torsions:
REMARK  status: ('A' for Active; 'I' for Inactive)
REMARK    1  A    between atoms: N_4  and  C_5 
REMARK    2  A    between atoms: C_14  and  C_15 
REMARK       I    between atoms: C_15  and  N_16 
REMARK    3  A    between atoms: N_16  and  C_17 
REMARK    4  A    between atoms: C_17  and  C_18 
REMARK    5  A    between atoms: C_18  and  O_19 
REMARK    6  A    between atoms: C_18  and  C_20 
ROOT
HETATM    1  C   UNL     1      27.206  42.403  51.642  1.00  0.00     0.255 C 
HETATM    2  N   UNL     1      27.266  42.543  53.011  1.00  0.00    -0.354 N 
HETATM    3  O   UNL     1      27.914  41.606  51.037  1.00  0.00    -0.268 OA
HETATM    4  H   UNL     1      26.847  43.377  53.392  1.00  0.00     0.162 HD
ENDROOT
BRANCH   1   5
HETATM    5  C   UNL     1      26.287  43.301  50.946  1.00  0.00     0.082 C 
HETATM    6  C   UNL     1      25.349  42.910  49.954  1.00  0.00     0.069 C 
HETATM    7  C   UNL     1      25.095  41.550  49.413  1.00  0.00     0.073 C 
HETATM    8  N   UNL     1      24.629  43.940  49.512  1.00  0.00    -0.171 NA
HETATM    9  N   UNL     1      25.150  45.033  50.119  1.00  0.00    -0.237 N 
HETATM   10  C   UNL     1      26.046  44.665  51.124  1.00  0.00     0.050 C 
HETATM   11  C   UNL     1      26.500  45.581  52.205  1.00  0.00     0.071 C 
BRANCH   9  12
HETATM   12  C   UNL     1      24.740  46.325  49.667  1.00  0.00     0.058 A 
HETATM   13  C   UNL     1      25.685  47.368  49.644  1.00  0.00     0.033 A 
HETATM   14  C   UNL     1      25.322  48.652  49.229  1.00  0.00     0.021 A 
HETATM   15  C   UNL     1      24.007  48.907  48.852  1.00  0.00     0.011 A 
HETATM   16 BR   UNL     1      23.507  50.644  48.300  1.00  0.00    -0.051 Br
HETATM   17  C   UNL     1      23.053  47.892  48.893  1.00  0.00     0.021 A 
HETATM   18  C   UNL     1      23.417  46.602  49.303  1.00  0.00     0.033 A 
ENDBRANCH   9  12
ENDBRANCH   1   5
BRANCH   2  19
HETATM   19  C   UNL     1      28.304  41.920  53.834  1.00  0.00     0.159 C 
BRANCH  19  20
HETATM   20  C   UNL     1      29.710  42.566  53.763  1.00  0.00     0.169 C 
BRANCH  20  21
HETATM   21  O   UNL     1      29.869  43.302  52.549  1.00  0.00    -0.389 OA
HETATM   22  H   UNL     1      30.468  42.764  51.987  1.00  0.00     0.210 HD
ENDBRANCH  20  21
BRANCH  20  23
HETATM   23  C   UNL     1      29.926  43.542  54.902  1.00  0.00    -0.028 A 
HETATM   24  C   UNL     1      29.157  44.715  54.987  1.00  0.00     0.013 A 
HETATM   25  C   UNL     1      29.358  45.620  56.031  1.00  0.00     0.043 A 
HETATM   26  C   UNL     1      30.327  45.356  56.992  1.00  0.00     0.116 A 
HETATM   27  F   UNL     1      30.517  46.226  57.993  1.00  0.00    -0.206 F 
HETATM   28  C   UNL     1      31.099  44.202  56.932  1.00  0.00     0.043 A 
HETATM   29  C   UNL     1      30.898  43.296  55.891  1.00  0.00     0.013 A 
ENDBRANCH  20  23
ENDBRANCH  19  20
ENDBRANCH   2  19
TORSDOF 6
ENDMDL
MODEL 8
REMARK VINA RESULT:      -8.5      7.161      9.537
REMARK  6 active torsions:
REMARK  status: ('A' for Active; 'I' for Inactive)
REMARK    1  A    between atoms: N_4  and  C_5 
REMARK    2  A    between atoms: C_14  and  C_15 
REMARK       I    between atoms: C_15  and  N_16 
REMARK    3  A    between atoms: N_16  and  C_17 
REMARK    4  A    between atoms: C_17  and  C_18 
REMARK    5  A    between atoms: C_18  and  O_19 
REMARK    6  A    between atoms: C_18  and  C_20 
ROOT
HETATM    1  C   UNL     1      28.420  41.132  52.018  1.00  0.00     0.255 C 
HETATM    2  N   UNL     1      29.470  42.022  52.073  1.00  0.00    -0.354 N 
HETATM    3  O   UNL     1      27.771  40.829  53.013  1.00  0.00    -0.268 OA
HETATM    4  H   UNL     1      30.096  42.021  51.281  1.00  0.00     0.162 HD
ENDROOT
BRANCH   1   5
HETATM    5  C   UNL     1      28.159  40.528  50.714  1.00  0.00     0.082 C 
HETATM    6  C   UNL     1      27.475  41.154  49.639  1.00  0.00     0.069 C 
HETATM    7  C   UNL     1      26.885  42.517  49.593  1.00  0.00     0.073 C 
HETATM    8  N   UNL     1      27.406  40.370  48.564  1.00  0.00    -0.171 NA
HETATM    9  N   UNL     1      27.942  39.186  48.945  1.00  0.00    -0.237 N 
HETATM   10  C   UNL     1      28.563  39.298  50.189  1.00  0.00     0.050 C 
HETATM   11  C   UNL     1      29.546  38.312  50.716  1.00  0.00     0.071 C 
BRANCH   9  12
HETATM   12  C   UNL     1      27.798  38.060  48.076  1.00  0.00     0.058 A 
HETATM   13  C   UNL     1      26.799  37.110  48.357  1.00  0.00     0.033 A 
HETATM   14  C   UNL     1      26.635  35.985  47.545  1.00  0.00     0.021 A 
HETATM   15  C   UNL     1      27.482  35.791  46.458  1.00  0.00     0.011 A 
HETATM   16 BR   UNL     1      27.274  34.265  45.364  1.00  0.00    -0.051 Br
HETATM   17  C   UNL     1      28.493  36.710  46.181  1.00  0.00     0.021 A 
HETATM   18  C   UNL     1      28.654  37.842  46.990  1.00  0.00     0.033 A 
ENDBRANCH   9  12
ENDBRANCH   1   5
BRANCH   2  19
HETATM   19  C   UNL     1      30.034  42.519  53.328  1.00  0.00     0.159 C 
BRANCH  19  20
HETATM   20  C   UNL     1      29.373  43.790  53.916  1.00  0.00     0.169 C 
BRANCH  20  21
HETATM   21  O   UNL     1      27.971  43.593  54.104  1.00  0.00    -0.389 OA
HETATM   22  H   UNL     1      27.869  43.260  55.022  1.00  0.00     0.210 HD
ENDBRANCH  20  21
BRANCH  20  23
HETATM   23  C   UNL     1      29.956  44.137  55.272  1.00  0.00    -0.028 A 
HETATM   24  C   UNL     1      30.903  43.292  55.874  1.00  0.00     0.013 A 
HETATM   25  C   UNL     1      31.437  43.604  57.126  1.00  0.00     0.043 A 
HETATM   26  C   UNL     1      31.027  44.761  57.779  1.00  0.00     0.116 A 
HETATM   27  F   UNL     1      31.541  45.058  58.979  1.00  0.00    -0.206 F 
HETATM   28  C   UNL     1      30.094  45.614  57.204  1.00  0.00     0.043 A 
HETATM   29  C   UNL     1      29.561  45.305  55.953  1.00  0.00     0.013 A 
ENDBRANCH  20  23
ENDBRANCH  19  20
ENDBRANCH   2  19
TORSDOF 6
ENDMDL
MODEL 9
REMARK VINA RESULT:      -8.3      5.061      9.456
REMARK  6 active torsions:
REMARK  status: ('A' for Active; 'I' for Inactive)
REMARK    1  A    between atoms: N_4  and  C_5 
REMARK    2  A    between atoms: C_14  and  C_15 
REMARK       I    between atoms: C_15  and  N_16 
REMARK    3  A    between atoms: N_16  and  C_17 
REMARK    4  A    between atoms: C_17  and  C_18 
REMARK    5  A    between atoms: C_18  and  O_19 
REMARK    6  A    between atoms: C_18  and  C_20 
ROOT
HETATM    1  C   UNL     1      23.560  49.403  48.482  1.00  0.00     0.255 C 
HETATM    2  N   UNL     1      22.642  50.104  49.232  1.00  0.00    -0.354 N 
HETATM    3  O   UNL     1      23.921  49.782  47.373  1.00  0.00    -0.268 OA
HETATM    4  H   UNL     1      22.220  49.604  50.000  1.00  0.00     0.162 HD
ENDROOT
BRANCH   1   5
HETATM    5  C   UNL     1      24.039  48.150  49.062  1.00  0.00     0.082 C 
HETATM    6  C   UNL     1      23.314  46.931  49.100  1.00  0.00     0.069 C 
HETATM    7  C   UNL     1      21.949  46.655  48.579  1.00  0.00     0.073 C 
HETATM    8  N   UNL     1      24.012  45.950  49.669  1.00  0.00    -0.171 NA
HETATM    9  N   UNL     1      25.154  46.528  50.111  1.00  0.00    -0.237 N 
HETATM   10  C   UNL     1      25.281  47.824  49.611  1.00  0.00     0.050 C 
HETATM   11  C   UNL     1      26.561  48.584  49.597  1.00  0.00     0.071 C 
BRANCH   9  12
HETATM   12  C   UNL     1      26.008  45.777  50.977  1.00  0.00     0.058 A 
HETATM   13  C   UNL     1      26.816  44.766  50.424  1.00  0.00     0.033 A 
HETATM   14  C   UNL     1      27.651  43.995  51.236  1.00  0.00     0.021 A 
HETATM   15  C   UNL     1      27.669  44.215  52.610  1.00  0.00     0.011 A 
HETATM   16 BR   UNL     1      28.787  43.167  53.716  1.00  0.00    -0.051 Br
HETATM   17  C   UNL     1      26.856  45.195  53.177  1.00  0.00     0.021 A 
HETATM   18  C   UNL     1      26.023  45.974  52.363  1.00  0.00     0.033 A 
ENDBRANCH   9  12
ENDBRANCH   1   5
BRANCH   2  19
HETATM   19  C   UNL     1      21.868  51.229  48.704  1.00  0.00     0.159 C 
BRANCH  19  20
HETATM   20  C   UNL     1      20.417  51.363  49.227  1.00  0.00     0.169 C 
BRANCH  20  21
HETATM   21  O   UNL     1      19.702  52.356  48.491  1.00  0.00    -0.389 OA
HETATM   22  H   UNL     1      19.767  52.090  47.548  1.00  0.00     0.210 HD
ENDBRANCH  20  21
BRANCH  20  23
HETATM   23  C   UNL     1      19.652  50.062  49.070  1.00  0.00    -0.028 A 
HETATM   24  C   UNL     1      19.207  49.361  50.203  1.00  0.00     0.013 A 
HETATM   25  C   UNL     1      18.508  48.160  50.063  1.00  0.00     0.043 A 
HETATM   26  C   UNL     1      18.254  47.658  48.793  1.00  0.00     0.116 A 
HETATM   27  F   UNL     1      17.582  46.506  48.662  1.00  0.00    -0.206 F 
HETATM   28  C   UNL     1      18.681  48.333  47.657  1.00  0.00     0.043 A 
HETATM   29  C   UNL     1      19.377  49.534  47.795  1.00  0.00     0.013 A 
ENDBRANCH  20  23
ENDBRANCH  19  20
ENDBRANCH   2  19
TORSDOF 6
ENDMDL
MODEL 10
REMARK VINA RESULT:      -8.3      5.214      9.684
REMARK  6 active torsions:
REMARK  status: ('A' for Active; 'I' for Inactive)
REMARK    1  A    between atoms: N_4  and  C_5 
REMARK    2  A    between atoms: C_14  and  C_15 
REMARK       I    between atoms: C_15  and  N_16 
REMARK    3  A    between atoms: N_16  and  C_17 
REMARK    4  A    between atoms: C_17  and  C_18 
REMARK    5  A    between atoms: C_18  and  O_19 
REMARK    6  A    between atoms: C_18  and  C_20 
ROOT
HETATM    1  C   UNL     1      22.546  46.613  48.521  1.00  0.00     0.255 C 
HETATM    2  N   UNL     1      21.375  47.040  49.107  1.00  0.00    -0.354 N 
HETATM    3  O   UNL     1      22.593  46.253  47.350  1.00  0.00    -0.268 OA
HETATM    4  H   UNL     1      21.369  47.074  50.116  1.00  0.00     0.162 HD
ENDROOT
BRANCH   1   5
HETATM    5  C   UNL     1      23.718  46.561  49.392  1.00  0.00     0.082 C 
HETATM    6  C   UNL     1      24.605  47.641  49.641  1.00  0.00     0.069 C 
HETATM    7  C   UNL     1      24.552  49.022  49.094  1.00  0.00     0.073 C 
HETATM    8  N   UNL     1      25.571  47.308  50.496  1.00  0.00    -0.171 NA
HETATM    9  N   UNL     1      25.401  45.986  50.737  1.00  0.00    -0.237 N 
HETATM   10  C   UNL     1      24.186  45.538  50.218  1.00  0.00     0.050 C 
HETATM   11  C   UNL     1      23.535  44.261  50.620  1.00  0.00     0.071 C 
BRANCH   9  12
HETATM   12  C   UNL     1      26.429  45.283  51.438  1.00  0.00     0.058 A 
HETATM   13  C   UNL     1      27.250  44.391  50.723  1.00  0.00     0.033 A 
HETATM   14  C   UNL     1      28.255  43.668  51.372  1.00  0.00     0.021 A 
HETATM   15  C   UNL     1      28.432  43.816  52.744  1.00  0.00     0.011 A 
HETATM   16 BR   UNL     1      29.780  42.833  53.630  1.00  0.00    -0.051 Br
HETATM   17  C   UNL     1      27.610  44.676  53.472  1.00  0.00     0.021 A 
HETATM   18  C   UNL     1      26.608  45.407  52.821  1.00  0.00     0.033 A 
ENDBRANCH   9  12
ENDBRANCH   1   5
BRANCH   2  19
HETATM   19  C   UNL     1      20.065  46.910  48.468  1.00  0.00     0.159 C 
BRANCH  19  20
HETATM   20  C   UNL     1      18.897  47.668  49.146  1.00  0.00     0.169 C 
BRANCH  20  21
HETATM   21  O   UNL     1      18.943  47.507  50.564  1.00  0.00    -0.389 OA
HETATM   22  H   UNL     1      18.966  48.415  50.936  1.00  0.00     0.210 HD
ENDBRANCH  20  21
BRANCH  20  23
HETATM   23  C   UNL     1      18.972  49.157  48.869  1.00  0.00    -0.028 A 
HETATM   24  C   UNL     1      18.886  50.080  49.924  1.00  0.00     0.013 A 
HETATM   25  C   UNL     1      18.947  51.452  49.672  1.00  0.00     0.043 A 
HETATM   26  C   UNL     1      19.094  51.905  48.366  1.00  0.00     0.116 A 
HETATM   27  F   UNL     1      19.154  53.221  48.128  1.00  0.00    -0.206 F 
HETATM   28  C   UNL     1      19.184  51.012  47.306  1.00  0.00     0.043 A 
HETATM   29  C   UNL     1      19.125  49.641  47.556  1.00  0.00     0.013 A 
ENDBRANCH  20  23
ENDBRANCH  19  20
ENDBRANCH   2  19
TORSDOF 6
ENDMDL
