MODEL 1
REMARK VINA RESULT:      -9.1      0.000      0.000
REMARK  4 active torsions:
REMARK  status: ('A' for Active; 'I' for Inactive)
REMARK    1  A    between atoms: C_9  and  C_10 
REMARK       I    between atoms: C_10  and  N_11 
REMARK    2  A    between atoms: N_11  and  N_12 
REMARK       I    between atoms: N_12  and  C_13 
REMARK    3  A    between atoms: C_13  and  C_14 
REMARK    4  A    between atoms: C_14  and  C_15 
ROOT
HETATM    1  C   UNL     1      26.015  47.313  49.880  1.00  0.00     0.291 C 
HETATM    2  N   UNL     1      26.167  47.587  51.227  1.00  0.00    -0.262 N 
HETATM    3  O   UNL     1      26.243  46.202  49.400  1.00  0.00    -0.264 OA
HETATM    4  H   UNL     1      25.796  48.467  51.591  1.00  0.00     0.190 HD
ENDROOT
BRANCH   2   5
HETATM    5  N   UNL     1      26.366  46.531  52.123  1.00  0.00    -0.267 N 
HETATM    6  C   UNL     1      25.932  46.696  53.423  1.00  0.00     0.240 C 
HETATM    7  O   UNL     1      25.524  47.770  53.862  1.00  0.00    -0.272 OA
HETATM    8  H   UNL     1      26.555  45.618  51.714  1.00  0.00     0.190 HD
BRANCH   6   9
HETATM    9  C   UNL     1      26.016  45.443  54.273  1.00  0.00     0.143 C 
BRANCH   9  10
HETATM   10  C   UNL     1      27.416  45.098  54.726  1.00  0.00    -0.049 A 
HETATM   11  C   UNL     1      28.111  45.918  55.628  1.00  0.00     0.009 A 
HETATM   12  C   UNL     1      29.389  45.567  56.070  1.00  0.00     0.024 A 
HETATM   13  C   UNL     1      29.975  44.384  55.626  1.00  0.00     0.034 A 
HETATM   14 CL   UNL     1      31.545  43.947  56.176  1.00  0.00    -0.084 Cl
HETATM   15  C   UNL     1      29.292  43.549  54.745  1.00  0.00     0.024 A 
HETATM   16  C   UNL     1      28.016  43.903  54.300  1.00  0.00     0.009 A 
ENDBRANCH   9  10
ENDBRANCH   6   9
ENDBRANCH   2   5
BRANCH   1  17
HETATM   17  C   UNL     1      25.544  48.466  49.102  1.00  0.00     0.158 A 
HETATM   18  C   UNL     1      24.197  48.891  48.903  1.00  0.00     0.029 A 
HETATM   19  C   UNL     1      22.921  48.445  49.304  1.00  0.00     0.023 A 
HETATM   20  C   UNL     1      24.289  50.027  48.107  1.00  0.00     0.063 A 
HETATM   21  C   UNL     1      21.778  49.148  48.883  1.00  0.00    -0.061 A 
HETATM   22  C   UNL     1      20.411  48.701  49.316  1.00  0.00     0.048 C 
HETATM   23  C   UNL     1      21.918  50.294  48.090  1.00  0.00     0.009 A 
HETATM   24  C   UNL     1      23.175  50.755  47.684  1.00  0.00     0.032 A 
HETATM   25  N   UNL     1      25.626  50.206  47.887  1.00  0.00    -0.277 N 
HETATM   26  H   UNL     1      26.066  50.943  47.347  1.00  0.00     0.189 HD
HETATM   27  N   UNL     1      26.414  49.286  48.468  1.00  0.00    -0.168 NA
ENDBRANCH   1  17
TORSDOF 4
ENDMDL
MODEL 2
REMARK VINA RESULT:      -8.9      1.674      2.150
REMARK  4 active torsions:
REMARK  status: ('A' for Active; 'I' for Inactive)
REMARK    1  A    between atoms: C_9  and  C_10 
REMARK       I    between atoms: C_10  and  N_11 
REMARK    2  A    between atoms: N_11  and  N_12 
REMARK       I    between atoms: N_12  and  C_13 
REMARK    3  A    between atoms: C_13  and  C_14 
REMARK    4  A    between atoms: C_14  and  C_15 
ROOT
HETATM    1  C   UNL     1      26.293  47.169  50.352  1.00  0.00     0.291 C 
HETATM    2  N   UNL     1      26.576  45.989  49.688  1.00  0.00    -0.262 N 
HETATM    3  O   UNL     1      26.327  47.261  51.580  1.00  0.00    -0.264 OA
HETATM    4  H   UNL     1      26.704  46.018  48.674  1.00  0.00     0.190 HD
ENDROOT
BRANCH   2   5
HETATM    5  N   UNL     1      27.137  44.920  50.396  1.00  0.00    -0.267 N 
HETATM    6  C   UNL     1      26.290  43.927  50.844  1.00  0.00     0.240 C 
HETATM    7  O   UNL     1      25.064  44.013  50.784  1.00  0.00    -0.272 OA
HETATM    8  H   UNL     1      28.141  44.790  50.300  1.00  0.00     0.190 HD
BRANCH   6   9
HETATM    9  C   UNL     1      26.997  42.722  51.433  1.00  0.00     0.143 C 
BRANCH   9  10
HETATM   10  C   UNL     1      27.983  43.061  52.527  1.00  0.00    -0.049 A 
HETATM   11  C   UNL     1      27.587  43.784  53.663  1.00  0.00     0.009 A 
HETATM   12  C   UNL     1      28.499  44.056  54.687  1.00  0.00     0.024 A 
HETATM   13  C   UNL     1      29.808  43.592  54.590  1.00  0.00     0.034 A 
HETATM   14 CL   UNL     1      30.928  43.918  55.854  1.00  0.00    -0.084 Cl
HETATM   15  C   UNL     1      30.212  42.855  53.479  1.00  0.00     0.024 A 
HETATM   16  C   UNL     1      29.302  42.588  52.453  1.00  0.00     0.009 A 
ENDBRANCH   9  10
ENDBRANCH   6   9
ENDBRANCH   2   5
BRANCH   1  17
HETATM   17  C   UNL     1      25.971  48.282  49.449  1.00  0.00     0.158 A 
HETATM   18  C   UNL     1      24.678  48.770  49.098  1.00  0.00     0.029 A 
HETATM   19  C   UNL     1      23.345  48.438  49.414  1.00  0.00     0.023 A 
HETATM   20  C   UNL     1      24.916  49.830  48.229  1.00  0.00     0.063 A 
HETATM   21  C   UNL     1      22.293  49.173  48.839  1.00  0.00    -0.061 A 
HETATM   22  C   UNL     1      20.867  48.848  49.179  1.00  0.00     0.048 C 
HETATM   23  C   UNL     1      22.578  50.240  47.977  1.00  0.00     0.009 A 
HETATM   24  C   UNL     1      23.894  50.588  47.653  1.00  0.00     0.032 A 
HETATM   25  N   UNL     1      26.276  49.908  48.119  1.00  0.00    -0.277 N 
HETATM   26  H   UNL     1      26.809  50.569  47.566  1.00  0.00     0.189 HD
HETATM   27  N   UNL     1      26.946  48.991  48.837  1.00  0.00    -0.168 NA
ENDBRANCH   1  17
TORSDOF 4
ENDMDL
MODEL 3
REMARK VINA RESULT:      -8.8      4.477      9.497
REMARK  4 active torsions:
REMARK  status: ('A' for Active; 'I' for Inactive)
REMARK    1  A    between atoms: C_9  and  C_10 
REMARK       I    between atoms: C_10  and  N_11 
REMARK    2  A    between atoms: N_11  and  N_12 
REMARK       I    between atoms: N_12  and  C_13 
REMARK    3  A    between atoms: C_13  and  C_14 
REMARK    4  A    between atoms: C_14  and  C_15 
ROOT
HETATM    1  C   UNL     1      24.578  47.641  50.237  1.00  0.00     0.291 C 
HETATM    2  N   UNL     1      23.244  47.912  49.996  1.00  0.00    -0.262 N 
HETATM    3  O   UNL     1      25.485  48.374  49.840  1.00  0.00    -0.264 OA
HETATM    4  H   UNL     1      22.537  47.368  50.497  1.00  0.00     0.190 HD
ENDROOT
BRANCH   2   5
HETATM    5  N   UNL     1      22.879  49.164  49.488  1.00  0.00    -0.267 N 
HETATM    6  C   UNL     1      22.426  49.225  48.185  1.00  0.00     0.240 C 
HETATM    7  O   UNL     1      22.473  48.268  47.414  1.00  0.00    -0.272 OA
HETATM    8  H   UNL     1      22.701  49.897  50.171  1.00  0.00     0.190 HD
BRANCH   6   9
HETATM    9  C   UNL     1      21.877  50.579  47.778  1.00  0.00     0.143 C 
BRANCH   9  10
HETATM   10  C   UNL     1      20.426  50.790  48.143  1.00  0.00    -0.049 A 
HETATM   11  C   UNL     1      19.946  52.057  48.507  1.00  0.00     0.009 A 
HETATM   12  C   UNL     1      18.593  52.247  48.803  1.00  0.00     0.024 A 
HETATM   13  C   UNL     1      17.708  51.176  48.719  1.00  0.00     0.034 A 
HETATM   14 CL   UNL     1      16.042  51.411  49.075  1.00  0.00    -0.084 Cl
HETATM   15  C   UNL     1      18.164  49.916  48.340  1.00  0.00     0.024 A 
HETATM   16  C   UNL     1      19.518  49.725  48.049  1.00  0.00     0.009 A 
ENDBRANCH   9  10
ENDBRANCH   6   9
ENDBRANCH   2   5
BRANCH   1  17
HETATM   17  C   UNL     1      24.791  46.414  51.016  1.00  0.00     0.158 A 
HETATM   18  C   UNL     1      25.549  46.265  52.215  1.00  0.00     0.029 A 
HETATM   19  C   UNL     1      26.316  47.109  53.044  1.00  0.00     0.023 A 
HETATM   20  C   UNL     1      25.430  44.922  52.554  1.00  0.00     0.063 A 
HETATM   21  C   UNL     1      26.948  46.574  54.181  1.00  0.00    -0.061 A 
HETATM   22  C   UNL     1      27.753  47.461  55.087  1.00  0.00     0.048 C 
HETATM   23  C   UNL     1      26.792  45.217  54.491  1.00  0.00     0.009 A 
HETATM   24  C   UNL     1      26.033  44.364  53.683  1.00  0.00     0.032 A 
HETATM   25  N   UNL     1      24.642  44.373  51.581  1.00  0.00    -0.277 N 
HETATM   26  H   UNL     1      24.343  43.407  51.507  1.00  0.00     0.189 HD
HETATM   27  N   UNL     1      24.240  45.239  50.637  1.00  0.00    -0.168 NA
ENDBRANCH   1  17
TORSDOF 4
ENDMDL
MODEL 4
REMARK VINA RESULT:      -8.6      6.954      9.572
REMARK  4 active torsions:
REMARK  status: ('A' for Active; 'I' for Inactive)
REMARK    1  A    between atoms: C_9  and  C_10 
REMARK       I    between atoms: C_10  and  N_11 
REMARK    2  A    between atoms: N_11  and  N_12 
REMARK       I    between atoms: N_12  and  C_13 
REMARK    3  A    between atoms: C_13  and  C_14 
REMARK    4  A    between atoms: C_14  and  C_15 
ROOT
HETATM    1  C   UNL     1      28.449  42.207  52.953  1.00  0.00     0.291 C 
HETATM    2  N   UNL     1      27.216  41.583  52.896  1.00  0.00    -0.262 N 
HETATM    3  O   UNL     1      29.455  41.735  52.423  1.00  0.00    -0.264 OA
HETATM    4  H   UNL     1      26.390  42.105  53.199  1.00  0.00     0.190 HD
ENDROOT
BRANCH   2   5
HETATM    5  N   UNL     1      27.034  40.502  52.027  1.00  0.00    -0.267 N 
HETATM    6  C   UNL     1      26.390  40.736  50.829  1.00  0.00     0.240 C 
HETATM    7  O   UNL     1      25.841  41.804  50.561  1.00  0.00    -0.272 OA
HETATM    8  H   UNL     1      27.618  39.685  52.191  1.00  0.00     0.190 HD
BRANCH   6   9
HETATM    9  C   UNL     1      26.402  39.560  49.873  1.00  0.00     0.143 C 
BRANCH   9  10
HETATM   10  C   UNL     1      26.663  39.939  48.433  1.00  0.00    -0.049 A 
HETATM   11  C   UNL     1      25.645  39.875  47.469  1.00  0.00     0.009 A 
HETATM   12  C   UNL     1      25.889  40.267  46.150  1.00  0.00     0.024 A 
HETATM   13  C   UNL     1      27.147  40.741  45.789  1.00  0.00     0.034 A 
HETATM   14 CL   UNL     1      27.444  41.232  44.168  1.00  0.00    -0.084 Cl
HETATM   15  C   UNL     1      28.163  40.829  46.737  1.00  0.00     0.024 A 
HETATM   16  C   UNL     1      27.921  40.433  48.055  1.00  0.00     0.009 A 
ENDBRANCH   9  10
ENDBRANCH   6   9
ENDBRANCH   2   5
BRANCH   1  17
HETATM   17  C   UNL     1      28.423  43.479  53.688  1.00  0.00     0.158 A 
HETATM   18  C   UNL     1      29.278  43.883  54.756  1.00  0.00     0.029 A 
HETATM   19  C   UNL     1      30.354  43.316  55.468  1.00  0.00     0.023 A 
HETATM   20  C   UNL     1      28.852  45.163  55.094  1.00  0.00     0.063 A 
HETATM   21  C   UNL     1      30.961  44.047  56.504  1.00  0.00    -0.061 A 
HETATM   22  C   UNL     1      32.122  43.468  57.261  1.00  0.00     0.048 C 
HETATM   23  C   UNL     1      30.507  45.338  56.805  1.00  0.00     0.009 A 
HETATM   24  C   UNL     1      29.443  45.920  56.109  1.00  0.00     0.032 A 
HETATM   25  N   UNL     1      27.816  45.435  54.246  1.00  0.00    -0.277 N 
HETATM   26  H   UNL     1      27.264  46.284  54.205  1.00  0.00     0.189 HD
HETATM   27  N   UNL     1      27.526  44.444  53.386  1.00  0.00    -0.168 NA
ENDBRANCH   1  17
TORSDOF 4
ENDMDL
MODEL 5
REMARK VINA RESULT:      -8.6      4.070      8.904
REMARK  4 active torsions:
REMARK  status: ('A' for Active; 'I' for Inactive)
REMARK    1  A    between atoms: C_9  and  C_10 
REMARK       I    between atoms: C_10  and  N_11 
REMARK    2  A    between atoms: N_11  and  N_12 
REMARK       I    between atoms: N_12  and  C_13 
REMARK    3  A    between atoms: C_13  and  C_14 
REMARK    4  A    between atoms: C_14  and  C_15 
ROOT
HETATM    1  C   UNL     1      24.763  44.776  51.507  1.00  0.00     0.291 C 
HETATM    2  N   UNL     1      24.758  45.989  50.843  1.00  0.00    -0.262 N 
HETATM    3  O   UNL     1      23.822  43.983  51.446  1.00  0.00    -0.264 OA
HETATM    4  H   UNL     1      25.630  46.520  50.789  1.00  0.00     0.190 HD
ENDROOT
BRANCH   2   5
HETATM    5  N   UNL     1      23.766  46.244  49.890  1.00  0.00    -0.267 N 
HETATM    6  C   UNL     1      23.542  47.557  49.525  1.00  0.00     0.240 C 
HETATM    7  O   UNL     1      24.061  48.511  50.104  1.00  0.00    -0.272 OA
HETATM    8  H   UNL     1      23.467  45.454  49.323  1.00  0.00     0.190 HD
BRANCH   6   9
HETATM    9  C   UNL     1      22.590  47.728  48.358  1.00  0.00     0.143 C 
BRANCH   9  10
HETATM   10  C   UNL     1      21.612  48.869  48.523  1.00  0.00    -0.049 A 
HETATM   11  C   UNL     1      20.404  48.696  49.216  1.00  0.00     0.009 A 
HETATM   12  C   UNL     1      19.527  49.769  49.396  1.00  0.00     0.024 A 
HETATM   13  C   UNL     1      19.860  51.027  48.900  1.00  0.00     0.034 A 
HETATM   14 CL   UNL     1      18.786  52.350  49.129  1.00  0.00    -0.084 Cl
HETATM   15  C   UNL     1      21.064  51.220  48.227  1.00  0.00     0.024 A 
HETATM   16  C   UNL     1      21.938  50.146  48.042  1.00  0.00     0.009 A 
ENDBRANCH   9  10
ENDBRANCH   6   9
ENDBRANCH   2   5
BRANCH   1  17
HETATM   17  C   UNL     1      25.997  44.534  52.266  1.00  0.00     0.158 A 
HETATM   18  C   UNL     1      26.557  45.345  53.298  1.00  0.00     0.029 A 
HETATM   19  C   UNL     1      26.219  46.555  53.936  1.00  0.00     0.023 A 
HETATM   20  C   UNL     1      27.712  44.680  53.694  1.00  0.00     0.063 A 
HETATM   21  C   UNL     1      27.057  47.065  54.943  1.00  0.00    -0.061 A 
HETATM   22  C   UNL     1      26.704  48.343  55.649  1.00  0.00     0.048 C 
HETATM   23  C   UNL     1      28.206  46.356  55.318  1.00  0.00     0.009 A 
HETATM   24  C   UNL     1      28.558  45.152  54.700  1.00  0.00     0.032 A 
HETATM   25  N   UNL     1      27.771  43.561  52.910  1.00  0.00    -0.277 N 
HETATM   26  H   UNL     1      28.483  42.839  52.925  1.00  0.00     0.189 HD
HETATM   27  N   UNL     1      26.758  43.440  52.037  1.00  0.00    -0.168 NA
ENDBRANCH   1  17
TORSDOF 4
ENDMDL
MODEL 6
REMARK VINA RESULT:      -8.6      6.523      8.990
REMARK  4 active torsions:
REMARK  status: ('A' for Active; 'I' for Inactive)
REMARK    1  A    between atoms: C_9  and  C_10 
REMARK       I    between atoms: C_10  and  N_11 
REMARK    2  A    between atoms: N_11  and  N_12 
REMARK       I    between atoms: N_12  and  C_13 
REMARK    3  A    between atoms: C_13  and  C_14 
REMARK    4  A    between atoms: C_14  and  C_15 
ROOT
HETATM    1  C   UNL     1      27.717  42.114  52.813  1.00  0.00     0.291 C 
HETATM    2  N   UNL     1      26.774  42.092  51.802  1.00  0.00    -0.262 N 
HETATM    3  O   UNL     1      28.387  41.125  53.115  1.00  0.00    -0.264 OA
HETATM    4  H   UNL     1      26.380  42.980  51.482  1.00  0.00     0.190 HD
ENDROOT
BRANCH   2   5
HETATM    5  N   UNL     1      26.722  40.995  50.936  1.00  0.00    -0.267 N 
HETATM    6  C   UNL     1      27.103  41.188  49.623  1.00  0.00     0.240 C 
HETATM    7  O   UNL     1      27.335  42.300  49.150  1.00  0.00    -0.272 OA
HETATM    8  H   UNL     1      26.681  40.075  51.371  1.00  0.00     0.190 HD
BRANCH   6   9
HETATM    9  C   UNL     1      27.196  39.915  48.806  1.00  0.00     0.143 C 
BRANCH   9  10
HETATM   10  C   UNL     1      27.911  38.783  49.508  1.00  0.00    -0.049 A 
HETATM   11  C   UNL     1      29.169  38.975  50.099  1.00  0.00     0.009 A 
HETATM   12  C   UNL     1      29.802  37.931  50.780  1.00  0.00     0.024 A 
HETATM   13  C   UNL     1      29.173  36.694  50.890  1.00  0.00     0.034 A 
HETATM   14 CL   UNL     1      29.946  35.412  51.736  1.00  0.00    -0.084 Cl
HETATM   15  C   UNL     1      27.915  36.493  50.326  1.00  0.00     0.024 A 
HETATM   16  C   UNL     1      27.285  37.535  49.641  1.00  0.00     0.009 A 
ENDBRANCH   9  10
ENDBRANCH   6   9
ENDBRANCH   2   5
BRANCH   1  17
HETATM   17  C   UNL     1      27.841  43.425  53.464  1.00  0.00     0.158 A 
HETATM   18  C   UNL     1      28.818  43.832  54.421  1.00  0.00     0.029 A 
HETATM   19  C   UNL     1      29.921  43.235  55.065  1.00  0.00     0.023 A 
HETATM   20  C   UNL     1      28.507  45.155  54.714  1.00  0.00     0.063 A 
HETATM   21  C   UNL     1      30.669  43.982  55.992  1.00  0.00    -0.061 A 
HETATM   22  C   UNL     1      31.859  43.370  56.675  1.00  0.00     0.048 C 
HETATM   23  C   UNL     1      30.327  45.316  56.250  1.00  0.00     0.009 A 
HETATM   24  C   UNL     1      29.238  45.928  55.620  1.00  0.00     0.032 A 
HETATM   25  N   UNL     1      27.413  45.447  53.950  1.00  0.00    -0.277 N 
HETATM   26  H   UNL     1      26.913  46.328  53.906  1.00  0.00     0.189 HD
HETATM   27  N   UNL     1      26.981  44.430  53.185  1.00  0.00    -0.168 NA
ENDBRANCH   1  17
TORSDOF 4
ENDMDL
MODEL 7
REMARK VINA RESULT:      -8.4      7.162     10.027
REMARK  4 active torsions:
REMARK  status: ('A' for Active; 'I' for Inactive)
REMARK    1  A    between atoms: C_9  and  C_10 
REMARK       I    between atoms: C_10  and  N_11 
REMARK    2  A    between atoms: N_11  and  N_12 
REMARK       I    between atoms: N_12  and  C_13 
REMARK    3  A    between atoms: C_13  and  C_14 
REMARK    4  A    between atoms: C_14  and  C_15 
ROOT
HETATM    1  C   UNL     1      28.489  41.781  52.812  1.00  0.00     0.291 C 
HETATM    2  N   UNL     1      28.356  41.839  51.437  1.00  0.00    -0.262 N 
HETATM    3  O   UNL     1      28.658  40.721  53.416  1.00  0.00    -0.264 OA
HETATM    4  H   UNL     1      28.395  42.753  50.980  1.00  0.00     0.190 HD
ENDROOT
BRANCH   2   5
HETATM    5  N   UNL     1      28.644  40.704  50.671  1.00  0.00    -0.267 N 
HETATM    6  C   UNL     1      28.323  40.731  49.328  1.00  0.00     0.240 C 
HETATM    7  O   UNL     1      27.666  41.635  48.815  1.00  0.00    -0.272 OA
HETATM    8  H   UNL     1      29.313  40.047  51.067  1.00  0.00     0.190 HD
BRANCH   6   9
HETATM    9  C   UNL     1      28.838  39.543  48.539  1.00  0.00     0.143 C 
BRANCH   9  10
HETATM   10  C   UNL     1      27.783  38.504  48.234  1.00  0.00    -0.049 A 
HETATM   11  C   UNL     1      27.231  38.385  46.949  1.00  0.00     0.009 A 
HETATM   12  C   UNL     1      26.286  37.394  46.670  1.00  0.00     0.024 A 
HETATM   13  C   UNL     1      25.900  36.504  47.668  1.00  0.00     0.034 A 
HETATM   14 CL   UNL     1      24.744  35.278  47.322  1.00  0.00    -0.084 Cl
HETATM   15  C   UNL     1      26.452  36.595  48.943  1.00  0.00     0.024 A 
HETATM   16  C   UNL     1      27.393  37.589  49.224  1.00  0.00     0.009 A 
ENDBRANCH   9  10
ENDBRANCH   6   9
ENDBRANCH   2   5
BRANCH   1  17
HETATM   17  C   UNL     1      28.423  43.098  53.458  1.00  0.00     0.158 A 
HETATM   18  C   UNL     1      29.247  43.590  54.514  1.00  0.00     0.029 A 
HETATM   19  C   UNL     1      30.318  43.094  55.285  1.00  0.00     0.023 A 
HETATM   20  C   UNL     1      28.790  44.881  54.757  1.00  0.00     0.063 A 
HETATM   21  C   UNL     1      30.888  43.905  56.282  1.00  0.00    -0.061 A 
HETATM   22  C   UNL     1      32.042  43.401  57.100  1.00  0.00     0.048 C 
HETATM   23  C   UNL     1      30.403  45.204  56.485  1.00  0.00     0.009 A 
HETATM   24  C   UNL     1      29.343  45.716  55.730  1.00  0.00     0.032 A 
HETATM   25  N   UNL     1      27.767  45.075  53.871  1.00  0.00    -0.277 N 
HETATM   26  H   UNL     1      27.199  45.907  53.762  1.00  0.00     0.189 HD
HETATM   27  N   UNL     1      27.515  44.023  53.074  1.00  0.00    -0.168 NA
ENDBRANCH   1  17
TORSDOF 4
ENDMDL
MODEL 8
REMARK VINA RESULT:      -8.2      4.854      9.486
REMARK  4 active torsions:
REMARK  status: ('A' for Active; 'I' for Inactive)
REMARK    1  A    between atoms: C_9  and  C_10 
REMARK       I    between atoms: C_10  and  N_11 
REMARK    2  A    between atoms: N_11  and  N_12 
REMARK       I    between atoms: N_12  and  C_13 
REMARK    3  A    between atoms: C_13  and  C_14 
REMARK    4  A    between atoms: C_14  and  C_15 
ROOT
HETATM    1  C   UNL     1      24.425  47.038  50.393  1.00  0.00     0.291 C 
HETATM    2  N   UNL     1      23.371  47.581  49.681  1.00  0.00    -0.262 N 
HETATM    3  O   UNL     1      25.244  47.732  50.996  1.00  0.00    -0.264 OA
HETATM    4  H   UNL     1      22.630  46.958  49.353  1.00  0.00     0.190 HD
ENDROOT
BRANCH   2   5
HETATM    5  N   UNL     1      23.077  48.942  49.822  1.00  0.00    -0.267 N 
HETATM    6  C   UNL     1      22.554  49.607  48.731  1.00  0.00     0.240 C 
HETATM    7  O   UNL     1      22.480  49.103  47.612  1.00  0.00    -0.272 OA
HETATM    8  H   UNL     1      22.998  49.293  50.775  1.00  0.00     0.190 HD
BRANCH   6   9
HETATM    9  C   UNL     1      22.092  51.021  49.025  1.00  0.00     0.143 C 
BRANCH   9  10
HETATM   10  C   UNL     1      20.592  51.166  49.143  1.00  0.00    -0.049 A 
HETATM   11  C   UNL     1      19.843  50.316  49.970  1.00  0.00     0.009 A 
HETATM   12  C   UNL     1      18.462  50.486  50.101  1.00  0.00     0.024 A 
HETATM   13  C   UNL     1      17.823  51.519  49.420  1.00  0.00     0.034 A 
HETATM   14 CL   UNL     1      16.125  51.735  49.589  1.00  0.00    -0.084 Cl
HETATM   15  C   UNL     1      18.555  52.384  48.610  1.00  0.00     0.024 A 
HETATM   16  C   UNL     1      19.935  52.210  48.475  1.00  0.00     0.009 A 
ENDBRANCH   9  10
ENDBRANCH   6   9
ENDBRANCH   2   5
BRANCH   1  17
HETATM   17  C   UNL     1      24.449  45.570  50.365  1.00  0.00     0.158 A 
HETATM   18  C   UNL     1      25.443  44.706  50.914  1.00  0.00     0.029 A 
HETATM   19  C   UNL     1      26.658  44.867  51.612  1.00  0.00     0.023 A 
HETATM   20  C   UNL     1      24.999  43.419  50.632  1.00  0.00     0.063 A 
HETATM   21  C   UNL     1      27.393  43.731  51.993  1.00  0.00    -0.061 A 
HETATM   22  C   UNL     1      28.679  43.881  52.755  1.00  0.00     0.048 C 
HETATM   23  C   UNL     1      26.903  42.452  51.698  1.00  0.00     0.009 A 
HETATM   24  C   UNL     1      25.699  42.270  51.009  1.00  0.00     0.032 A 
HETATM   25  N   UNL     1      23.819  43.583  49.962  1.00  0.00    -0.277 N 
HETATM   26  H   UNL     1      23.212  42.855  49.601  1.00  0.00     0.189 HD
HETATM   27  N   UNL     1      23.456  44.863  49.780  1.00  0.00    -0.168 NA
ENDBRANCH   1  17
TORSDOF 4
ENDMDL
MODEL 9
REMARK VINA RESULT:      -8.2      5.662      8.646
REMARK  4 active torsions:
REMARK  status: ('A' for Active; 'I' for Inactive)
REMARK    1  A    between atoms: C_9  and  C_10 
REMARK       I    between atoms: C_10  and  N_11 
REMARK    2  A    between atoms: N_11  and  N_12 
REMARK       I    between atoms: N_12  and  C_13 
REMARK    3  A    between atoms: C_13  and  C_14 
REMARK    4  A    between atoms: C_14  and  C_15 
ROOT
HETATM    1  C   UNL     1      27.345  42.935  53.052  1.00  0.00     0.291 C 
HETATM    2  N   UNL     1      26.118  42.963  52.417  1.00  0.00    -0.262 N 
HETATM    3  O   UNL     1      28.120  41.983  52.954  1.00  0.00    -0.264 OA
HETATM    4  H   UNL     1      25.600  43.845  52.391  1.00  0.00     0.190 HD
ENDROOT
BRANCH   2   5
HETATM    5  N   UNL     1      25.824  41.995  51.450  1.00  0.00    -0.267 N 
HETATM    6  C   UNL     1      25.363  42.426  50.222  1.00  0.00     0.240 C 
HETATM    7  O   UNL     1      25.057  43.596  49.995  1.00  0.00    -0.272 OA
HETATM    8  H   UNL     1      26.222  41.070  51.598  1.00  0.00     0.190 HD
BRANCH   6   9
HETATM    9  C   UNL     1      25.249  41.333  49.178  1.00  0.00     0.143 C 
BRANCH   9  10
HETATM   10  C   UNL     1      26.488  40.475  49.048  1.00  0.00    -0.049 A 
HETATM   11  C   UNL     1      27.665  40.982  48.477  1.00  0.00     0.009 A 
HETATM   12  C   UNL     1      28.815  40.191  48.399  1.00  0.00     0.024 A 
HETATM   13  C   UNL     1      28.801  38.895  48.907  1.00  0.00     0.034 A 
HETATM   14 CL   UNL     1      30.218  37.925  48.819  1.00  0.00    -0.084 Cl
HETATM   15  C   UNL     1      27.646  38.384  49.494  1.00  0.00     0.024 A 
HETATM   16  C   UNL     1      26.495  39.172  49.567  1.00  0.00     0.009 A 
ENDBRANCH   9  10
ENDBRANCH   6   9
ENDBRANCH   2   5
BRANCH   1  17
HETATM   17  C   UNL     1      27.625  44.149  53.830  1.00  0.00     0.158 A 
HETATM   18  C   UNL     1      28.693  44.366  54.750  1.00  0.00     0.029 A 
HETATM   19  C   UNL     1      29.779  43.615  55.244  1.00  0.00     0.023 A 
HETATM   20  C   UNL     1      28.518  45.668  55.206  1.00  0.00     0.063 A 
HETATM   21  C   UNL     1      30.647  44.190  56.188  1.00  0.00    -0.061 A 
HETATM   22  C   UNL     1      31.820  43.412  56.711  1.00  0.00     0.048 C 
HETATM   23  C   UNL     1      30.440  45.509  56.612  1.00  0.00     0.009 A 
HETATM   24  C   UNL     1      29.371  46.273  56.133  1.00  0.00     0.032 A 
HETATM   25  N   UNL     1      27.406  46.131  54.560  1.00  0.00    -0.277 N 
HETATM   26  H   UNL     1      26.983  47.048  54.648  1.00  0.00     0.189 HD
HETATM   27  N   UNL     1      26.839  45.245  53.725  1.00  0.00    -0.168 NA
ENDBRANCH   1  17
TORSDOF 4
ENDMDL
MODEL 10
REMARK VINA RESULT:      -8.0      4.261      9.409
REMARK  4 active torsions:
REMARK  status: ('A' for Active; 'I' for Inactive)
REMARK    1  A    between atoms: C_9  and  C_10 
REMARK       I    between atoms: C_10  and  N_11 
REMARK    2  A    between atoms: N_11  and  N_12 
REMARK       I    between atoms: N_12  and  C_13 
REMARK    3  A    between atoms: C_13  and  C_14 
REMARK    4  A    between atoms: C_14  and  C_15 
ROOT
HETATM    1  C   UNL     1      25.200  46.761  50.661  1.00  0.00     0.291 C 
HETATM    2  N   UNL     1      23.828  46.939  50.651  1.00  0.00    -0.262 N 
HETATM    3  O   UNL     1      25.871  46.730  49.628  1.00  0.00    -0.264 OA
HETATM    4  H   UNL     1      23.354  47.132  51.536  1.00  0.00     0.190 HD
ENDROOT
BRANCH   2   5
HETATM    5  N   UNL     1      23.196  47.324  49.463  1.00  0.00    -0.267 N 
HETATM    6  C   UNL     1      23.044  48.674  49.219  1.00  0.00     0.240 C 
HETATM    7  O   UNL     1      23.298  49.539  50.057  1.00  0.00    -0.272 OA
HETATM    8  H   UNL     1      23.137  46.619  48.731  1.00  0.00     0.190 HD
BRANCH   6   9
HETATM    9  C   UNL     1      22.522  49.004  47.835  1.00  0.00     0.143 C 
BRANCH   9  10
HETATM   10  C   UNL     1      21.234  49.795  47.834  1.00  0.00    -0.049 A 
HETATM   11  C   UNL     1      20.033  49.227  47.382  1.00  0.00     0.009 A 
HETATM   12  C   UNL     1      18.841  49.955  47.425  1.00  0.00     0.024 A 
HETATM   13  C   UNL     1      18.838  51.250  47.936  1.00  0.00     0.034 A 
HETATM   14 CL   UNL     1      17.370  52.144  47.997  1.00  0.00    -0.084 Cl
HETATM   15  C   UNL     1      20.017  51.822  48.407  1.00  0.00     0.024 A 
HETATM   16  C   UNL     1      21.210  51.095  48.360  1.00  0.00     0.009 A 
ENDBRANCH   9  10
ENDBRANCH   6   9
ENDBRANCH   2   5
BRANCH   1  17
HETATM   17  C   UNL     1      25.759  46.630  52.012  1.00  0.00     0.158 A 
HETATM   18  C   UNL     1      26.635  45.614  52.497  1.00  0.00     0.029 A 
HETATM   19  C   UNL     1      27.248  44.461  51.965  1.00  0.00     0.023 A 
HETATM   20  C   UNL     1      26.875  45.947  53.825  1.00  0.00     0.063 A 
HETATM   21  C   UNL     1      28.071  43.672  52.787  1.00  0.00    -0.061 A 
HETATM   22  C   UNL     1      28.748  42.451  52.234  1.00  0.00     0.048 C 
HETATM   23  C   UNL     1      28.294  44.051  54.118  1.00  0.00     0.009 A 
HETATM   24  C   UNL     1      27.699  45.192  54.664  1.00  0.00     0.032 A 
HETATM   25  N   UNL     1      26.160  47.090  54.046  1.00  0.00    -0.277 N 
HETATM   26  H   UNL     1      26.101  47.620  54.909  1.00  0.00     0.189 HD
HETATM   27  N   UNL     1      25.473  47.532  52.979  1.00  0.00    -0.168 NA
ENDBRANCH   1  17
TORSDOF 4
ENDMDL
