MODEL 1
REMARK VINA RESULT:      -7.2      0.000      0.000
REMARK  3 active torsions:
REMARK  status: ('A' for Active; 'I' for Inactive)
REMARK    1  A    between atoms: N_7  and  O_8 
REMARK    2  A    between atoms: O_8  and  C_9 
REMARK    3  A    between atoms: C_9  and  C_10 
ROOT
HETATM    1  O   UNL     1      25.243  47.229  53.221  1.00  0.00    -0.170 OA
ENDROOT
BRANCH   1   2
HETATM    2  N   UNL     1      26.038  47.467  52.086  1.00  0.00    -0.134 NA
HETATM    3  C   UNL     1      25.675  46.783  51.053  1.00  0.00     0.043 C 
HETATM    4  C   UNL     1      24.555  45.780  50.991  1.00  0.00     0.084 C 
HETATM    5  C   UNL     1      26.535  46.860  49.820  1.00  0.00     0.084 C 
HETATM    6  C   UNL     1      25.217  44.418  50.848  1.00  0.00     0.240 C 
HETATM    7  N   UNL     1      26.152  44.406  49.644  1.00  0.00    -0.074 N 
HETATM    8  C   UNL     1      26.792  43.051  49.469  1.00  0.00     0.269 C 
HETATM    9  H   UNL     1      25.588  44.566  48.798  1.00  0.00     0.279 HD
HETATM   10  C   UNL     1      27.211  45.504  49.709  1.00  0.00     0.240 C 
ENDBRANCH   1   2
BRANCH   1  11
HETATM   11  C   UNL     1      25.980  47.503  54.346  1.00  0.00     0.317 C 
HETATM   12  O   UNL     1      25.880  48.491  55.059  1.00  0.00    -0.257 OA
BRANCH  11  13
HETATM   13  C   UNL     1      27.025  46.463  54.560  1.00  0.00     0.041 A 
HETATM   14  C   UNL     1      28.225  46.863  55.170  1.00  0.00     0.019 A 
HETATM   15  C   UNL     1      29.256  45.943  55.375  1.00  0.00     0.020 A 
HETATM   16  C   UNL     1      29.090  44.621  54.972  1.00  0.00     0.011 A 
HETATM   17 BR   UNL     1      30.490  43.379  55.235  1.00  0.00    -0.051 Br
HETATM   18  C   UNL     1      27.900  44.207  54.375  1.00  0.00     0.020 A 
HETATM   19  C   UNL     1      26.864  45.126  54.169  1.00  0.00     0.019 A 
ENDBRANCH  11  13
ENDBRANCH   1  11
TORSDOF 3
ENDMDL
MODEL 2
REMARK VINA RESULT:      -7.1      2.623      3.923
REMARK  3 active torsions:
REMARK  status: ('A' for Active; 'I' for Inactive)
REMARK    1  A    between atoms: N_7  and  O_8 
REMARK    2  A    between atoms: O_8  and  C_9 
REMARK    3  A    between atoms: C_9  and  C_10 
ROOT
HETATM    1  O   UNL     1      28.416  43.861  52.108  1.00  0.00    -0.170 OA
ENDROOT
BRANCH   1   2
HETATM    2  N   UNL     1      27.080  43.444  51.982  1.00  0.00    -0.134 NA
HETATM    3  C   UNL     1      26.507  43.873  50.907  1.00  0.00     0.043 C 
HETATM    4  C   UNL     1      27.118  44.767  49.863  1.00  0.00     0.084 C 
HETATM    5  C   UNL     1      25.038  43.596  50.733  1.00  0.00     0.084 C 
HETATM    6  C   UNL     1      26.414  46.108  49.993  1.00  0.00     0.240 C 
HETATM    7  N   UNL     1      24.905  45.929  49.876  1.00  0.00    -0.074 N 
HETATM    8  C   UNL     1      24.193  47.256  49.970  1.00  0.00     0.269 C 
HETATM    9  H   UNL     1      24.697  45.561  48.937  1.00  0.00     0.279 HD
HETATM   10  C   UNL     1      24.348  44.939  50.896  1.00  0.00     0.240 C 
ENDBRANCH   1   2
BRANCH   1  11
HETATM   11  C   UNL     1      29.080  42.987  52.932  1.00  0.00     0.317 C 
HETATM   12  O   UNL     1      29.273  41.798  52.727  1.00  0.00    -0.257 OA
BRANCH  11  13
HETATM   13  C   UNL     1      29.475  43.656  54.203  1.00  0.00     0.041 A 
HETATM   14  C   UNL     1      28.759  44.802  54.584  1.00  0.00     0.019 A 
HETATM   15  C   UNL     1      29.096  45.493  55.750  1.00  0.00     0.020 A 
HETATM   16  C   UNL     1      30.147  45.039  56.540  1.00  0.00     0.011 A 
HETATM   17 BR   UNL     1      30.614  45.980  58.111  1.00  0.00    -0.051 Br
HETATM   18  C   UNL     1      30.861  43.895  56.180  1.00  0.00     0.020 A 
HETATM   19  C   UNL     1      30.525  43.201  55.012  1.00  0.00     0.019 A 
ENDBRANCH  11  13
ENDBRANCH   1  11
TORSDOF 3
ENDMDL
MODEL 3
REMARK VINA RESULT:      -7.0      1.714      2.974
REMARK  3 active torsions:
REMARK  status: ('A' for Active; 'I' for Inactive)
REMARK    1  A    between atoms: N_7  and  O_8 
REMARK    2  A    between atoms: O_8  and  C_9 
REMARK    3  A    between atoms: C_9  and  C_10 
ROOT
HETATM    1  O   UNL     1      26.649  45.705  52.463  1.00  0.00    -0.170 OA
ENDROOT
BRANCH   1   2
HETATM    2  N   UNL     1      25.372  45.807  51.883  1.00  0.00    -0.134 NA
HETATM    3  C   UNL     1      25.399  46.157  50.641  1.00  0.00     0.043 C 
HETATM    4  C   UNL     1      26.622  46.484  49.829  1.00  0.00     0.084 C 
HETATM    5  C   UNL     1      24.085  46.425  49.957  1.00  0.00     0.084 C 
HETATM    6  C   UNL     1      26.571  47.983  49.576  1.00  0.00     0.240 C 
HETATM    7  N   UNL     1      25.248  48.366  48.921  1.00  0.00    -0.074 N 
HETATM    8  C   UNL     1      25.196  49.847  48.633  1.00  0.00     0.269 C 
HETATM    9  H   UNL     1      25.195  47.896  48.007  1.00  0.00     0.279 HD
HETATM   10  C   UNL     1      24.037  47.927  49.739  1.00  0.00     0.240 C 
ENDBRANCH   1   2
BRANCH   1  11
HETATM   11  C   UNL     1      26.557  46.003  53.799  1.00  0.00     0.317 C 
HETATM   12  O   UNL     1      25.668  46.642  54.342  1.00  0.00    -0.257 OA
BRANCH  11  13
HETATM   13  C   UNL     1      27.761  45.520  54.532  1.00  0.00     0.041 A 
HETATM   14  C   UNL     1      28.342  44.315  54.105  1.00  0.00     0.019 A 
HETATM   15  C   UNL     1      29.456  43.793  54.766  1.00  0.00     0.020 A 
HETATM   16  C   UNL     1      29.994  44.475  55.853  1.00  0.00     0.011 A 
HETATM   17 BR   UNL     1      31.493  43.762  56.757  1.00  0.00    -0.051 Br
HETATM   18  C   UNL     1      29.435  45.678  56.282  1.00  0.00     0.020 A 
HETATM   19  C   UNL     1      28.318  46.205  55.621  1.00  0.00     0.019 A 
ENDBRANCH  11  13
ENDBRANCH   1  11
TORSDOF 3
ENDMDL
MODEL 4
REMARK VINA RESULT:      -6.9      3.055      4.488
REMARK  3 active torsions:
REMARK  status: ('A' for Active; 'I' for Inactive)
REMARK    1  A    between atoms: N_7  and  O_8 
REMARK    2  A    between atoms: O_8  and  C_9 
REMARK    3  A    between atoms: C_9  and  C_10 
ROOT
HETATM    1  O   UNL     1      28.191  43.497  51.705  1.00  0.00    -0.170 OA
ENDROOT
BRANCH   1   2
HETATM    2  N   UNL     1      27.071  42.884  51.118  1.00  0.00    -0.134 NA
HETATM    3  C   UNL     1      27.032  41.606  51.298  1.00  0.00     0.043 C 
HETATM    4  C   UNL     1      28.060  40.771  52.012  1.00  0.00     0.084 C 
HETATM    5  C   UNL     1      25.947  40.830  50.602  1.00  0.00     0.084 C 
HETATM    6  C   UNL     1      28.749  39.943  50.938  1.00  0.00     0.240 C 
HETATM    7  N   UNL     1      27.723  39.148  50.140  1.00  0.00    -0.074 N 
HETATM    8  C   UNL     1      28.395  38.295  49.092  1.00  0.00     0.269 C 
HETATM    9  H   UNL     1      27.254  38.493  50.782  1.00  0.00     0.279 HD
HETATM   10  C   UNL     1      26.647  40.033  49.515  1.00  0.00     0.240 C 
ENDBRANCH   1   2
BRANCH   1  11
HETATM   11  C   UNL     1      27.774  44.279  52.753  1.00  0.00     0.317 C 
HETATM   12  O   UNL     1      26.786  44.999  52.775  1.00  0.00    -0.257 OA
BRANCH  11  13
HETATM   13  C   UNL     1      28.751  44.223  53.875  1.00  0.00     0.041 A 
HETATM   14  C   UNL     1      29.660  43.153  53.893  1.00  0.00     0.019 A 
HETATM   15  C   UNL     1      30.585  43.026  54.932  1.00  0.00     0.020 A 
HETATM   16  C   UNL     1      30.605  43.971  55.955  1.00  0.00     0.011 A 
HETATM   17 BR   UNL     1      31.846  43.793  57.369  1.00  0.00    -0.051 Br
HETATM   18  C   UNL     1      29.716  45.045  55.944  1.00  0.00     0.020 A 
HETATM   19  C   UNL     1      28.789  45.175  54.904  1.00  0.00     0.019 A 
ENDBRANCH  11  13
ENDBRANCH   1  11
TORSDOF 3
ENDMDL
MODEL 5
REMARK VINA RESULT:      -6.7      2.327      3.222
REMARK  3 active torsions:
REMARK  status: ('A' for Active; 'I' for Inactive)
REMARK    1  A    between atoms: N_7  and  O_8 
REMARK    2  A    between atoms: O_8  and  C_9 
REMARK    3  A    between atoms: C_9  and  C_10 
ROOT
HETATM    1  O   UNL     1      27.318  44.585  52.206  1.00  0.00    -0.170 OA
ENDROOT
BRANCH   1   2
HETATM    2  N   UNL     1      26.037  44.295  51.704  1.00  0.00    -0.134 NA
HETATM    3  C   UNL     1      25.893  43.063  51.344  1.00  0.00     0.043 C 
HETATM    4  C   UNL     1      26.947  41.990  51.382  1.00  0.00     0.084 C 
HETATM    5  C   UNL     1      24.605  42.673  50.670  1.00  0.00     0.084 C 
HETATM    6  C   UNL     1      27.298  41.693  49.932  1.00  0.00     0.240 C 
HETATM    7  N   UNL     1      26.043  41.328  49.147  1.00  0.00    -0.074 N 
HETATM    8  C   UNL     1      26.380  40.997  47.714  1.00  0.00     0.269 C 
HETATM    9  H   UNL     1      25.649  40.468  49.553  1.00  0.00     0.279 HD
HETATM   10  C   UNL     1      24.967  42.408  49.219  1.00  0.00     0.240 C 
ENDBRANCH   1   2
BRANCH   1  11
HETATM   11  C   UNL     1      27.190  45.174  53.439  1.00  0.00     0.317 C 
HETATM   12  O   UNL     1      26.315  45.954  53.785  1.00  0.00    -0.257 OA
BRANCH  11  13
HETATM   13  C   UNL     1      28.339  44.817  54.316  1.00  0.00     0.041 A 
HETATM   14  C   UNL     1      28.940  43.563  54.122  1.00  0.00     0.019 A 
HETATM   15  C   UNL     1      30.004  43.154  54.929  1.00  0.00     0.020 A 
HETATM   16  C   UNL     1      30.473  43.999  55.931  1.00  0.00     0.011 A 
HETATM   17 BR   UNL     1      31.903  43.442  57.033  1.00  0.00    -0.051 Br
HETATM   18  C   UNL     1      29.893  45.252  56.128  1.00  0.00     0.020 A 
HETATM   19  C   UNL     1      28.827  45.665  55.321  1.00  0.00     0.019 A 
ENDBRANCH  11  13
ENDBRANCH   1  11
TORSDOF 3
ENDMDL
MODEL 6
REMARK VINA RESULT:      -6.7     12.629     13.975
REMARK  3 active torsions:
REMARK  status: ('A' for Active; 'I' for Inactive)
REMARK    1  A    between atoms: N_7  and  O_8 
REMARK    2  A    between atoms: O_8  and  C_9 
REMARK    3  A    between atoms: C_9  and  C_10 
ROOT
HETATM    1  O   UNL     1      30.711  52.765  42.159  1.00  0.00    -0.170 OA
ENDROOT
BRANCH   1   2
HETATM    2  N   UNL     1      30.488  53.294  40.875  1.00  0.00    -0.134 NA
HETATM    3  C   UNL     1      29.262  53.187  40.483  1.00  0.00     0.043 C 
HETATM    4  C   UNL     1      28.133  52.541  41.237  1.00  0.00     0.084 C 
HETATM    5  C   UNL     1      28.937  53.601  39.072  1.00  0.00     0.084 C 
HETATM    6  C   UNL     1      27.801  51.262  40.483  1.00  0.00     0.240 C 
HETATM    7  N   UNL     1      27.499  51.570  39.022  1.00  0.00    -0.074 N 
HETATM    8  C   UNL     1      27.135  50.314  38.268  1.00  0.00     0.269 C 
HETATM    9  H   UNL     1      26.666  52.174  38.987  1.00  0.00     0.279 HD
HETATM   10  C   UNL     1      28.638  52.312  38.327  1.00  0.00     0.240 C 
ENDBRANCH   1   2
BRANCH   1  11
HETATM   11  C   UNL     1      31.745  51.865  42.096  1.00  0.00     0.317 C 
HETATM   12  O   UNL     1      32.916  52.082  42.375  1.00  0.00    -0.257 OA
BRANCH  11  13
HETATM   13  C   UNL     1      31.282  50.565  41.537  1.00  0.00     0.041 A 
HETATM   14  C   UNL     1      31.611  50.277  40.203  1.00  0.00     0.019 A 
HETATM   15  C   UNL     1      31.184  49.087  39.609  1.00  0.00     0.020 A 
HETATM   16  C   UNL     1      30.429  48.181  40.348  1.00  0.00     0.011 A 
HETATM   17 BR   UNL     1      29.838  46.577  39.542  1.00  0.00    -0.051 Br
HETATM   18  C   UNL     1      30.103  48.448  41.678  1.00  0.00     0.020 A 
HETATM   19  C   UNL     1      30.530  49.640  42.276  1.00  0.00     0.019 A 
ENDBRANCH  11  13
ENDBRANCH   1  11
TORSDOF 3
ENDMDL
MODEL 7
REMARK VINA RESULT:      -6.7      4.313      6.911
REMARK  3 active torsions:
REMARK  status: ('A' for Active; 'I' for Inactive)
REMARK    1  A    between atoms: N_7  and  O_8 
REMARK    2  A    between atoms: O_8  and  C_9 
REMARK    3  A    between atoms: C_9  and  C_10 
ROOT
HETATM    1  O   UNL     1      26.247  47.853  51.142  1.00  0.00    -0.170 OA
ENDROOT
BRANCH   1   2
HETATM    2  N   UNL     1      26.293  46.498  51.514  1.00  0.00    -0.134 NA
HETATM    3  C   UNL     1      26.167  46.311  52.786  1.00  0.00     0.043 C 
HETATM    4  C   UNL     1      26.022  47.376  53.838  1.00  0.00     0.084 C 
HETATM    5  C   UNL     1      26.333  44.910  53.311  1.00  0.00     0.084 C 
HETATM    6  C   UNL     1      27.323  47.369  54.626  1.00  0.00     0.240 C 
HETATM    7  N   UNL     1      27.608  45.973  55.166  1.00  0.00    -0.074 N 
HETATM    8  C   UNL     1      28.879  45.956  55.979  1.00  0.00     0.269 C 
HETATM    9  H   UNL     1      26.851  45.719  55.817  1.00  0.00     0.279 HD
HETATM   10  C   UNL     1      27.649  44.913  54.069  1.00  0.00     0.240 C 
ENDBRANCH   1   2
BRANCH   1  11
HETATM   11  C   UNL     1      26.240  47.939  49.772  1.00  0.00     0.317 C 
HETATM   12  O   UNL     1      27.170  47.681  49.022  1.00  0.00    -0.257 OA
BRANCH  11  13
HETATM   13  C   UNL     1      24.947  48.494  49.284  1.00  0.00     0.041 A 
HETATM   14  C   UNL     1      24.993  49.666  48.512  1.00  0.00     0.019 A 
HETATM   15  C   UNL     1      23.815  50.254  48.046  1.00  0.00     0.020 A 
HETATM   16  C   UNL     1      22.588  49.671  48.348  1.00  0.00     0.011 A 
HETATM   17 BR   UNL     1      20.991  50.472  47.730  1.00  0.00    -0.051 Br
HETATM   18  C   UNL     1      22.527  48.500  49.104  1.00  0.00     0.020 A 
HETATM   19  C   UNL     1      23.706  47.908  49.572  1.00  0.00     0.019 A 
ENDBRANCH  11  13
ENDBRANCH   1  11
TORSDOF 3
ENDMDL
MODEL 8
REMARK VINA RESULT:      -6.6     12.437     13.424
REMARK  3 active torsions:
REMARK  status: ('A' for Active; 'I' for Inactive)
REMARK    1  A    between atoms: N_7  and  O_8 
REMARK    2  A    between atoms: O_8  and  C_9 
REMARK    3  A    between atoms: C_9  and  C_10 
ROOT
HETATM    1  O   UNL     1      30.221  51.094  42.342  1.00  0.00    -0.170 OA
ENDROOT
BRANCH   1   2
HETATM    2  N   UNL     1      30.319  51.721  41.087  1.00  0.00    -0.134 NA
HETATM    3  C   UNL     1      29.173  52.030  40.577  1.00  0.00     0.043 C 
HETATM    4  C   UNL     1      27.822  51.748  41.173  1.00  0.00     0.084 C 
HETATM    5  C   UNL     1      29.153  52.586  39.179  1.00  0.00     0.084 C 
HETATM    6  C   UNL     1      27.190  50.676  40.298  1.00  0.00     0.240 C 
HETATM    7  N   UNL     1      27.164  51.128  38.843  1.00  0.00    -0.074 N 
HETATM    8  C   UNL     1      26.510  50.089  37.966  1.00  0.00     0.269 C 
HETATM    9  H   UNL     1      26.573  51.968  38.778  1.00  0.00     0.279 HD
HETATM   10  C   UNL     1      28.548  51.494  38.314  1.00  0.00     0.240 C 
ENDBRANCH   1   2
BRANCH   1  11
HETATM   11  C   UNL     1      31.182  50.118  42.429  1.00  0.00     0.317 C 
HETATM   12  O   UNL     1      31.013  48.915  42.293  1.00  0.00    -0.257 OA
BRANCH  11  13
HETATM   13  C   UNL     1      32.496  50.704  42.816  1.00  0.00     0.041 A 
HETATM   14  C   UNL     1      32.543  51.474  43.989  1.00  0.00     0.019 A 
HETATM   15  C   UNL     1      33.737  52.075  44.394  1.00  0.00     0.020 A 
HETATM   16  C   UNL     1      34.888  51.906  43.629  1.00  0.00     0.011 A 
HETATM   17 BR   UNL     1      36.501  52.729  44.168  1.00  0.00    -0.051 Br
HETATM   18  C   UNL     1      34.858  51.134  42.467  1.00  0.00     0.020 A 
HETATM   19  C   UNL     1      33.663  50.530  42.059  1.00  0.00     0.019 A 
ENDBRANCH  11  13
ENDBRANCH   1  11
TORSDOF 3
ENDMDL
MODEL 9
REMARK VINA RESULT:      -6.5      5.700      7.431
REMARK  3 active torsions:
REMARK  status: ('A' for Active; 'I' for Inactive)
REMARK    1  A    between atoms: N_7  and  O_8 
REMARK    2  A    between atoms: O_8  and  C_9 
REMARK    3  A    between atoms: C_9  and  C_10 
ROOT
HETATM    1  O   UNL     1      23.069  50.538  49.322  1.00  0.00    -0.170 OA
ENDROOT
BRANCH   1   2
HETATM    2  N   UNL     1      22.116  51.264  48.587  1.00  0.00    -0.134 NA
HETATM    3  C   UNL     1      20.939  51.249  49.117  1.00  0.00     0.043 C 
HETATM    4  C   UNL     1      20.528  50.521  50.368  1.00  0.00     0.084 C 
HETATM    5  C   UNL     1      19.812  51.884  48.346  1.00  0.00     0.084 C 
HETATM    6  C   UNL     1      19.627  49.383  49.916  1.00  0.00     0.240 C 
HETATM    7  N   UNL     1      18.470  49.920  49.082  1.00  0.00    -0.074 N 
HETATM    8  C   UNL     1      17.548  48.806  48.654  1.00  0.00     0.269 C 
HETATM    9  H   UNL     1      17.907  50.543  49.678  1.00  0.00     0.279 HD
HETATM   10  C   UNL     1      18.939  50.733  47.878  1.00  0.00     0.240 C 
ENDBRANCH   1   2
BRANCH   1  11
HETATM   11  C   UNL     1      23.965  49.969  48.452  1.00  0.00     0.317 C 
HETATM   12  O   UNL     1      24.157  50.295  47.290  1.00  0.00    -0.257 OA
BRANCH  11  13
HETATM   13  C   UNL     1      24.639  48.798  49.078  1.00  0.00     0.041 A 
HETATM   14  C   UNL     1      23.825  47.765  49.570  1.00  0.00     0.019 A 
HETATM   15  C   UNL     1      24.393  46.652  50.193  1.00  0.00     0.020 A 
HETATM   16  C   UNL     1      25.775  46.566  50.325  1.00  0.00     0.011 A 
HETATM   17 BR   UNL     1      26.545  45.067  51.180  1.00  0.00    -0.051 Br
HETATM   18  C   UNL     1      26.598  47.579  49.831  1.00  0.00     0.020 A 
HETATM   19  C   UNL     1      26.032  48.696  49.206  1.00  0.00     0.019 A 
ENDBRANCH  11  13
ENDBRANCH   1  11
TORSDOF 3
ENDMDL
MODEL 10
REMARK VINA RESULT:      -6.5     13.293     14.499
REMARK  3 active torsions:
REMARK  status: ('A' for Active; 'I' for Inactive)
REMARK    1  A    between atoms: N_7  and  O_8 
REMARK    2  A    between atoms: O_8  and  C_9 
REMARK    3  A    between atoms: C_9  and  C_10 
ROOT
HETATM    1  O   UNL     1      32.728  52.421  41.427  1.00  0.00    -0.170 OA
ENDROOT
BRANCH   1   2
HETATM    2  N   UNL     1      31.874  53.171  40.600  1.00  0.00    -0.134 NA
HETATM    3  C   UNL     1      30.646  53.174  41.001  1.00  0.00     0.043 C 
HETATM    4  C   UNL     1      30.090  52.443  42.192  1.00  0.00     0.084 C 
HETATM    5  C   UNL     1      29.620  53.836  40.120  1.00  0.00     0.084 C 
HETATM    6  C   UNL     1      29.223  51.326  41.634  1.00  0.00     0.240 C 
HETATM    7  N   UNL     1      28.172  51.892  40.686  1.00  0.00    -0.074 N 
HETATM    8  C   UNL     1      27.282  50.798  40.150  1.00  0.00     0.269 C 
HETATM    9  H   UNL     1      27.559  52.520  41.225  1.00  0.00     0.279 HD
HETATM   10  C   UNL     1      28.782  52.705  39.548  1.00  0.00     0.240 C 
ENDBRANCH   1   2
BRANCH   1  11
HETATM   11  C   UNL     1      33.399  51.502  40.658  1.00  0.00     0.317 C 
HETATM   12  O   UNL     1      34.531  51.615  40.211  1.00  0.00    -0.257 OA
BRANCH  11  13
HETATM   13  C   UNL     1      32.521  50.343  40.335  1.00  0.00     0.041 A 
HETATM   14  C   UNL     1      32.492  49.276  41.247  1.00  0.00     0.019 A 
HETATM   15  C   UNL     1      31.712  48.146  40.992  1.00  0.00     0.020 A 
HETATM   16  C   UNL     1      30.955  48.081  39.826  1.00  0.00     0.011 A 
HETATM   17 BR   UNL     1      29.909  46.548  39.471  1.00  0.00    -0.051 Br
HETATM   18  C   UNL     1      30.965  49.138  38.915  1.00  0.00     0.020 A 
HETATM   19  C   UNL     1      31.746  50.272  39.169  1.00  0.00     0.019 A 
ENDBRANCH  11  13
ENDBRANCH   1  11
TORSDOF 3
ENDMDL
