MODEL 1
REMARK VINA RESULT:     -10.5      0.000      0.000
REMARK  3 active torsions:
REMARK  status: ('A' for Active; 'I' for Inactive)
REMARK    1  A    between atoms: N_7  and  N_8 
REMARK       I    between atoms: N_8  and  C_9 
REMARK    2  A    between atoms: C_9  and  C_10 
REMARK    3  A    between atoms: C_14  and  C_15 
ROOT
HETATM    1  N   UNL     1      25.604  45.750  51.419  1.00  0.00    -0.241 N 
HETATM    2  C   UNL     1      26.163  44.481  51.339  1.00  0.00     0.289 C 
HETATM    3  O   UNL     1      25.776  43.593  50.586  1.00  0.00    -0.264 OA
HETATM    4  H   UNL     1      25.834  46.329  52.210  1.00  0.00     0.192 HD
ENDROOT
BRANCH   2   5
HETATM    5  C   UNL     1      27.264  44.259  52.243  1.00  0.00     0.121 A 
HETATM    6  N   UNL     1      28.359  43.535  51.862  1.00  0.00    -0.272 N 
HETATM    7  H   UNL     1      28.511  43.095  50.958  1.00  0.00     0.189 HD
HETATM    8  N   UNL     1      29.295  43.412  52.814  1.00  0.00    -0.174 NA
HETATM    9  C   UNL     1      28.825  44.127  53.848  1.00  0.00     0.089 A 
HETATM   10  C   UNL     1      27.543  44.660  53.534  1.00  0.00     0.071 A 
BRANCH   9  11
HETATM   11  C   UNL     1      29.593  44.284  55.086  1.00  0.00    -0.005 A 
HETATM   12  C   UNL     1      29.404  45.400  55.918  1.00  0.00     0.017 A 
HETATM   13  C   UNL     1      30.146  45.542  57.095  1.00  0.00     0.043 A 
HETATM   14  C   UNL     1      31.078  44.570  57.442  1.00  0.00     0.116 A 
HETATM   15  F   UNL     1      31.786  44.710  58.570  1.00  0.00    -0.206 F 
HETATM   16  C   UNL     1      31.284  43.460  56.635  1.00  0.00     0.043 A 
HETATM   17  C   UNL     1      30.546  43.319  55.458  1.00  0.00     0.017 A 
ENDBRANCH   9  11
ENDBRANCH   2   5
BRANCH   1  18
HETATM   18  N   UNL     1      24.504  46.054  50.678  1.00  0.00    -0.165 NA
HETATM   19  C   UNL     1      24.509  47.081  49.888  1.00  0.00     0.157 A 
HETATM   20  C   UNL     1      25.534  48.056  49.483  1.00  0.00     0.027 A 
HETATM   21  C   UNL     1      23.218  47.507  49.152  1.00  0.00     0.277 A 
HETATM   22  C   UNL     1      26.893  48.161  49.723  1.00  0.00     0.016 A 
HETATM   23  C   UNL     1      24.884  48.982  48.661  1.00  0.00     0.048 A 
HETATM   24  C   UNL     1      27.575  49.249  49.163  1.00  0.00     0.001 A 
HETATM   25  C   UNL     1      26.904  50.191  48.363  1.00  0.00     0.002 A 
HETATM   26  C   UNL     1      25.540  50.057  48.096  1.00  0.00     0.030 A 
HETATM   27  N   UNL     1      23.545  48.660  48.480  1.00  0.00    -0.321 N 
HETATM   28  H   UNL     1      22.882  49.159  47.906  1.00  0.00     0.169 HD
HETATM   29  O   UNL     1      22.148  46.942  49.178  1.00  0.00    -0.266 OA
ENDBRANCH   1  18
TORSDOF 3
ENDMDL
MODEL 2
REMARK VINA RESULT:      -9.8      3.910      8.892
REMARK  3 active torsions:
REMARK  status: ('A' for Active; 'I' for Inactive)
REMARK    1  A    between atoms: N_7  and  N_8 
REMARK       I    between atoms: N_8  and  C_9 
REMARK    2  A    between atoms: C_9  and  C_10 
REMARK    3  A    between atoms: C_14  and  C_15 
ROOT
HETATM    1  N   UNL     1      26.045  44.581  51.582  1.00  0.00    -0.241 N 
HETATM    2  C   UNL     1      26.444  45.116  50.364  1.00  0.00     0.289 C 
HETATM    3  O   UNL     1      27.261  44.600  49.608  1.00  0.00    -0.264 OA
HETATM    4  H   UNL     1      25.550  45.172  52.230  1.00  0.00     0.192 HD
ENDROOT
BRANCH   2   5
HETATM    5  C   UNL     1      25.821  46.374  50.035  1.00  0.00     0.121 A 
HETATM    6  N   UNL     1      26.561  47.512  49.876  1.00  0.00    -0.272 N 
HETATM    7  H   UNL     1      27.570  47.598  49.969  1.00  0.00     0.189 HD
HETATM    8  N   UNL     1      25.838  48.601  49.577  1.00  0.00    -0.174 NA
HETATM    9  C   UNL     1      24.575  48.156  49.483  1.00  0.00     0.089 A 
HETATM   10  C   UNL     1      24.521  46.765  49.781  1.00  0.00     0.071 A 
BRANCH   9  11
HETATM   11  C   UNL     1      23.471  49.048  49.117  1.00  0.00    -0.005 A 
HETATM   12  C   UNL     1      22.145  48.584  49.091  1.00  0.00     0.017 A 
HETATM   13  C   UNL     1      21.100  49.443  48.736  1.00  0.00     0.043 A 
HETATM   14  C   UNL     1      21.378  50.765  48.406  1.00  0.00     0.116 A 
HETATM   15  F   UNL     1      20.374  51.583  48.066  1.00  0.00    -0.206 F 
HETATM   16  C   UNL     1      22.680  51.245  48.422  1.00  0.00     0.043 A 
HETATM   17  C   UNL     1      23.725  50.387  48.774  1.00  0.00     0.017 A 
ENDBRANCH   9  11
ENDBRANCH   2   5
BRANCH   1  18
HETATM   18  N   UNL     1      26.625  43.440  52.044  1.00  0.00    -0.165 NA
HETATM   19  C   UNL     1      27.482  43.485  53.014  1.00  0.00     0.157 A 
HETATM   20  C   UNL     1      27.980  44.558  53.891  1.00  0.00     0.027 A 
HETATM   21  C   UNL     1      28.242  42.211  53.446  1.00  0.00     0.277 A 
HETATM   22  C   UNL     1      27.630  45.886  54.059  1.00  0.00     0.016 A 
HETATM   23  C   UNL     1      28.969  43.976  54.689  1.00  0.00     0.048 A 
HETATM   24  C   UNL     1      28.334  46.633  55.012  1.00  0.00     0.001 A 
HETATM   25  C   UNL     1      29.349  46.045  55.789  1.00  0.00     0.002 A 
HETATM   26  C   UNL     1      29.670  44.695  55.637  1.00  0.00     0.030 A 
HETATM   27  N   UNL     1      29.118  42.622  54.422  1.00  0.00    -0.321 N 
HETATM   28  H   UNL     1      29.745  41.985  54.890  1.00  0.00     0.169 HD
HETATM   29  O   UNL     1      28.096  41.094  53.004  1.00  0.00    -0.266 OA
ENDBRANCH   1  18
TORSDOF 3
ENDMDL
MODEL 3
REMARK VINA RESULT:      -9.7      2.057      2.526
REMARK  3 active torsions:
REMARK  status: ('A' for Active; 'I' for Inactive)
REMARK    1  A    between atoms: N_7  and  N_8 
REMARK       I    between atoms: N_8  and  C_9 
REMARK    2  A    between atoms: C_9  and  C_10 
REMARK    3  A    between atoms: C_14  and  C_15 
ROOT
HETATM    1  N   UNL     1      25.676  42.934  51.470  1.00  0.00    -0.241 N 
HETATM    2  C   UNL     1      26.996  42.802  51.059  1.00  0.00     0.289 C 
HETATM    3  O   UNL     1      27.350  42.598  49.901  1.00  0.00    -0.264 OA
HETATM    4  H   UNL     1      25.470  42.875  52.454  1.00  0.00     0.192 HD
ENDROOT
BRANCH   2   5
HETATM    5  C   UNL     1      27.964  42.913  52.121  1.00  0.00     0.121 A 
HETATM    6  N   UNL     1      29.137  42.214  52.087  1.00  0.00    -0.272 N 
HETATM    7  H   UNL     1      29.441  41.573  51.358  1.00  0.00     0.189 HD
HETATM    8  N   UNL     1      29.930  42.418  53.149  1.00  0.00    -0.174 NA
HETATM    9  C   UNL     1      29.279  43.329  53.889  1.00  0.00     0.089 A 
HETATM   10  C   UNL     1      28.031  43.652  53.286  1.00  0.00     0.071 A 
BRANCH   9  11
HETATM   11  C   UNL     1      29.851  43.861  55.130  1.00  0.00    -0.005 A 
HETATM   12  C   UNL     1      29.419  45.090  55.656  1.00  0.00     0.017 A 
HETATM   13  C   UNL     1      29.975  45.591  56.838  1.00  0.00     0.043 A 
HETATM   14  C   UNL     1      30.962  44.865  57.495  1.00  0.00     0.116 A 
HETATM   15  F   UNL     1      31.491  45.348  58.626  1.00  0.00    -0.206 F 
HETATM   16  C   UNL     1      31.406  43.650  56.993  1.00  0.00     0.043 A 
HETATM   17  C   UNL     1      30.854  43.150  55.811  1.00  0.00     0.017 A 
ENDBRANCH   9  11
ENDBRANCH   2   5
BRANCH   1  18
HETATM   18  N   UNL     1      24.666  42.764  50.575  1.00  0.00    -0.165 NA
HETATM   19  C   UNL     1      24.105  43.790  50.016  1.00  0.00     0.157 A 
HETATM   20  C   UNL     1      24.362  45.239  50.043  1.00  0.00     0.027 A 
HETATM   21  C   UNL     1      22.869  43.606  49.106  1.00  0.00     0.277 A 
HETATM   22  C   UNL     1      25.366  46.015  50.597  1.00  0.00     0.016 A 
HETATM   23  C   UNL     1      23.342  45.827  49.290  1.00  0.00     0.048 A 
HETATM   24  C   UNL     1      25.292  47.403  50.421  1.00  0.00     0.001 A 
HETATM   25  C   UNL     1      24.244  47.986  49.686  1.00  0.00     0.002 A 
HETATM   26  C   UNL     1      23.257  47.192  49.101  1.00  0.00     0.030 A 
HETATM   27  N   UNL     1      22.481  44.877  48.756  1.00  0.00    -0.321 N 
HETATM   28  H   UNL     1      21.691  45.056  48.155  1.00  0.00     0.169 HD
HETATM   29  O   UNL     1      22.354  42.559  48.784  1.00  0.00    -0.266 OA
ENDBRANCH   1  18
TORSDOF 3
ENDMDL
MODEL 4
REMARK VINA RESULT:      -9.3      3.999      9.002
REMARK  3 active torsions:
REMARK  status: ('A' for Active; 'I' for Inactive)
REMARK    1  A    between atoms: N_7  and  N_8 
REMARK       I    between atoms: N_8  and  C_9 
REMARK    2  A    between atoms: C_9  and  C_10 
REMARK    3  A    between atoms: C_14  and  C_15 
ROOT
HETATM    1  N   UNL     1      26.535  44.231  50.015  1.00  0.00    -0.241 N 
HETATM    2  C   UNL     1      25.177  44.477  50.173  1.00  0.00     0.289 C 
HETATM    3  O   UNL     1      24.337  43.621  50.430  1.00  0.00    -0.264 OA
HETATM    4  H   UNL     1      27.108  44.941  49.589  1.00  0.00     0.192 HD
ENDROOT
BRANCH   2   5
HETATM    5  C   UNL     1      24.799  45.857  49.998  1.00  0.00     0.121 A 
HETATM    6  N   UNL     1      25.696  46.869  50.196  1.00  0.00    -0.272 N 
HETATM    7  H   UNL     1      26.669  46.772  50.477  1.00  0.00     0.189 HD
HETATM    8  N   UNL     1      25.193  48.096  49.999  1.00  0.00    -0.174 NA
HETATM    9  C   UNL     1      23.928  47.886  49.604  1.00  0.00     0.089 A 
HETATM   10  C   UNL     1      23.637  46.492  49.607  1.00  0.00     0.071 A 
BRANCH   9  11
HETATM   11  C   UNL     1      23.043  48.995  49.237  1.00  0.00    -0.005 A 
HETATM   12  C   UNL     1      23.564  50.250  48.883  1.00  0.00     0.017 A 
HETATM   13  C   UNL     1      22.710  51.303  48.539  1.00  0.00     0.043 A 
HETATM   14  C   UNL     1      21.334  51.104  48.549  1.00  0.00     0.116 A 
HETATM   15  F   UNL     1      20.520  52.114  48.220  1.00  0.00    -0.206 F 
HETATM   16  C   UNL     1      20.795  49.873  48.898  1.00  0.00     0.043 A 
HETATM   17  C   UNL     1      21.647  48.822  49.245  1.00  0.00     0.017 A 
ENDBRANCH   9  11
ENDBRANCH   2   5
BRANCH   1  18
HETATM   18  N   UNL     1      27.004  42.955  50.071  1.00  0.00    -0.165 NA
HETATM   19  C   UNL     1      27.733  42.567  51.069  1.00  0.00     0.157 A 
HETATM   20  C   UNL     1      28.160  43.196  52.330  1.00  0.00     0.027 A 
HETATM   21  C   UNL     1      28.379  41.163  51.068  1.00  0.00     0.277 A 
HETATM   22  C   UNL     1      27.848  44.395  52.948  1.00  0.00     0.016 A 
HETATM   23  C   UNL     1      29.017  42.280  52.948  1.00  0.00     0.048 A 
HETATM   24  C   UNL     1      28.457  44.676  54.177  1.00  0.00     0.001 A 
HETATM   25  C   UNL     1      29.340  43.760  54.776  1.00  0.00     0.002 A 
HETATM   26  C   UNL     1      29.621  42.537  54.163  1.00  0.00     0.030 A 
HETATM   27  N   UNL     1      29.141  41.111  52.210  1.00  0.00    -0.321 N 
HETATM   28  H   UNL     1      29.678  40.295  52.466  1.00  0.00     0.169 HD
HETATM   29  O   UNL     1      28.243  40.303  50.227  1.00  0.00    -0.266 OA
ENDBRANCH   1  18
TORSDOF 3
ENDMDL
MODEL 5
REMARK VINA RESULT:      -9.2      4.824      7.982
REMARK  3 active torsions:
REMARK  status: ('A' for Active; 'I' for Inactive)
REMARK    1  A    between atoms: N_7  and  N_8 
REMARK       I    between atoms: N_8  and  C_9 
REMARK    2  A    between atoms: C_9  and  C_10 
REMARK    3  A    between atoms: C_14  and  C_15 
ROOT
HETATM    1  N   UNL     1      26.923  44.755  52.618  1.00  0.00    -0.241 N 
HETATM    2  C   UNL     1      25.777  43.978  52.501  1.00  0.00     0.289 C 
HETATM    3  O   UNL     1      24.733  44.177  53.114  1.00  0.00    -0.264 OA
HETATM    4  H   UNL     1      27.790  44.392  52.256  1.00  0.00     0.192 HD
ENDROOT
BRANCH   2   5
HETATM    5  C   UNL     1      25.900  42.871  51.587  1.00  0.00     0.121 A 
HETATM    6  N   UNL     1      24.823  42.407  50.885  1.00  0.00    -0.272 N 
HETATM    7  H   UNL     1      23.871  42.764  50.928  1.00  0.00     0.189 HD
HETATM    8  N   UNL     1      25.096  41.370  50.080  1.00  0.00    -0.174 NA
HETATM    9  C   UNL     1      26.416  41.174  50.214  1.00  0.00     0.089 A 
HETATM   10  C   UNL     1      26.955  42.085  51.166  1.00  0.00     0.071 A 
BRANCH   9  11
HETATM   11  C   UNL     1      27.122  40.143  49.447  1.00  0.00    -0.005 A 
HETATM   12  C   UNL     1      28.504  39.945  49.602  1.00  0.00     0.017 A 
HETATM   13  C   UNL     1      29.167  38.961  48.861  1.00  0.00     0.043 A 
HETATM   14  C   UNL     1      28.452  38.175  47.965  1.00  0.00     0.116 A 
HETATM   15  F   UNL     1      29.091  37.235  47.258  1.00  0.00    -0.206 F 
HETATM   16  C   UNL     1      27.086  38.354  47.793  1.00  0.00     0.043 A 
HETATM   17  C   UNL     1      26.423  39.338  48.530  1.00  0.00     0.017 A 
ENDBRANCH   9  11
ENDBRANCH   2   5
BRANCH   1  18
HETATM   18  N   UNL     1      26.960  45.778  53.514  1.00  0.00    -0.165 NA
HETATM   19  C   UNL     1      27.814  45.766  54.488  1.00  0.00     0.157 A 
HETATM   20  C   UNL     1      28.924  44.876  54.866  1.00  0.00     0.027 A 
HETATM   21  C   UNL     1      27.766  46.857  55.582  1.00  0.00     0.277 A 
HETATM   22  C   UNL     1      29.519  43.787  54.254  1.00  0.00     0.016 A 
HETATM   23  C   UNL     1      29.412  45.363  56.083  1.00  0.00     0.048 A 
HETATM   24  C   UNL     1      30.583  43.164  54.917  1.00  0.00     0.001 A 
HETATM   25  C   UNL     1      31.046  43.643  56.156  1.00  0.00     0.002 A 
HETATM   26  C   UNL     1      30.463  44.765  56.748  1.00  0.00     0.030 A 
HETATM   27  N   UNL     1      28.734  46.503  56.492  1.00  0.00    -0.321 N 
HETATM   28  H   UNL     1      28.926  47.049  57.318  1.00  0.00     0.169 HD
HETATM   29  O   UNL     1      27.022  47.810  55.625  1.00  0.00    -0.266 OA
ENDBRANCH   1  18
TORSDOF 3
ENDMDL
MODEL 6
REMARK VINA RESULT:      -8.8      2.564      3.430
REMARK  3 active torsions:
REMARK  status: ('A' for Active; 'I' for Inactive)
REMARK    1  A    between atoms: N_7  and  N_8 
REMARK       I    between atoms: N_8  and  C_9 
REMARK    2  A    between atoms: C_9  and  C_10 
REMARK    3  A    between atoms: C_14  and  C_15 
ROOT
HETATM    1  N   UNL     1      23.184  45.726  49.677  1.00  0.00    -0.241 N 
HETATM    2  C   UNL     1      24.330  44.964  49.490  1.00  0.00     0.289 C 
HETATM    3  O   UNL     1      24.591  44.334  48.470  1.00  0.00    -0.264 OA
HETATM    4  H   UNL     1      22.948  46.020  50.611  1.00  0.00     0.192 HD
ENDROOT
BRANCH   2   5
HETATM    5  C   UNL     1      25.225  44.948  50.620  1.00  0.00     0.121 A 
HETATM    6  N   UNL     1      24.962  45.681  51.743  1.00  0.00    -0.272 N 
HETATM    7  H   UNL     1      24.160  46.287  51.899  1.00  0.00     0.189 HD
HETATM    8  N   UNL     1      25.890  45.566  52.704  1.00  0.00    -0.174 NA
HETATM    9  C   UNL     1      26.774  44.681  52.219  1.00  0.00     0.089 A 
HETATM   10  C   UNL     1      26.400  44.282  50.905  1.00  0.00     0.071 A 
BRANCH   9  11
HETATM   11  C   UNL     1      27.932  44.242  53.004  1.00  0.00    -0.005 A 
HETATM   12  C   UNL     1      28.173  44.759  54.288  1.00  0.00     0.017 A 
HETATM   13  C   UNL     1      29.283  44.337  55.026  1.00  0.00     0.043 A 
HETATM   14  C   UNL     1      30.154  43.399  54.484  1.00  0.00     0.116 A 
HETATM   15  F   UNL     1      31.216  42.997  55.194  1.00  0.00    -0.206 F 
HETATM   16  C   UNL     1      29.938  42.876  53.216  1.00  0.00     0.043 A 
HETATM   17  C   UNL     1      28.831  43.299  52.477  1.00  0.00     0.017 A 
ENDBRANCH   9  11
ENDBRANCH   2   5
BRANCH   1  18
HETATM   18  N   UNL     1      22.222  45.752  48.716  1.00  0.00    -0.165 NA
HETATM   19  C   UNL     1      21.764  46.880  48.275  1.00  0.00     0.157 A 
HETATM   20  C   UNL     1      22.113  48.290  48.515  1.00  0.00     0.027 A 
HETATM   21  C   UNL     1      20.577  46.910  47.285  1.00  0.00     0.277 A 
HETATM   22  C   UNL     1      23.128  48.911  49.221  1.00  0.00     0.016 A 
HETATM   23  C   UNL     1      21.181  49.047  47.798  1.00  0.00     0.048 A 
HETATM   24  C   UNL     1      23.156  50.311  49.235  1.00  0.00     0.001 A 
HETATM   25  C   UNL     1      22.195  51.062  48.534  1.00  0.00     0.002 A 
HETATM   26  C   UNL     1      21.196  50.427  47.794  1.00  0.00     0.030 A 
HETATM   27  N   UNL     1      20.294  48.241  47.095  1.00  0.00    -0.321 N 
HETATM   28  H   UNL     1      19.555  48.556  46.484  1.00  0.00     0.169 HD
HETATM   29  O   UNL     1      20.016  45.956  46.797  1.00  0.00    -0.266 OA
ENDBRANCH   1  18
TORSDOF 3
ENDMDL
MODEL 7
REMARK VINA RESULT:      -8.6      3.894      6.214
REMARK  3 active torsions:
REMARK  status: ('A' for Active; 'I' for Inactive)
REMARK    1  A    between atoms: N_7  and  N_8 
REMARK       I    between atoms: N_8  and  C_9 
REMARK    2  A    between atoms: C_9  and  C_10 
REMARK    3  A    between atoms: C_14  and  C_15 
ROOT
HETATM    1  N   UNL     1      20.844  47.140  48.841  1.00  0.00    -0.241 N 
HETATM    2  C   UNL     1      22.111  47.068  48.275  1.00  0.00     0.289 C 
HETATM    3  O   UNL     1      22.337  47.056  47.069  1.00  0.00    -0.264 OA
HETATM    4  H   UNL     1      20.739  46.920  49.818  1.00  0.00     0.192 HD
ENDROOT
BRANCH   2   5
HETATM    5  C   UNL     1      23.186  46.991  49.233  1.00  0.00     0.121 A 
HETATM    6  N   UNL     1      23.669  48.111  49.848  1.00  0.00    -0.272 N 
HETATM    7  H   UNL     1      23.349  49.067  49.708  1.00  0.00     0.189 HD
HETATM    8  N   UNL     1      24.672  47.878  50.707  1.00  0.00    -0.174 NA
HETATM    9  C   UNL     1      24.823  46.545  50.699  1.00  0.00     0.089 A 
HETATM   10  C   UNL     1      23.919  45.953  49.772  1.00  0.00     0.071 A 
BRANCH   9  11
HETATM   11  C   UNL     1      25.804  45.877  51.560  1.00  0.00    -0.005 A 
HETATM   12  C   UNL     1      26.573  44.803  51.082  1.00  0.00     0.017 A 
HETATM   13  C   UNL     1      27.504  44.172  51.914  1.00  0.00     0.043 A 
HETATM   14  C   UNL     1      27.667  44.611  53.222  1.00  0.00     0.116 A 
HETATM   15  F   UNL     1      28.558  44.003  54.015  1.00  0.00    -0.206 F 
HETATM   16  C   UNL     1      26.916  45.668  53.718  1.00  0.00     0.043 A 
HETATM   17  C   UNL     1      25.985  46.298  52.889  1.00  0.00     0.017 A 
ENDBRANCH   9  11
ENDBRANCH   2   5
BRANCH   1  18
HETATM   18  N   UNL     1      19.743  47.131  48.043  1.00  0.00    -0.165 NA
HETATM   19  C   UNL     1      19.118  48.233  47.774  1.00  0.00     0.157 A 
HETATM   20  C   UNL     1      19.367  49.652  48.077  1.00  0.00     0.027 A 
HETATM   21  C   UNL     1      17.791  48.206  46.982  1.00  0.00     0.277 A 
HETATM   22  C   UNL     1      20.420  50.326  48.672  1.00  0.00     0.016 A 
HETATM   23  C   UNL     1      18.266  50.354  47.577  1.00  0.00     0.048 A 
HETATM   24  C   UNL     1      20.319  51.716  48.799  1.00  0.00     0.001 A 
HETATM   25  C   UNL     1      19.193  52.409  48.319  1.00  0.00     0.002 A 
HETATM   26  C   UNL     1      18.152  51.725  47.688  1.00  0.00     0.030 A 
HETATM   27  N   UNL     1      17.358  49.511  46.950  1.00  0.00    -0.321 N 
HETATM   28  H   UNL     1      16.505  49.787  46.488  1.00  0.00     0.169 HD
HETATM   29  O   UNL     1      17.250  47.235  46.505  1.00  0.00    -0.266 OA
ENDBRANCH   1  18
TORSDOF 3
ENDMDL
MODEL 8
REMARK VINA RESULT:      -8.6      3.656      8.707
REMARK  3 active torsions:
REMARK  status: ('A' for Active; 'I' for Inactive)
REMARK    1  A    between atoms: N_7  and  N_8 
REMARK       I    between atoms: N_8  and  C_9 
REMARK    2  A    between atoms: C_9  and  C_10 
REMARK    3  A    between atoms: C_14  and  C_15 
ROOT
HETATM    1  N   UNL     1      27.416  44.388  51.611  1.00  0.00    -0.241 N 
HETATM    2  C   UNL     1      26.470  43.868  50.738  1.00  0.00     0.289 C 
HETATM    3  O   UNL     1      26.408  42.691  50.395  1.00  0.00    -0.264 OA
HETATM    4  H   UNL     1      27.530  45.387  51.659  1.00  0.00     0.192 HD
ENDROOT
BRANCH   2   5
HETATM    5  C   UNL     1      25.533  44.839  50.230  1.00  0.00     0.121 A 
HETATM    6  N   UNL     1      24.272  44.475  49.847  1.00  0.00    -0.272 N 
HETATM    7  H   UNL     1      23.877  43.538  49.870  1.00  0.00     0.189 HD
HETATM    8  N   UNL     1      23.522  45.489  49.392  1.00  0.00    -0.174 NA
HETATM    9  C   UNL     1      24.299  46.575  49.528  1.00  0.00     0.089 A 
HETATM   10  C   UNL     1      25.576  46.205  50.035  1.00  0.00     0.071 A 
BRANCH   9  11
HETATM   11  C   UNL     1      23.815  47.915  49.181  1.00  0.00    -0.005 A 
HETATM   12  C   UNL     1      24.712  48.970  48.949  1.00  0.00     0.017 A 
HETATM   13  C   UNL     1      24.239  50.245  48.623  1.00  0.00     0.043 A 
HETATM   14  C   UNL     1      22.870  50.468  48.528  1.00  0.00     0.116 A 
HETATM   15  F   UNL     1      22.422  51.690  48.215  1.00  0.00    -0.206 F 
HETATM   16  C   UNL     1      21.964  49.440  48.754  1.00  0.00     0.043 A 
HETATM   17  C   UNL     1      22.435  48.168  49.083  1.00  0.00     0.017 A 
ENDBRANCH   9  11
ENDBRANCH   2   5
BRANCH   1  18
HETATM   18  N   UNL     1      28.407  43.589  52.092  1.00  0.00    -0.165 NA
HETATM   19  C   UNL     1      28.940  43.829  53.248  1.00  0.00     0.157 A 
HETATM   20  C   UNL     1      28.663  44.796  54.322  1.00  0.00     0.027 A 
HETATM   21  C   UNL     1      30.156  43.007  53.734  1.00  0.00     0.277 A 
HETATM   22  C   UNL     1      27.663  45.731  54.525  1.00  0.00     0.016 A 
HETATM   23  C   UNL     1      29.657  44.598  55.286  1.00  0.00     0.048 A 
HETATM   24  C   UNL     1      27.713  46.501  55.693  1.00  0.00     0.001 A 
HETATM   25  C   UNL     1      28.735  46.314  56.642  1.00  0.00     0.002 A 
HETATM   26  C   UNL     1      29.719  45.344  56.447  1.00  0.00     0.030 A 
HETATM   27  N   UNL     1      30.518  43.567  54.935  1.00  0.00    -0.321 N 
HETATM   28  H   UNL     1      31.291  43.220  55.483  1.00  0.00     0.169 HD
HETATM   29  O   UNL     1      30.678  42.076  53.162  1.00  0.00    -0.266 OA
ENDBRANCH   1  18
TORSDOF 3
ENDMDL
MODEL 9
REMARK VINA RESULT:      -8.4      4.978      9.782
REMARK  3 active torsions:
REMARK  status: ('A' for Active; 'I' for Inactive)
REMARK    1  A    between atoms: N_7  and  N_8 
REMARK       I    between atoms: N_8  and  C_9 
REMARK    2  A    between atoms: C_9  and  C_10 
REMARK    3  A    between atoms: C_14  and  C_15 
ROOT
HETATM    1  N   UNL     1      23.160  45.097  49.960  1.00  0.00    -0.241 N 
HETATM    2  C   UNL     1      22.864  45.758  48.775  1.00  0.00     0.289 C 
HETATM    3  O   UNL     1      22.986  45.272  47.655  1.00  0.00    -0.264 OA
HETATM    4  H   UNL     1      23.245  45.637  50.806  1.00  0.00     0.192 HD
ENDROOT
BRANCH   2   5
HETATM    5  C   UNL     1      22.395  47.110  48.950  1.00  0.00     0.121 A 
HETATM    6  N   UNL     1      23.265  48.137  49.185  1.00  0.00    -0.272 N 
HETATM    7  H   UNL     1      24.277  48.070  49.263  1.00  0.00     0.189 HD
HETATM    8  N   UNL     1      22.677  49.333  49.330  1.00  0.00    -0.174 NA
HETATM    9  C   UNL     1      21.371  49.097  49.131  1.00  0.00     0.089 A 
HETATM   10  C   UNL     1      21.152  47.708  48.907  1.00  0.00     0.071 A 
BRANCH   9  11
HETATM   11  C   UNL     1      20.382  50.178  49.158  1.00  0.00    -0.005 A 
HETATM   12  C   UNL     1      20.513  51.299  48.321  1.00  0.00     0.017 A 
HETATM   13  C   UNL     1      19.565  52.327  48.358  1.00  0.00     0.043 A 
HETATM   14  C   UNL     1      18.486  52.237  49.230  1.00  0.00     0.116 A 
HETATM   15  F   UNL     1      17.581  53.223  49.262  1.00  0.00    -0.206 F 
HETATM   16  C   UNL     1      18.336  51.140  50.068  1.00  0.00     0.043 A 
HETATM   17  C   UNL     1      19.284  50.114  50.034  1.00  0.00     0.017 A 
ENDBRANCH   9  11
ENDBRANCH   2   5
BRANCH   1  18
HETATM   18  N   UNL     1      23.692  43.845  49.924  1.00  0.00    -0.165 NA
HETATM   19  C   UNL     1      24.672  43.525  50.708  1.00  0.00     0.157 A 
HETATM   20  C   UNL     1      25.377  44.216  51.800  1.00  0.00     0.027 A 
HETATM   21  C   UNL     1      25.365  42.150  50.573  1.00  0.00     0.277 A 
HETATM   22  C   UNL     1      25.174  45.422  52.449  1.00  0.00     0.016 A 
HETATM   23  C   UNL     1      26.408  43.360  52.197  1.00  0.00     0.048 A 
HETATM   24  C   UNL     1      26.064  45.773  53.472  1.00  0.00     0.001 A 
HETATM   25  C   UNL     1      27.116  44.917  53.843  1.00  0.00     0.002 A 
HETATM   26  C   UNL     1      27.291  43.686  53.207  1.00  0.00     0.030 A 
HETATM   27  N   UNL     1      26.397  42.171  51.480  1.00  0.00    -0.321 N 
HETATM   28  H   UNL     1      27.022  41.389  51.607  1.00  0.00     0.169 HD
HETATM   29  O   UNL     1      25.061  41.256  49.816  1.00  0.00    -0.266 OA
ENDBRANCH   1  18
TORSDOF 3
ENDMDL
MODEL 10
REMARK VINA RESULT:      -8.4     11.866     13.561
REMARK  3 active torsions:
REMARK  status: ('A' for Active; 'I' for Inactive)
REMARK    1  A    between atoms: N_7  and  N_8 
REMARK       I    between atoms: N_8  and  C_9 
REMARK    2  A    between atoms: C_9  and  C_10 
REMARK    3  A    between atoms: C_14  and  C_15 
ROOT
HETATM    1  N   UNL     1      32.938  50.879  43.094  1.00  0.00    -0.241 N 
HETATM    2  C   UNL     1      34.048  50.869  42.259  1.00  0.00     0.289 C 
HETATM    3  O   UNL     1      34.156  50.181  41.249  1.00  0.00    -0.264 OA
HETATM    4  H   UNL     1      33.026  51.296  44.007  1.00  0.00     0.192 HD
ENDROOT
BRANCH   2   5
HETATM    5  C   UNL     1      35.115  51.744  42.677  1.00  0.00     0.121 A 
HETATM    6  N   UNL     1      35.765  52.547  41.783  1.00  0.00    -0.272 N 
HETATM    7  H   UNL     1      35.587  52.612  40.784  1.00  0.00     0.189 HD
HETATM    8  N   UNL     1      36.736  53.298  42.323  1.00  0.00    -0.174 NA
HETATM    9  C   UNL     1      36.691  53.020  43.635  1.00  0.00     0.089 A 
HETATM   10  C   UNL     1      35.697  52.035  43.895  1.00  0.00     0.071 A 
BRANCH   9  11
HETATM   11  C   UNL     1      37.577  53.688  44.593  1.00  0.00    -0.005 A 
HETATM   12  C   UNL     1      38.009  55.007  44.380  1.00  0.00     0.017 A 
HETATM   13  C   UNL     1      38.859  55.633  45.299  1.00  0.00     0.043 A 
HETATM   14  C   UNL     1      39.277  54.942  46.430  1.00  0.00     0.116 A 
HETATM   15  F   UNL     1      40.090  55.544  47.307  1.00  0.00    -0.206 F 
HETATM   16  C   UNL     1      38.865  53.636  46.660  1.00  0.00     0.043 A 
HETATM   17  C   UNL     1      38.020  53.010  45.742  1.00  0.00     0.017 A 
ENDBRANCH   9  11
ENDBRANCH   2   5
BRANCH   1  18
HETATM   18  N   UNL     1      31.901  50.033  42.854  1.00  0.00    -0.165 NA
HETATM   19  C   UNL     1      30.862  50.439  42.195  1.00  0.00     0.157 A 
HETATM   20  C   UNL     1      30.517  51.688  41.496  1.00  0.00     0.027 A 
HETATM   21  C   UNL     1      29.627  49.523  42.040  1.00  0.00     0.277 A 
HETATM   22  C   UNL     1      31.225  52.841  41.205  1.00  0.00     0.016 A 
HETATM   23  C   UNL     1      29.200  51.532  41.053  1.00  0.00     0.048 A 
HETATM   24  C   UNL     1      30.563  53.856  40.504  1.00  0.00     0.001 A 
HETATM   25  C   UNL     1      29.229  53.700  40.088  1.00  0.00     0.002 A 
HETATM   26  C   UNL     1      28.534  52.519  40.355  1.00  0.00     0.030 A 
HETATM   27  N   UNL     1      28.692  50.280  41.376  1.00  0.00    -0.321 N 
HETATM   28  H   UNL     1      27.778  49.925  41.135  1.00  0.00     0.169 HD
HETATM   29  O   UNL     1      29.513  48.385  42.435  1.00  0.00    -0.266 OA
ENDBRANCH   1  18
TORSDOF 3
ENDMDL
