MODEL 1
REMARK VINA RESULT:      -7.4      0.000      0.000
REMARK  2 active torsions:
REMARK  status: ('A' for Active; 'I' for Inactive)
REMARK    1  A    between atoms: N_6  and  C_7 
REMARK    2  A    between atoms: C_11  and  N_12 
ROOT
HETATM    1  C   UNL     1      28.777  44.284  54.323  1.00  0.00     0.048 A 
HETATM    2  C   UNL     1      29.019  45.355  55.219  1.00  0.00     0.040 A 
HETATM    3 BR   UNL     1      28.029  46.981  55.110  1.00  0.00    -0.049 Br
HETATM    4  C   UNL     1      29.954  45.251  56.255  1.00  0.00     0.057 A 
HETATM    5  C   UNL     1      30.667  44.060  56.412  1.00  0.00     0.104 A 
HETATM    6  C   UNL     1      30.450  42.985  55.544  1.00  0.00     0.038 A 
HETATM    7  C   UNL     1      29.513  43.102  54.510  1.00  0.00     0.033 A 
ENDROOT
BRANCH   1   8
HETATM    8  N   UNL     1      27.837  44.411  53.289  1.00  0.00    -0.377 N 
HETATM    9  C   UNL     1      28.272  43.806  52.012  1.00  0.00     0.150 C 
HETATM   10  C   UNL     1      27.430  44.390  50.857  1.00  0.00     0.254 C 
HETATM   11  N   UNL     1      25.933  44.197  51.127  1.00  0.00    -0.072 N 
HETATM   12  C   UNL     1      25.095  44.766  50.022  1.00  0.00     0.269 C 
HETATM   13  H   UNL     1      25.760  43.185  51.162  1.00  0.00     0.279 HD
HETATM   14  C   UNL     1      25.537  44.773  52.492  1.00  0.00     0.254 C 
HETATM   15  C   UNL     1      26.420  44.179  53.613  1.00  0.00     0.150 C 
ENDBRANCH   1   8
BRANCH   5  16
HETATM   16  N   UNL     1      31.646  43.936  57.499  1.00  0.00    -0.116 N 
HETATM   17  O   UNL     1      32.457  43.002  57.437  1.00  0.00    -0.532 OA
HETATM   18  O   UNL     1      31.596  44.772  58.412  1.00  0.00    -0.532 OA
ENDBRANCH   5  16
TORSDOF 2
ENDMDL
MODEL 2
REMARK VINA RESULT:      -7.0      1.628      2.226
REMARK  2 active torsions:
REMARK  status: ('A' for Active; 'I' for Inactive)
REMARK    1  A    between atoms: N_6  and  C_7 
REMARK    2  A    between atoms: C_11  and  N_12 
ROOT
HETATM    1  C   UNL     1      28.523  44.760  54.645  1.00  0.00     0.048 A 
HETATM    2  C   UNL     1      29.476  43.727  54.465  1.00  0.00     0.040 A 
HETATM    3 BR   UNL     1      29.479  42.644  52.895  1.00  0.00    -0.049 Br
HETATM    4  C   UNL     1      30.488  43.487  55.401  1.00  0.00     0.057 A 
HETATM    5  C   UNL     1      30.564  44.289  56.542  1.00  0.00     0.104 A 
HETATM    6  C   UNL     1      29.639  45.318  56.748  1.00  0.00     0.038 A 
HETATM    7  C   UNL     1      28.629  45.546  55.806  1.00  0.00     0.033 A 
ENDROOT
BRANCH   1   8
HETATM    8  N   UNL     1      27.514  44.981  53.696  1.00  0.00    -0.377 N 
HETATM    9  C   UNL     1      26.488  43.917  53.661  1.00  0.00     0.150 C 
HETATM   10  C   UNL     1      25.722  43.990  52.322  1.00  0.00     0.254 C 
HETATM   11  N   UNL     1      25.135  45.390  52.110  1.00  0.00    -0.072 N 
HETATM   12  C   UNL     1      24.395  45.488  50.809  1.00  0.00     0.269 C 
HETATM   13  H   UNL     1      24.460  45.553  52.867  1.00  0.00     0.279 HD
HETATM   14  C   UNL     1      26.218  46.469  52.226  1.00  0.00     0.254 C 
HETATM   15  C   UNL     1      26.972  46.344  53.569  1.00  0.00     0.150 C 
ENDBRANCH   1   8
BRANCH   5  16
HETATM   16  N   UNL     1      31.626  44.053  57.528  1.00  0.00    -0.116 N 
HETATM   17  O   UNL     1      31.638  44.766  58.540  1.00  0.00    -0.532 OA
HETATM   18  O   UNL     1      32.446  43.156  57.283  1.00  0.00    -0.532 OA
ENDBRANCH   5  16
TORSDOF 2
ENDMDL
MODEL 3
REMARK VINA RESULT:      -6.5      1.636      2.169
REMARK  2 active torsions:
REMARK  status: ('A' for Active; 'I' for Inactive)
REMARK    1  A    between atoms: N_6  and  C_7 
REMARK    2  A    between atoms: C_11  and  N_12 
ROOT
HETATM    1  C   UNL     1      27.723  44.052  52.641  1.00  0.00     0.048 A 
HETATM    2  C   UNL     1      27.533  44.906  53.755  1.00  0.00     0.040 A 
HETATM    3 BR   UNL     1      25.984  46.011  53.903  1.00  0.00    -0.049 Br
HETATM    4  C   UNL     1      28.439  44.942  54.820  1.00  0.00     0.057 A 
HETATM    5  C   UNL     1      29.562  44.112  54.786  1.00  0.00     0.104 A 
HETATM    6  C   UNL     1      29.778  43.256  53.701  1.00  0.00     0.038 A 
HETATM    7  C   UNL     1      28.864  43.231  52.640  1.00  0.00     0.033 A 
ENDROOT
BRANCH   1   8
HETATM    8  N   UNL     1      26.803  44.035  51.582  1.00  0.00    -0.377 N 
HETATM    9  C   UNL     1      27.285  44.721  50.364  1.00  0.00     0.150 C 
HETATM   10  C   UNL     1      26.081  45.062  49.460  1.00  0.00     0.254 C 
HETATM   11  N   UNL     1      25.263  43.803  49.149  1.00  0.00    -0.072 N 
HETATM   12  C   UNL     1      24.081  44.113  48.280  1.00  0.00     0.269 C 
HETATM   13  H   UNL     1      25.876  43.165  48.628  1.00  0.00     0.279 HD
HETATM   14  C   UNL     1      24.844  43.083  50.436  1.00  0.00     0.254 C 
HETATM   15  C   UNL     1      26.076  42.781  51.320  1.00  0.00     0.150 C 
ENDBRANCH   1   8
BRANCH   5  16
HETATM   16  N   UNL     1      30.518  44.133  55.900  1.00  0.00    -0.116 N 
HETATM   17  O   UNL     1      31.157  43.098  56.128  1.00  0.00    -0.532 OA
HETATM   18  O   UNL     1      30.622  45.187  56.544  1.00  0.00    -0.532 OA
ENDBRANCH   5  16
TORSDOF 2
ENDMDL
MODEL 4
REMARK VINA RESULT:      -6.0     14.308     14.922
REMARK  2 active torsions:
REMARK  status: ('A' for Active; 'I' for Inactive)
REMARK    1  A    between atoms: N_6  and  C_7 
REMARK    2  A    between atoms: C_11  and  N_12 
ROOT
HETATM    1  C   UNL     1      30.256  50.649  41.132  1.00  0.00     0.048 A 
HETATM    2  C   UNL     1      31.298  49.696  41.017  1.00  0.00     0.040 A 
HETATM    3 BR   UNL     1      31.071  48.099  39.998  1.00  0.00    -0.049 Br
HETATM    4  C   UNL     1      32.554  49.903  41.597  1.00  0.00     0.057 A 
HETATM    5  C   UNL     1      32.790  51.082  42.308  1.00  0.00     0.104 A 
HETATM    6  C   UNL     1      31.782  52.044  42.439  1.00  0.00     0.038 A 
HETATM    7  C   UNL     1      30.528  51.823  41.855  1.00  0.00     0.033 A 
ENDROOT
BRANCH   1   8
HETATM    8  N   UNL     1      29.003  50.419  40.545  1.00  0.00    -0.377 N 
HETATM    9  C   UNL     1      28.005  49.850  41.476  1.00  0.00     0.150 C 
HETATM   10  C   UNL     1      26.860  49.206  40.666  1.00  0.00     0.254 C 
HETATM   11  N   UNL     1      26.252  50.219  39.689  1.00  0.00    -0.072 N 
HETATM   12  C   UNL     1      25.143  49.612  38.883  1.00  0.00     0.269 C 
HETATM   13  H   UNL     1      25.850  50.979  40.252  1.00  0.00     0.279 HD
HETATM   14  C   UNL     1      27.329  50.839  38.791  1.00  0.00     0.254 C 
HETATM   15  C   UNL     1      28.465  51.451  39.643  1.00  0.00     0.150 C 
ENDBRANCH   1   8
BRANCH   5  16
HETATM   16  N   UNL     1      34.106  51.316  42.915  1.00  0.00    -0.116 N 
HETATM   17  O   UNL     1      34.175  52.144  43.833  1.00  0.00    -0.532 OA
HETATM   18  O   UNL     1      35.065  50.671  42.469  1.00  0.00    -0.532 OA
ENDBRANCH   5  16
TORSDOF 2
ENDMDL
MODEL 5
REMARK VINA RESULT:      -6.0      9.475     11.694
REMARK  2 active torsions:
REMARK  status: ('A' for Active; 'I' for Inactive)
REMARK    1  A    between atoms: N_6  and  C_7 
REMARK    2  A    between atoms: C_11  and  N_12 
ROOT
HETATM    1  C   UNL     1      21.228  50.218  48.435  1.00  0.00     0.048 A 
HETATM    2  C   UNL     1      21.752  48.901  48.450  1.00  0.00     0.040 A 
HETATM    3 BR   UNL     1      20.604  47.378  48.443  1.00  0.00    -0.049 Br
HETATM    4  C   UNL     1      23.129  48.656  48.417  1.00  0.00     0.057 A 
HETATM    5  C   UNL     1      24.012  49.737  48.365  1.00  0.00     0.104 A 
HETATM    6  C   UNL     1      23.526  51.049  48.348  1.00  0.00     0.038 A 
HETATM    7  C   UNL     1      22.146  51.281  48.385  1.00  0.00     0.033 A 
ENDROOT
BRANCH   1   8
HETATM    8  N   UNL     1      19.843  50.441  48.474  1.00  0.00    -0.377 N 
HETATM    9  C   UNL     1      19.411  51.311  49.588  1.00  0.00     0.150 C 
HETATM   10  C   UNL     1      17.900  51.116  49.831  1.00  0.00     0.254 C 
HETATM   11  N   UNL     1      17.108  51.364  48.542  1.00  0.00    -0.072 N 
HETATM   12  C   UNL     1      15.635  51.170  48.752  1.00  0.00     0.269 C 
HETATM   13  H   UNL     1      17.259  52.345  48.277  1.00  0.00     0.279 HD
HETATM   14  C   UNL     1      17.633  50.496  47.393  1.00  0.00     0.254 C 
HETATM   15  C   UNL     1      19.153  50.706  47.200  1.00  0.00     0.150 C 
ENDBRANCH   1   8
BRANCH   5  16
HETATM   16  N   UNL     1      25.460  49.494  48.322  1.00  0.00    -0.116 N 
HETATM   17  O   UNL     1      25.938  48.727  49.168  1.00  0.00    -0.532 OA
HETATM   18  O   UNL     1      26.111  50.073  47.441  1.00  0.00    -0.532 OA
ENDBRANCH   5  16
TORSDOF 2
ENDMDL
MODEL 6
REMARK VINA RESULT:      -6.0     13.375     14.274
REMARK  2 active torsions:
REMARK  status: ('A' for Active; 'I' for Inactive)
REMARK    1  A    between atoms: N_6  and  C_7 
REMARK    2  A    between atoms: C_11  and  N_12 
ROOT
HETATM    1  C   UNL     1      29.741  49.841  41.453  1.00  0.00     0.048 A 
HETATM    2  C   UNL     1      29.789  51.241  41.668  1.00  0.00     0.040 A 
HETATM    3 BR   UNL     1      28.463  52.401  40.937  1.00  0.00    -0.049 Br
HETATM    4  C   UNL     1      30.775  51.830  42.467  1.00  0.00     0.057 A 
HETATM    5  C   UNL     1      31.738  51.018  43.071  1.00  0.00     0.104 A 
HETATM    6  C   UNL     1      31.717  49.632  42.879  1.00  0.00     0.038 A 
HETATM    7  C   UNL     1      30.726  49.055  42.075  1.00  0.00     0.033 A 
ENDROOT
BRANCH   1   8
HETATM    8  N   UNL     1      28.746  49.271  40.645  1.00  0.00    -0.377 N 
HETATM    9  C   UNL     1      29.140  49.126  39.228  1.00  0.00     0.150 C 
HETATM   10  C   UNL     1      27.875  48.952  38.361  1.00  0.00     0.254 C 
HETATM   11  N   UNL     1      27.030  47.777  38.867  1.00  0.00    -0.072 N 
HETATM   12  C   UNL     1      25.788  47.595  38.045  1.00  0.00     0.269 C 
HETATM   13  H   UNL     1      27.600  46.928  38.764  1.00  0.00     0.279 HD
HETATM   14  C   UNL     1      26.704  47.929  40.357  1.00  0.00     0.254 C 
HETATM   15  C   UNL     1      27.996  48.123  41.182  1.00  0.00     0.150 C 
ENDBRANCH   1   8
BRANCH   5  16
HETATM   16  N   UNL     1      32.774  51.623  43.917  1.00  0.00    -0.116 N 
HETATM   17  O   UNL     1      32.529  51.746  45.125  1.00  0.00    -0.532 OA
HETATM   18  O   UNL     1      33.827  51.974  43.369  1.00  0.00    -0.532 OA
ENDBRANCH   5  16
TORSDOF 2
ENDMDL
MODEL 7
REMARK VINA RESULT:      -5.9      6.079      8.122
REMARK  2 active torsions:
REMARK  status: ('A' for Active; 'I' for Inactive)
REMARK    1  A    between atoms: N_6  and  C_7 
REMARK    2  A    between atoms: C_11  and  N_12 
ROOT
HETATM    1  C   UNL     1      25.578  46.110  50.144  1.00  0.00     0.048 A 
HETATM    2  C   UNL     1      24.237  46.181  49.690  1.00  0.00     0.040 A 
HETATM    3 BR   UNL     1      23.069  44.677  49.811  1.00  0.00    -0.049 Br
HETATM    4  C   UNL     1      23.693  47.365  49.182  1.00  0.00     0.057 A 
HETATM    5  C   UNL     1      24.491  48.510  49.124  1.00  0.00     0.104 A 
HETATM    6  C   UNL     1      25.818  48.473  49.565  1.00  0.00     0.038 A 
HETATM    7  C   UNL     1      26.351  47.280  50.068  1.00  0.00     0.033 A 
ENDROOT
BRANCH   1   8
HETATM    8  N   UNL     1      26.104  44.910  50.645  1.00  0.00    -0.377 N 
HETATM    9  C   UNL     1      26.902  44.151  49.658  1.00  0.00     0.150 C 
HETATM   10  C   UNL     1      27.029  42.685  50.122  1.00  0.00     0.254 C 
HETATM   11  N   UNL     1      27.611  42.613  51.539  1.00  0.00    -0.072 N 
HETATM   12  C   UNL     1      27.733  41.197  52.015  1.00  0.00     0.269 C 
HETATM   13  H   UNL     1      28.557  43.012  51.498  1.00  0.00     0.279 HD
HETATM   14  C   UNL     1      26.798  43.470  52.516  1.00  0.00     0.254 C 
HETATM   15  C   UNL     1      26.678  44.922  52.001  1.00  0.00     0.150 C 
ENDBRANCH   1   8
BRANCH   5  16
HETATM   16  N   UNL     1      23.930  49.763  48.600  1.00  0.00    -0.116 N 
HETATM   17  O   UNL     1      23.418  50.546  49.412  1.00  0.00    -0.532 OA
HETATM   18  O   UNL     1      24.002  49.955  47.379  1.00  0.00    -0.532 OA
ENDBRANCH   5  16
TORSDOF 2
ENDMDL
MODEL 8
REMARK VINA RESULT:      -5.8      3.402      4.853
REMARK  2 active torsions:
REMARK  status: ('A' for Active; 'I' for Inactive)
REMARK    1  A    between atoms: N_6  and  C_7 
REMARK    2  A    between atoms: C_11  and  N_12 
ROOT
HETATM    1  C   UNL     1      26.373  45.671  51.244  1.00  0.00     0.048 A 
HETATM    2  C   UNL     1      26.561  45.720  52.647  1.00  0.00     0.040 A 
HETATM    3 BR   UNL     1      25.988  47.225  53.672  1.00  0.00    -0.049 Br
HETATM    4  C   UNL     1      27.125  44.652  53.353  1.00  0.00     0.057 A 
HETATM    5  C   UNL     1      27.510  43.504  52.657  1.00  0.00     0.104 A 
HETATM    6  C   UNL     1      27.337  43.424  51.271  1.00  0.00     0.038 A 
HETATM    7  C   UNL     1      26.774  44.502  50.576  1.00  0.00     0.033 A 
ENDROOT
BRANCH   1   8
HETATM    8  N   UNL     1      25.809  46.756  50.555  1.00  0.00    -0.377 N 
HETATM    9  C   UNL     1      26.736  47.402  49.602  1.00  0.00     0.150 C 
HETATM   10  C   UNL     1      26.217  48.816  49.263  1.00  0.00     0.254 C 
HETATM   11  N   UNL     1      24.776  48.754  48.743  1.00  0.00    -0.072 N 
HETATM   12  C   UNL     1      24.246  50.119  48.418  1.00  0.00     0.269 C 
HETATM   13  H   UNL     1      24.792  48.209  47.872  1.00  0.00     0.279 HD
HETATM   14  C   UNL     1      23.863  48.013  49.727  1.00  0.00     0.254 C 
HETATM   15  C   UNL     1      24.432  46.614  50.054  1.00  0.00     0.150 C 
ENDBRANCH   1   8
BRANCH   5  16
HETATM   16  N   UNL     1      28.096  42.372  53.386  1.00  0.00    -0.116 N 
HETATM   17  O   UNL     1      27.918  41.238  52.924  1.00  0.00    -0.532 OA
HETATM   18  O   UNL     1      28.730  42.625  54.421  1.00  0.00    -0.532 OA
ENDBRANCH   5  16
TORSDOF 2
ENDMDL
MODEL 9
REMARK VINA RESULT:      -5.8      2.670      3.904
REMARK  2 active torsions:
REMARK  status: ('A' for Active; 'I' for Inactive)
REMARK    1  A    between atoms: N_6  and  C_7 
REMARK    2  A    between atoms: C_11  and  N_12 
ROOT
HETATM    1  C   UNL     1      26.481  45.235  52.179  1.00  0.00     0.048 A 
HETATM    2  C   UNL     1      27.337  44.124  51.971  1.00  0.00     0.040 A 
HETATM    3 BR   UNL     1      27.269  43.109  50.358  1.00  0.00    -0.049 Br
HETATM    4  C   UNL     1      28.304  43.754  52.912  1.00  0.00     0.057 A 
HETATM    5  C   UNL     1      28.432  44.499  54.086  1.00  0.00     0.104 A 
HETATM    6  C   UNL     1      27.603  45.601  54.320  1.00  0.00     0.038 A 
HETATM    7  C   UNL     1      26.637  45.960  53.372  1.00  0.00     0.033 A 
ENDROOT
BRANCH   1   8
HETATM    8  N   UNL     1      25.515  45.586  51.223  1.00  0.00    -0.377 N 
HETATM    9  C   UNL     1      24.330  44.702  51.222  1.00  0.00     0.150 C 
HETATM   10  C   UNL     1      23.579  44.857  49.883  1.00  0.00     0.254 C 
HETATM   11  N   UNL     1      23.225  46.327  49.627  1.00  0.00    -0.072 N 
HETATM   12  C   UNL     1      22.503  46.503  48.324  1.00  0.00     0.269 C 
HETATM   13  H   UNL     1      22.590  46.621  50.379  1.00  0.00     0.279 HD
HETATM   14  C   UNL     1      24.469  47.219  49.708  1.00  0.00     0.254 C 
HETATM   15  C   UNL     1      25.201  47.015  51.054  1.00  0.00     0.150 C 
ENDBRANCH   1   8
BRANCH   5  16
HETATM   16  N   UNL     1      29.448  44.126  55.078  1.00  0.00    -0.116 N 
HETATM   17  O   UNL     1      29.914  42.980  55.019  1.00  0.00    -0.532 OA
HETATM   18  O   UNL     1      29.772  44.981  55.914  1.00  0.00    -0.532 OA
ENDBRANCH   5  16
TORSDOF 2
ENDMDL
MODEL 10
REMARK VINA RESULT:      -5.7     14.926     16.558
REMARK  2 active torsions:
REMARK  status: ('A' for Active; 'I' for Inactive)
REMARK    1  A    between atoms: N_6  and  C_7 
REMARK    2  A    between atoms: C_11  and  N_12 
ROOT
HETATM    1  C   UNL     1      31.424  50.733  40.721  1.00  0.00     0.048 A 
HETATM    2  C   UNL     1      30.460  51.689  40.314  1.00  0.00     0.040 A 
HETATM    3 BR   UNL     1      30.659  53.538  40.738  1.00  0.00    -0.049 Br
HETATM    4  C   UNL     1      29.350  51.333  39.541  1.00  0.00     0.057 A 
HETATM    5  C   UNL     1      29.188  50.000  39.156  1.00  0.00     0.104 A 
HETATM    6  C   UNL     1      30.122  49.032  39.541  1.00  0.00     0.038 A 
HETATM    7  C   UNL     1      31.228  49.401  40.317  1.00  0.00     0.033 A 
ENDROOT
BRANCH   1   8
HETATM    8  N   UNL     1      32.528  51.112  41.500  1.00  0.00    -0.377 N 
HETATM    9  C   UNL     1      32.347  50.869  42.947  1.00  0.00     0.150 C 
HETATM   10  C   UNL     1      33.361  51.721  43.738  1.00  0.00     0.254 C 
HETATM   11  N   UNL     1      34.792  51.441  43.263  1.00  0.00    -0.072 N 
HETATM   12  C   UNL     1      35.794  52.268  44.012  1.00  0.00     0.269 C 
HETATM   13  H   UNL     1      34.989  50.453  43.462  1.00  0.00     0.279 HD
HETATM   14  C   UNL     1      34.920  51.635  41.747  1.00  0.00     0.254 C 
HETATM   15  C   UNL     1      33.872  50.781  40.997  1.00  0.00     0.150 C 
ENDBRANCH   1   8
BRANCH   5  16
HETATM   16  N   UNL     1      28.031  49.614  38.338  1.00  0.00    -0.116 N 
HETATM   17  O   UNL     1      27.378  50.519  37.804  1.00  0.00    -0.532 OA
HETATM   18  O   UNL     1      27.781  48.404  38.236  1.00  0.00    -0.532 OA
ENDBRANCH   5  16
TORSDOF 2
ENDMDL
