MODEL 1
REMARK VINA RESULT:      -8.2      0.000      0.000
REMARK  8 active torsions:
REMARK  status: ('A' for Active; 'I' for Inactive)
REMARK    1  A    between atoms: C_2  and  C_3 
REMARK    2  A    between atoms: C_3  and  N_4 
REMARK    3  A    between atoms: C_7  and  C_8 
REMARK       I    between atoms: C_8  and  N_9 
REMARK    4  A    between atoms: N_9  and  N_10 
REMARK       I    between atoms: N_10  and  C_11 
REMARK    5  A    between atoms: C_11  and  C_12 
REMARK    6  A    between atoms: C_12  and  O_13 
REMARK    7  A    between atoms: O_13  and  C_14 
REMARK    8  A    between atoms: C_23  and  C_24 
ROOT
HETATM    1  C   UNL     1      27.596  42.207  53.038  1.00  0.00     0.273 C 
HETATM    2  N   UNL     1      27.530  42.358  51.656  1.00  0.00    -0.263 N 
HETATM    3  O   UNL     1      27.707  41.078  53.508  1.00  0.00    -0.266 OA
HETATM    4  H   UNL     1      27.833  41.540  51.135  1.00  0.00     0.190 HD
ENDROOT
BRANCH   2   5
HETATM    5  N   UNL     1      27.638  43.600  51.013  1.00  0.00    -0.265 N 
HETATM    6  C   UNL     1      26.517  44.210  50.472  1.00  0.00     0.260 C 
HETATM    7  O   UNL     1      25.375  43.773  50.587  1.00  0.00    -0.269 OA
HETATM    8  H   UNL     1      28.545  44.057  51.000  1.00  0.00     0.190 HD
BRANCH   6   9
HETATM    9  C   UNL     1      26.856  45.444  49.646  1.00  0.00     0.280 C 
BRANCH   9  10
HETATM   10  O   UNL     1      26.618  46.604  50.441  1.00  0.00    -0.342 OA
BRANCH  10  11
HETATM   11  C   UNL     1      26.300  47.718  49.709  1.00  0.00     0.069 A 
HETATM   12  C   UNL     1      24.937  47.976  49.542  1.00  0.00     0.043 A 
HETATM   13  C   UNL     1      24.507  49.102  48.825  1.00  0.00    -0.059 A 
HETATM   14  C   UNL     1      23.045  49.387  48.638  1.00  0.00     0.048 C 
HETATM   15  C   UNL     1      25.462  49.987  48.313  1.00  0.00     0.007 A 
HETATM   16  C   UNL     1      26.822  49.743  48.501  1.00  0.00     0.003 A 
HETATM   17  C   UNL     1      27.243  48.609  49.199  1.00  0.00     0.037 A 
ENDBRANCH  10  11
ENDBRANCH   9  10
ENDBRANCH   6   9
ENDBRANCH   2   5
BRANCH   1  18
HETATM   18  C   UNL     1      27.490  43.410  53.850  1.00  0.00     0.077 A 
HETATM   19  C   UNL     1      26.287  44.083  54.170  1.00  0.00     0.158 A 
HETATM   20  N   UNL     1      26.480  45.229  54.816  1.00  0.00    -0.183 NA
HETATM   21  N   UNL     1      27.814  45.262  55.015  1.00  0.00    -0.268 N 
HETATM   22  C   UNL     1      28.476  44.190  54.445  1.00  0.00     0.052 A 
BRANCH  21  23
HETATM   23  C   UNL     1      28.413  46.418  55.686  1.00  0.00     0.106 C 
HETATM   24  C   UNL     1      27.735  47.704  55.201  1.00  0.00     0.034 C 
BRANCH  23  25
HETATM   25  C   UNL     1      28.378  46.352  57.228  1.00  0.00     0.022 C 
HETATM   26  C   UNL     1      29.728  46.010  57.845  1.00  0.00     0.007 C 
ENDBRANCH  23  25
ENDBRANCH  21  23
BRANCH  22  27
HETATM   27  C   UNL     1      30.001  44.033  54.455  1.00  0.00     0.038 A 
HETATM   28  C   UNL     1      30.708  43.482  55.670  1.00  0.00     0.011 A 
HETATM   29  C   UNL     1      30.634  42.663  54.423  1.00  0.00     0.011 A 
ENDBRANCH  22  27
ENDBRANCH   1  18
TORSDOF 8
ENDMDL
MODEL 2
REMARK VINA RESULT:      -7.8      6.315     11.323
REMARK  8 active torsions:
REMARK  status: ('A' for Active; 'I' for Inactive)
REMARK    1  A    between atoms: C_2  and  C_3 
REMARK    2  A    between atoms: C_3  and  N_4 
REMARK    3  A    between atoms: C_7  and  C_8 
REMARK       I    between atoms: C_8  and  N_9 
REMARK    4  A    between atoms: N_9  and  N_10 
REMARK       I    between atoms: N_10  and  C_11 
REMARK    5  A    between atoms: C_11  and  C_12 
REMARK    6  A    between atoms: C_12  and  O_13 
REMARK    7  A    between atoms: O_13  and  C_14 
REMARK    8  A    between atoms: C_23  and  C_24 
ROOT
HETATM    1  C   UNL     1      19.083  49.586  50.498  1.00  0.00     0.273 C 
HETATM    2  N   UNL     1      20.326  48.985  50.314  1.00  0.00    -0.263 N 
HETATM    3  O   UNL     1      18.475  49.386  51.547  1.00  0.00    -0.266 OA
HETATM    4  H   UNL     1      20.745  48.632  51.169  1.00  0.00     0.190 HD
ENDROOT
BRANCH   2   5
HETATM    5  N   UNL     1      21.198  49.329  49.271  1.00  0.00    -0.265 N 
HETATM    6  C   UNL     1      22.108  50.363  49.430  1.00  0.00     0.260 C 
HETATM    7  O   UNL     1      22.275  50.975  50.482  1.00  0.00    -0.269 OA
HETATM    8  H   UNL     1      21.178  48.770  48.423  1.00  0.00     0.190 HD
BRANCH   6   9
HETATM    9  C   UNL     1      22.827  50.721  48.136  1.00  0.00     0.280 C 
BRANCH   9  10
HETATM   10  O   UNL     1      23.519  49.566  47.665  1.00  0.00    -0.342 OA
BRANCH  10  11
HETATM   11  C   UNL     1      24.725  49.357  48.280  1.00  0.00     0.069 A 
HETATM   12  C   UNL     1      24.766  48.323  49.220  1.00  0.00     0.043 A 
HETATM   13  C   UNL     1      25.959  48.016  49.890  1.00  0.00    -0.059 A 
HETATM   14  C   UNL     1      26.013  46.909  50.902  1.00  0.00     0.048 C 
HETATM   15  C   UNL     1      27.119  48.734  49.578  1.00  0.00     0.007 A 
HETATM   16  C   UNL     1      27.084  49.750  48.622  1.00  0.00     0.003 A 
HETATM   17  C   UNL     1      25.888  50.062  47.972  1.00  0.00     0.037 A 
ENDBRANCH  10  11
ENDBRANCH   9  10
ENDBRANCH   6   9
ENDBRANCH   2   5
BRANCH   1  18
HETATM   18  C   UNL     1      18.560  50.392  49.405  1.00  0.00     0.077 A 
HETATM   19  C   UNL     1      18.628  51.803  49.317  1.00  0.00     0.158 A 
HETATM   20  N   UNL     1      17.958  52.299  48.281  1.00  0.00    -0.183 NA
HETATM   21  N   UNL     1      17.531  51.202  47.623  1.00  0.00    -0.268 N 
HETATM   22  C   UNL     1      17.861  50.021  48.261  1.00  0.00     0.052 A 
BRANCH  21  23
HETATM   23  C   UNL     1      16.714  51.359  46.417  1.00  0.00     0.106 C 
HETATM   24  C   UNL     1      15.543  52.303  46.708  1.00  0.00     0.034 C 
BRANCH  23  25
HETATM   25  C   UNL     1      17.492  51.849  45.176  1.00  0.00     0.022 C 
HETATM   26  C   UNL     1      17.022  53.208  44.672  1.00  0.00     0.007 C 
ENDBRANCH  23  25
ENDBRANCH  21  23
BRANCH  22  27
HETATM   27  C   UNL     1      17.422  48.638  47.765  1.00  0.00     0.038 A 
HETATM   28  C   UNL     1      17.214  47.503  48.739  1.00  0.00     0.011 A 
HETATM   29  C   UNL     1      16.035  48.119  48.059  1.00  0.00     0.011 A 
ENDBRANCH  22  27
ENDBRANCH   1  18
TORSDOF 8
ENDMDL
MODEL 3
REMARK VINA RESULT:      -7.8      2.693      5.099
REMARK  8 active torsions:
REMARK  status: ('A' for Active; 'I' for Inactive)
REMARK    1  A    between atoms: C_2  and  C_3 
REMARK    2  A    between atoms: C_3  and  N_4 
REMARK    3  A    between atoms: C_7  and  C_8 
REMARK       I    between atoms: C_8  and  N_9 
REMARK    4  A    between atoms: N_9  and  N_10 
REMARK       I    between atoms: N_10  and  C_11 
REMARK    5  A    between atoms: C_11  and  C_12 
REMARK    6  A    between atoms: C_12  and  O_13 
REMARK    7  A    between atoms: O_13  and  C_14 
REMARK    8  A    between atoms: C_23  and  C_24 
ROOT
HETATM    1  C   UNL     1      26.408  47.280  54.672  1.00  0.00     0.273 C 
HETATM    2  N   UNL     1      26.036  47.519  53.352  1.00  0.00    -0.263 N 
HETATM    3  O   UNL     1      25.760  47.802  55.577  1.00  0.00    -0.266 OA
HETATM    4  H   UNL     1      25.102  47.904  53.249  1.00  0.00     0.190 HD
ENDROOT
BRANCH   2   5
HETATM    5  N   UNL     1      26.552  46.797  52.267  1.00  0.00    -0.265 N 
HETATM    6  C   UNL     1      26.082  47.030  50.983  1.00  0.00     0.260 C 
HETATM    7  O   UNL     1      25.277  47.912  50.697  1.00  0.00    -0.269 OA
HETATM    8  H   UNL     1      27.307  46.141  52.440  1.00  0.00     0.190 HD
BRANCH   6   9
HETATM    9  C   UNL     1      26.609  46.023  49.969  1.00  0.00     0.280 C 
BRANCH   9  10
HETATM   10  O   UNL     1      25.498  45.421  49.306  1.00  0.00    -0.342 OA
BRANCH  10  11
HETATM   11  C   UNL     1      25.452  44.058  49.433  1.00  0.00     0.069 A 
HETATM   12  C   UNL     1      26.613  43.444  49.911  1.00  0.00     0.043 A 
HETATM   13  C   UNL     1      26.660  42.055  50.096  1.00  0.00    -0.059 A 
HETATM   14  C   UNL     1      27.903  41.386  50.606  1.00  0.00     0.048 C 
HETATM   15  C   UNL     1      25.515  41.294  49.833  1.00  0.00     0.007 A 
HETATM   16  C   UNL     1      24.348  41.910  49.379  1.00  0.00     0.003 A 
HETATM   17  C   UNL     1      24.315  43.292  49.180  1.00  0.00     0.037 A 
ENDBRANCH  10  11
ENDBRANCH   9  10
ENDBRANCH   6   9
ENDBRANCH   2   5
BRANCH   1  18
HETATM   18  C   UNL     1      27.580  46.447  54.899  1.00  0.00     0.077 A 
HETATM   19  C   UNL     1      28.898  46.919  55.100  1.00  0.00     0.158 A 
HETATM   20  N   UNL     1      29.804  45.948  55.152  1.00  0.00    -0.183 NA
HETATM   21  N   UNL     1      29.066  44.821  55.089  1.00  0.00    -0.268 N 
HETATM   22  C   UNL     1      27.714  45.064  54.928  1.00  0.00     0.052 A 
BRANCH  21  23
HETATM   23  C   UNL     1      29.738  43.519  55.090  1.00  0.00     0.106 C 
HETATM   24  C   UNL     1      29.767  42.952  53.667  1.00  0.00     0.034 C 
BRANCH  23  25
HETATM   25  C   UNL     1      31.165  43.536  55.681  1.00  0.00     0.022 C 
HETATM   26  C   UNL     1      31.205  43.180  57.162  1.00  0.00     0.007 C 
ENDBRANCH  23  25
ENDBRANCH  21  23
BRANCH  22  27
HETATM   27  C   UNL     1      26.670  43.956  54.745  1.00  0.00     0.038 A 
HETATM   28  C   UNL     1      25.219  44.299  54.511  1.00  0.00     0.011 A 
HETATM   29  C   UNL     1      26.029  43.717  53.399  1.00  0.00     0.011 A 
ENDBRANCH  22  27
ENDBRANCH   1  18
TORSDOF 8
ENDMDL
MODEL 4
REMARK VINA RESULT:      -7.8      4.180      9.138
REMARK  8 active torsions:
REMARK  status: ('A' for Active; 'I' for Inactive)
REMARK    1  A    between atoms: C_2  and  C_3 
REMARK    2  A    between atoms: C_3  and  N_4 
REMARK    3  A    between atoms: C_7  and  C_8 
REMARK       I    between atoms: C_8  and  N_9 
REMARK    4  A    between atoms: N_9  and  N_10 
REMARK       I    between atoms: N_10  and  C_11 
REMARK    5  A    between atoms: C_11  and  C_12 
REMARK    6  A    between atoms: C_12  and  O_13 
REMARK    7  A    between atoms: O_13  and  C_14 
REMARK    8  A    between atoms: C_23  and  C_24 
ROOT
HETATM    1  C   UNL     1      23.371  49.792  48.109  1.00  0.00     0.273 C 
HETATM    2  N   UNL     1      24.489  49.281  48.762  1.00  0.00    -0.263 N 
HETATM    3  O   UNL     1      23.517  50.344  47.022  1.00  0.00    -0.266 OA
HETATM    4  H   UNL     1      25.306  49.181  48.167  1.00  0.00     0.190 HD
ENDROOT
BRANCH   2   5
HETATM    5  N   UNL     1      24.407  48.437  49.879  1.00  0.00    -0.265 N 
HETATM    6  C   UNL     1      25.450  47.576  50.185  1.00  0.00     0.260 C 
HETATM    7  O   UNL     1      26.518  47.551  49.580  1.00  0.00    -0.269 OA
HETATM    8  H   UNL     1      23.591  48.511  50.479  1.00  0.00     0.190 HD
BRANCH   6   9
HETATM    9  C   UNL     1      25.104  46.603  51.304  1.00  0.00     0.280 C 
BRANCH   9  10
HETATM   10  O   UNL     1      25.175  47.296  52.549  1.00  0.00    -0.342 OA
BRANCH  10  11
HETATM   11  C   UNL     1      26.180  46.855  53.369  1.00  0.00     0.069 A 
HETATM   12  C   UNL     1      26.603  45.538  53.172  1.00  0.00     0.043 A 
HETATM   13  C   UNL     1      27.639  44.998  53.947  1.00  0.00    -0.059 A 
HETATM   14  C   UNL     1      28.100  43.584  53.744  1.00  0.00     0.048 C 
HETATM   15  C   UNL     1      28.272  45.809  54.896  1.00  0.00     0.007 A 
HETATM   16  C   UNL     1      27.866  47.131  55.077  1.00  0.00     0.003 A 
HETATM   17  C   UNL     1      26.821  47.656  54.314  1.00  0.00     0.037 A 
ENDBRANCH  10  11
ENDBRANCH   9  10
ENDBRANCH   6   9
ENDBRANCH   2   5
BRANCH   1  18
HETATM   18  C   UNL     1      22.087  49.673  48.785  1.00  0.00     0.077 A 
HETATM   19  C   UNL     1      21.585  50.565  49.763  1.00  0.00     0.158 A 
HETATM   20  N   UNL     1      20.448  50.156  50.315  1.00  0.00    -0.183 NA
HETATM   21  N   UNL     1      20.142  49.038  49.625  1.00  0.00    -0.268 N 
HETATM   22  C   UNL     1      21.102  48.696  48.691  1.00  0.00     0.052 A 
BRANCH  21  23
HETATM   23  C   UNL     1      18.942  48.278  49.982  1.00  0.00     0.106 C 
HETATM   24  C   UNL     1      18.537  48.600  51.424  1.00  0.00     0.034 C 
BRANCH  23  25
HETATM   25  C   UNL     1      17.741  48.496  49.036  1.00  0.00     0.022 C 
HETATM   26  C   UNL     1      17.023  47.203  48.670  1.00  0.00     0.007 C 
ENDBRANCH  23  25
ENDBRANCH  21  23
BRANCH  22  27
HETATM   27  C   UNL     1      21.036  47.426  47.835  1.00  0.00     0.038 A 
HETATM   28  C   UNL     1      22.255  46.551  47.662  1.00  0.00     0.011 A 
HETATM   29  C   UNL     1      21.103  46.060  48.476  1.00  0.00     0.011 A 
ENDBRANCH  22  27
ENDBRANCH   1  18
TORSDOF 8
ENDMDL
MODEL 5
REMARK VINA RESULT:      -7.8      3.358      6.226
REMARK  8 active torsions:
REMARK  status: ('A' for Active; 'I' for Inactive)
REMARK    1  A    between atoms: C_2  and  C_3 
REMARK    2  A    between atoms: C_3  and  N_4 
REMARK    3  A    between atoms: C_7  and  C_8 
REMARK       I    between atoms: C_8  and  N_9 
REMARK    4  A    between atoms: N_9  and  N_10 
REMARK       I    between atoms: N_10  and  C_11 
REMARK    5  A    between atoms: C_11  and  C_12 
REMARK    6  A    between atoms: C_12  and  O_13 
REMARK    7  A    between atoms: O_13  and  C_14 
REMARK    8  A    between atoms: C_23  and  C_24 
ROOT
HETATM    1  C   UNL     1      25.392  44.486  53.743  1.00  0.00     0.273 C 
HETATM    2  N   UNL     1      25.122  44.512  52.378  1.00  0.00    -0.263 N 
HETATM    3  O   UNL     1      24.475  44.688  54.535  1.00  0.00    -0.266 OA
HETATM    4  H   UNL     1      24.134  44.446  52.150  1.00  0.00     0.190 HD
ENDROOT
BRANCH   2   5
HETATM    5  N   UNL     1      26.031  44.068  51.407  1.00  0.00    -0.265 N 
HETATM    6  C   UNL     1      25.715  42.993  50.589  1.00  0.00     0.260 C 
HETATM    7  O   UNL     1      24.625  42.427  50.592  1.00  0.00    -0.269 OA
HETATM    8  H   UNL     1      26.897  44.584  51.287  1.00  0.00     0.190 HD
BRANCH   6   9
HETATM    9  C   UNL     1      26.891  42.532  49.740  1.00  0.00     0.280 C 
BRANCH   9  10
HETATM   10  O   UNL     1      27.751  41.730  50.549  1.00  0.00    -0.342 OA
BRANCH  10  11
HETATM   11  C   UNL     1      28.201  40.599  49.923  1.00  0.00     0.069 A 
HETATM   12  C   UNL     1      28.786  39.631  50.743  1.00  0.00     0.043 A 
HETATM   13  C   UNL     1      29.261  38.428  50.201  1.00  0.00    -0.059 A 
HETATM   14  C   UNL     1      29.893  37.383  51.074  1.00  0.00     0.048 C 
HETATM   15  C   UNL     1      29.106  38.192  48.831  1.00  0.00     0.007 A 
HETATM   16  C   UNL     1      28.501  39.148  48.014  1.00  0.00     0.003 A 
HETATM   17  C   UNL     1      28.047  40.351  48.559  1.00  0.00     0.037 A 
ENDBRANCH  10  11
ENDBRANCH   9  10
ENDBRANCH   6   9
ENDBRANCH   2   5
BRANCH   1  18
HETATM   18  C   UNL     1      26.770  44.256  54.150  1.00  0.00     0.077 A 
HETATM   19  C   UNL     1      27.378  42.990  54.320  1.00  0.00     0.158 A 
HETATM   20  N   UNL     1      28.606  43.058  54.823  1.00  0.00    -0.183 NA
HETATM   21  N   UNL     1      28.850  44.383  54.890  1.00  0.00    -0.268 N 
HETATM   22  C   UNL     1      27.771  45.155  54.502  1.00  0.00     0.052 A 
BRANCH  21  23
HETATM   23  C   UNL     1      30.126  44.853  55.437  1.00  0.00     0.106 C 
HETATM   24  C   UNL     1      29.883  45.565  56.771  1.00  0.00     0.034 C 
BRANCH  23  25
HETATM   25  C   UNL     1      31.192  43.750  55.613  1.00  0.00     0.022 C 
HETATM   26  C   UNL     1      31.459  43.402  57.072  1.00  0.00     0.007 C 
ENDBRANCH  23  25
ENDBRANCH  21  23
BRANCH  22  27
HETATM   27  C   UNL     1      27.760  46.687  54.564  1.00  0.00     0.038 A 
HETATM   28  C   UNL     1      26.545  47.465  54.120  1.00  0.00     0.011 A 
HETATM   29  C   UNL     1      26.897  47.410  55.571  1.00  0.00     0.011 A 
ENDBRANCH  22  27
ENDBRANCH   1  18
TORSDOF 8
ENDMDL
MODEL 6
REMARK VINA RESULT:      -7.6      3.817      8.933
REMARK  8 active torsions:
REMARK  status: ('A' for Active; 'I' for Inactive)
REMARK    1  A    between atoms: C_2  and  C_3 
REMARK    2  A    between atoms: C_3  and  N_4 
REMARK    3  A    between atoms: C_7  and  C_8 
REMARK       I    between atoms: C_8  and  N_9 
REMARK    4  A    between atoms: N_9  and  N_10 
REMARK       I    between atoms: N_10  and  C_11 
REMARK    5  A    between atoms: C_11  and  C_12 
REMARK    6  A    between atoms: C_12  and  O_13 
REMARK    7  A    between atoms: O_13  and  C_14 
REMARK    8  A    between atoms: C_23  and  C_24 
ROOT
HETATM    1  C   UNL     1      22.347  46.381  47.934  1.00  0.00     0.273 C 
HETATM    2  N   UNL     1      23.484  46.044  48.663  1.00  0.00    -0.263 N 
HETATM    3  O   UNL     1      22.082  45.746  46.916  1.00  0.00    -0.266 OA
HETATM    4  H   UNL     1      23.868  45.132  48.432  1.00  0.00     0.190 HD
ENDROOT
BRANCH   2   5
HETATM    5  N   UNL     1      23.748  46.539  49.948  1.00  0.00    -0.265 N 
HETATM    6  C   UNL     1      25.054  46.646  50.404  1.00  0.00     0.260 C 
HETATM    7  O   UNL     1      26.042  46.409  49.715  1.00  0.00    -0.269 OA
HETATM    8  H   UNL     1      22.966  46.862  50.509  1.00  0.00     0.190 HD
BRANCH   6   9
HETATM    9  C   UNL     1      25.136  47.011  51.880  1.00  0.00     0.280 C 
BRANCH   9  10
HETATM   10  O   UNL     1      25.482  45.842  52.620  1.00  0.00    -0.342 OA
BRANCH  10  11
HETATM   11  C   UNL     1      26.521  46.029  53.492  1.00  0.00     0.069 A 
HETATM   12  C   UNL     1      27.378  44.940  53.674  1.00  0.00     0.043 A 
HETATM   13  C   UNL     1      28.483  45.037  54.531  1.00  0.00    -0.059 A 
HETATM   14  C   UNL     1      29.407  43.872  54.734  1.00  0.00     0.048 C 
HETATM   15  C   UNL     1      28.741  46.253  55.173  1.00  0.00     0.007 A 
HETATM   16  C   UNL     1      27.900  47.348  54.974  1.00  0.00     0.003 A 
HETATM   17  C   UNL     1      26.791  47.238  54.133  1.00  0.00     0.037 A 
ENDBRANCH  10  11
ENDBRANCH   9  10
ENDBRANCH   6   9
ENDBRANCH   2   5
BRANCH   1  18
HETATM   18  C   UNL     1      21.555  47.505  48.411  1.00  0.00     0.077 A 
HETATM   19  C   UNL     1      20.303  47.412  49.063  1.00  0.00     0.158 A 
HETATM   20  N   UNL     1      19.730  48.592  49.277  1.00  0.00    -0.183 NA
HETATM   21  N   UNL     1      20.657  49.477  48.855  1.00  0.00    -0.268 N 
HETATM   22  C   UNL     1      21.778  48.874  48.315  1.00  0.00     0.052 A 
BRANCH  21  23
HETATM   23  C   UNL     1      20.360  50.910  48.909  1.00  0.00     0.106 C 
HETATM   24  C   UNL     1      19.597  51.327  47.648  1.00  0.00     0.034 C 
BRANCH  23  25
HETATM   25  C   UNL     1      19.583  51.356  50.167  1.00  0.00     0.022 C 
HETATM   26  C   UNL     1      18.289  52.092  49.844  1.00  0.00     0.007 C 
ENDBRANCH  23  25
ENDBRANCH  21  23
BRANCH  22  27
HETATM   27  C   UNL     1      22.940  49.654  47.689  1.00  0.00     0.038 A 
HETATM   28  C   UNL     1      23.455  50.917  48.337  1.00  0.00     0.011 A 
HETATM   29  C   UNL     1      24.295  49.683  48.354  1.00  0.00     0.011 A 
ENDBRANCH  22  27
ENDBRANCH   1  18
TORSDOF 8
ENDMDL
MODEL 7
REMARK VINA RESULT:      -7.5      2.718      8.008
REMARK  8 active torsions:
REMARK  status: ('A' for Active; 'I' for Inactive)
REMARK    1  A    between atoms: C_2  and  C_3 
REMARK    2  A    between atoms: C_3  and  N_4 
REMARK    3  A    between atoms: C_7  and  C_8 
REMARK       I    between atoms: C_8  and  N_9 
REMARK    4  A    between atoms: N_9  and  N_10 
REMARK       I    between atoms: N_10  and  C_11 
REMARK    5  A    between atoms: C_11  and  C_12 
REMARK    6  A    between atoms: C_12  and  O_13 
REMARK    7  A    between atoms: O_13  and  C_14 
REMARK    8  A    between atoms: C_23  and  C_24 
ROOT
HETATM    1  C   UNL     1      25.005  45.986  50.399  1.00  0.00     0.273 C 
HETATM    2  N   UNL     1      24.884  46.283  51.754  1.00  0.00    -0.263 N 
HETATM    3  O   UNL     1      24.628  46.812  49.572  1.00  0.00    -0.266 OA
HETATM    4  H   UNL     1      24.725  47.267  51.949  1.00  0.00     0.190 HD
ENDROOT
BRANCH   2   5
HETATM    5  N   UNL     1      25.490  45.523  52.764  1.00  0.00    -0.265 N 
HETATM    6  C   UNL     1      26.376  46.115  53.652  1.00  0.00     0.260 C 
HETATM    7  O   UNL     1      26.620  47.318  53.677  1.00  0.00    -0.269 OA
HETATM    8  H   UNL     1      25.225  44.547  52.858  1.00  0.00     0.190 HD
BRANCH   6   9
HETATM    9  C   UNL     1      27.082  45.104  54.545  1.00  0.00     0.280 C 
BRANCH   9  10
HETATM   10  O   UNL     1      28.370  44.830  53.996  1.00  0.00    -0.342 OA
BRANCH  10  11
HETATM   11  C   UNL     1      29.327  44.566  54.939  1.00  0.00     0.069 A 
HETATM   12  C   UNL     1      29.402  45.461  56.009  1.00  0.00     0.043 A 
HETATM   13  C   UNL     1      30.335  45.267  57.037  1.00  0.00    -0.059 A 
HETATM   14  C   UNL     1      30.425  46.224  58.190  1.00  0.00     0.048 C 
HETATM   15  C   UNL     1      31.166  44.141  56.998  1.00  0.00     0.007 A 
HETATM   16  C   UNL     1      31.075  43.234  55.942  1.00  0.00     0.003 A 
HETATM   17  C   UNL     1      30.156  43.444  54.912  1.00  0.00     0.037 A 
ENDBRANCH  10  11
ENDBRANCH   9  10
ENDBRANCH   6   9
ENDBRANCH   2   5
BRANCH   1  18
HETATM   18  C   UNL     1      25.544  44.681  50.045  1.00  0.00     0.077 A 
HETATM   19  C   UNL     1      26.905  44.395  49.784  1.00  0.00     0.158 A 
HETATM   20  N   UNL     1      27.110  43.154  49.355  1.00  0.00    -0.183 NA
HETATM   21  N   UNL     1      25.889  42.584  49.431  1.00  0.00    -0.268 N 
HETATM   22  C   UNL     1      24.903  43.464  49.836  1.00  0.00     0.052 A 
BRANCH  21  23
HETATM   23  C   UNL     1      25.716  41.195  49.001  1.00  0.00     0.106 C 
HETATM   24  C   UNL     1      26.329  41.005  47.610  1.00  0.00     0.034 C 
BRANCH  23  25
HETATM   25  C   UNL     1      26.289  40.146  49.978  1.00  0.00     0.022 C 
HETATM   26  C   UNL     1      27.516  39.426  49.433  1.00  0.00     0.007 C 
ENDBRANCH  23  25
ENDBRANCH  21  23
BRANCH  22  27
HETATM   27  C   UNL     1      23.418  43.091  49.924  1.00  0.00     0.038 A 
HETATM   28  C   UNL     1      22.353  44.070  49.493  1.00  0.00     0.011 A 
HETATM   29  C   UNL     1      22.610  42.850  48.671  1.00  0.00     0.011 A 
ENDBRANCH  22  27
ENDBRANCH   1  18
TORSDOF 8
ENDMDL
MODEL 8
REMARK VINA RESULT:      -7.5      3.987      9.583
REMARK  8 active torsions:
REMARK  status: ('A' for Active; 'I' for Inactive)
REMARK    1  A    between atoms: C_2  and  C_3 
REMARK    2  A    between atoms: C_3  and  N_4 
REMARK    3  A    between atoms: C_7  and  C_8 
REMARK       I    between atoms: C_8  and  N_9 
REMARK    4  A    between atoms: N_9  and  N_10 
REMARK       I    between atoms: N_10  and  C_11 
REMARK    5  A    between atoms: C_11  and  C_12 
REMARK    6  A    between atoms: C_12  and  O_13 
REMARK    7  A    between atoms: O_13  and  C_14 
REMARK    8  A    between atoms: C_23  and  C_24 
ROOT
HETATM    1  C   UNL     1      23.490  49.043  48.197  1.00  0.00     0.273 C 
HETATM    2  N   UNL     1      24.391  48.744  49.216  1.00  0.00    -0.263 N 
HETATM    3  O   UNL     1      23.801  49.880  47.354  1.00  0.00    -0.266 OA
HETATM    4  H   UNL     1      25.340  49.061  49.035  1.00  0.00     0.190 HD
ENDROOT
BRANCH   2   5
HETATM    5  N   UNL     1      24.238  47.652  50.081  1.00  0.00    -0.265 N 
HETATM    6  C   UNL     1      25.297  47.229  50.871  1.00  0.00     0.260 C 
HETATM    7  O   UNL     1      26.378  47.809  50.937  1.00  0.00    -0.269 OA
HETATM    8  H   UNL     1      23.323  47.216  50.149  1.00  0.00     0.190 HD
BRANCH   6   9
HETATM    9  C   UNL     1      25.010  45.919  51.591  1.00  0.00     0.280 C 
BRANCH   9  10
HETATM   10  O   UNL     1      26.089  45.018  51.346  1.00  0.00    -0.342 OA
BRANCH  10  11
HETATM   11  C   UNL     1      26.868  44.778  52.447  1.00  0.00     0.069 A 
HETATM   12  C   UNL     1      27.997  43.981  52.243  1.00  0.00     0.043 A 
HETATM   13  C   UNL     1      28.869  43.693  53.302  1.00  0.00    -0.059 A 
HETATM   14  C   UNL     1      30.082  42.836  53.092  1.00  0.00     0.048 C 
HETATM   15  C   UNL     1      28.615  44.249  54.561  1.00  0.00     0.007 A 
HETATM   16  C   UNL     1      27.502  45.065  54.761  1.00  0.00     0.003 A 
HETATM   17  C   UNL     1      26.628  45.331  53.705  1.00  0.00     0.037 A 
ENDBRANCH  10  11
ENDBRANCH   9  10
ENDBRANCH   6   9
ENDBRANCH   2   5
BRANCH   1  18
HETATM   18  C   UNL     1      22.203  48.362  48.220  1.00  0.00     0.077 A 
HETATM   19  C   UNL     1      21.930  47.100  47.640  1.00  0.00     0.158 A 
HETATM   20  N   UNL     1      20.644  46.766  47.689  1.00  0.00    -0.183 NA
HETATM   21  N   UNL     1      20.081  47.766  48.397  1.00  0.00    -0.268 N 
HETATM   22  C   UNL     1      20.977  48.763  48.739  1.00  0.00     0.052 A 
BRANCH  21  23
HETATM   23  C   UNL     1      18.635  47.756  48.633  1.00  0.00     0.106 C 
HETATM   24  C   UNL     1      18.351  48.086  50.102  1.00  0.00     0.034 C 
BRANCH  23  25
HETATM   25  C   UNL     1      17.829  48.699  47.714  1.00  0.00     0.022 C 
HETATM   26  C   UNL     1      16.904  49.636  48.480  1.00  0.00     0.007 C 
ENDBRANCH  23  25
ENDBRANCH  21  23
BRANCH  22  27
HETATM   27  C   UNL     1      20.576  50.048  49.471  1.00  0.00     0.038 A 
HETATM   28  C   UNL     1      21.596  51.127  49.743  1.00  0.00     0.011 A 
HETATM   29  C   UNL     1      20.518  51.366  48.737  1.00  0.00     0.011 A 
ENDBRANCH  22  27
ENDBRANCH   1  18
TORSDOF 8
ENDMDL
MODEL 9
REMARK VINA RESULT:      -7.5      6.303      9.793
REMARK  8 active torsions:
REMARK  status: ('A' for Active; 'I' for Inactive)
REMARK    1  A    between atoms: C_2  and  C_3 
REMARK    2  A    between atoms: C_3  and  N_4 
REMARK    3  A    between atoms: C_7  and  C_8 
REMARK       I    between atoms: C_8  and  N_9 
REMARK    4  A    between atoms: N_9  and  N_10 
REMARK       I    between atoms: N_10  and  C_11 
REMARK    5  A    between atoms: C_11  and  C_12 
REMARK    6  A    between atoms: C_12  and  O_13 
REMARK    7  A    between atoms: O_13  and  C_14 
REMARK    8  A    between atoms: C_23  and  C_24 
ROOT
HETATM    1  C   UNL     1      18.394  46.666  48.735  1.00  0.00     0.273 C 
HETATM    2  N   UNL     1      19.465  45.815  48.479  1.00  0.00    -0.263 N 
HETATM    3  O   UNL     1      17.262  46.313  48.411  1.00  0.00    -0.266 OA
HETATM    4  H   UNL     1      19.193  44.858  48.273  1.00  0.00     0.190 HD
ENDROOT
BRANCH   2   5
HETATM    5  N   UNL     1      20.747  46.013  49.012  1.00  0.00    -0.265 N 
HETATM    6  C   UNL     1      21.814  46.316  48.179  1.00  0.00     0.260 C 
HETATM    7  O   UNL     1      21.706  46.515  46.972  1.00  0.00    -0.269 OA
HETATM    8  H   UNL     1      20.860  45.977  50.020  1.00  0.00     0.190 HD
BRANCH   6   9
HETATM    9  C   UNL     1      23.153  46.298  48.903  1.00  0.00     0.280 C 
BRANCH   9  10
HETATM   10  O   UNL     1      23.265  47.487  49.683  1.00  0.00    -0.342 OA
BRANCH  10  11
HETATM   11  C   UNL     1      24.103  48.425  49.141  1.00  0.00     0.069 A 
HETATM   12  C   UNL     1      25.467  48.252  49.390  1.00  0.00     0.043 A 
HETATM   13  C   UNL     1      26.408  49.147  48.863  1.00  0.00    -0.059 A 
HETATM   14  C   UNL     1      27.875  48.971  49.127  1.00  0.00     0.048 C 
HETATM   15  C   UNL     1      25.967  50.196  48.049  1.00  0.00     0.007 A 
HETATM   16  C   UNL     1      24.607  50.356  47.779  1.00  0.00     0.003 A 
HETATM   17  C   UNL     1      23.674  49.471  48.324  1.00  0.00     0.037 A 
ENDBRANCH  10  11
ENDBRANCH   9  10
ENDBRANCH   6   9
ENDBRANCH   2   5
BRANCH   1  18
HETATM   18  C   UNL     1      18.691  47.954  49.343  1.00  0.00     0.077 A 
HETATM   19  C   UNL     1      18.563  48.265  50.718  1.00  0.00     0.158 A 
HETATM   20  N   UNL     1      18.773  49.549  50.990  1.00  0.00    -0.183 NA
HETATM   21  N   UNL     1      19.144  50.070  49.803  1.00  0.00    -0.268 N 
HETATM   22  C   UNL     1      19.106  49.151  48.770  1.00  0.00     0.052 A 
BRANCH  21  23
HETATM   23  C   UNL     1      19.434  51.502  49.705  1.00  0.00     0.106 C 
HETATM   24  C   UNL     1      20.526  51.736  48.656  1.00  0.00     0.034 C 
BRANCH  23  25
HETATM   25  C   UNL     1      18.206  52.385  49.393  1.00  0.00     0.022 C 
HETATM   26  C   UNL     1      16.889  51.619  49.444  1.00  0.00     0.007 C 
ENDBRANCH  23  25
ENDBRANCH  21  23
BRANCH  22  27
HETATM   27  C   UNL     1      19.400  49.508  47.308  1.00  0.00     0.038 A 
HETATM   28  C   UNL     1      18.872  48.647  46.186  1.00  0.00     0.011 A 
HETATM   29  C   UNL     1      18.301  50.010  46.402  1.00  0.00     0.011 A 
ENDBRANCH  22  27
ENDBRANCH   1  18
TORSDOF 8
ENDMDL
MODEL 10
REMARK VINA RESULT:      -7.4      1.311      2.478
REMARK  8 active torsions:
REMARK  status: ('A' for Active; 'I' for Inactive)
REMARK    1  A    between atoms: C_2  and  C_3 
REMARK    2  A    between atoms: C_3  and  N_4 
REMARK    3  A    between atoms: C_7  and  C_8 
REMARK       I    between atoms: C_8  and  N_9 
REMARK    4  A    between atoms: N_9  and  N_10 
REMARK       I    between atoms: N_10  and  C_11 
REMARK    5  A    between atoms: C_11  and  C_12 
REMARK    6  A    between atoms: C_12  and  O_13 
REMARK    7  A    between atoms: O_13  and  C_14 
REMARK    8  A    between atoms: C_23  and  C_24 
ROOT
HETATM    1  C   UNL     1      27.627  42.177  51.975  1.00  0.00     0.273 C 
HETATM    2  N   UNL     1      26.992  42.982  51.033  1.00  0.00    -0.263 N 
HETATM    3  O   UNL     1      27.387  40.972  51.988  1.00  0.00    -0.266 OA
HETATM    4  H   UNL     1      26.571  42.466  50.265  1.00  0.00     0.190 HD
ENDROOT
BRANCH   2   5
HETATM    5  N   UNL     1      27.366  44.309  50.780  1.00  0.00    -0.265 N 
HETATM    6  C   UNL     1      26.700  45.055  49.819  1.00  0.00     0.260 C 
HETATM    7  O   UNL     1      25.716  44.656  49.202  1.00  0.00    -0.269 OA
HETATM    8  H   UNL     1      28.098  44.721  51.352  1.00  0.00     0.190 HD
BRANCH   6   9
HETATM    9  C   UNL     1      27.367  46.396  49.545  1.00  0.00     0.280 C 
BRANCH   9  10
HETATM   10  O   UNL     1      26.673  47.407  50.273  1.00  0.00    -0.342 OA
BRANCH  10  11
HETATM   11  C   UNL     1      25.978  48.280  49.478  1.00  0.00     0.069 A 
HETATM   12  C   UNL     1      24.585  48.186  49.530  1.00  0.00     0.043 A 
HETATM   13  C   UNL     1      23.783  49.047  48.768  1.00  0.00    -0.059 A 
HETATM   14  C   UNL     1      22.286  48.952  48.816  1.00  0.00     0.048 C 
HETATM   15  C   UNL     1      24.395  50.032  47.985  1.00  0.00     0.007 A 
HETATM   16  C   UNL     1      25.786  50.142  47.951  1.00  0.00     0.003 A 
HETATM   17  C   UNL     1      26.578  49.268  48.698  1.00  0.00     0.037 A 
ENDBRANCH  10  11
ENDBRANCH   9  10
ENDBRANCH   6   9
ENDBRANCH   2   5
BRANCH   1  18
HETATM   18  C   UNL     1      28.518  42.830  52.923  1.00  0.00     0.077 A 
HETATM   19  C   UNL     1      29.926  42.695  52.957  1.00  0.00     0.158 A 
HETATM   20  N   UNL     1      30.488  43.292  54.003  1.00  0.00    -0.183 NA
HETATM   21  N   UNL     1      29.455  43.913  54.608  1.00  0.00    -0.268 N 
HETATM   22  C   UNL     1      28.238  43.662  54.002  1.00  0.00     0.052 A 
BRANCH  21  23
HETATM   23  C   UNL     1      29.692  44.666  55.842  1.00  0.00     0.106 C 
HETATM   24  C   UNL     1      30.964  44.153  56.523  1.00  0.00     0.034 C 
BRANCH  23  25
HETATM   25  C   UNL     1      29.775  46.196  55.652  1.00  0.00     0.022 C 
HETATM   26  C   UNL     1      28.409  46.862  55.545  1.00  0.00     0.007 C 
ENDBRANCH  23  25
ENDBRANCH  21  23
BRANCH  22  27
HETATM   27  C   UNL     1      26.900  44.180  54.541  1.00  0.00     0.038 A 
HETATM   28  C   UNL     1      25.608  43.855  53.831  1.00  0.00     0.011 A 
HETATM   29  C   UNL     1      25.899  43.231  55.157  1.00  0.00     0.011 A 
ENDBRANCH  22  27
ENDBRANCH   1  18
TORSDOF 8
ENDMDL
