MODEL 1
REMARK VINA RESULT:      -9.0      0.000      0.000
REMARK  6 active torsions:
REMARK  status: ('A' for Active; 'I' for Inactive)
REMARK    1  A    between atoms: C_4  and  C_5 
REMARK    2  A    between atoms: C_5  and  N_6 
REMARK    3  A    between atoms: C_5  and  C_22 
REMARK    4  A    between atoms: N_6  and  C_9 
REMARK    5  A    between atoms: C_9  and  C_10 
REMARK    6  A    between atoms: C_13  and  C_14 
REMARK       I    between atoms: C_22  and  N_23 
ROOT
HETATM    1  N   UNL     1      25.192  46.625  51.575  1.00  0.00    -0.054 N 
HETATM    2  H   UNL     1      25.207  47.415  52.229  1.00  0.00     0.278 HD
HETATM    3  H   UNL     1      24.307  46.683  51.055  1.00  0.00     0.278 HD
ENDROOT
BRANCH   1   4
HETATM    4  C   UNL     1      26.290  46.774  50.547  1.00  0.00     0.310 C 
BRANCH   4   5
HETATM    5  C   UNL     1      26.023  47.984  49.677  1.00  0.00    -0.019 A 
HETATM    6  C   UNL     1      24.703  48.346  49.360  1.00  0.00     0.010 A 
HETATM    7  C   UNL     1      24.451  49.455  48.549  1.00  0.00     0.001 A 
HETATM    8  C   UNL     1      25.508  50.206  48.040  1.00  0.00     0.000 A 
HETATM    9  C   UNL     1      26.820  49.852  48.338  1.00  0.00     0.001 A 
HETATM   10  C   UNL     1      27.080  48.747  49.148  1.00  0.00     0.010 A 
ENDBRANCH   4   5
BRANCH   4  11
HETATM   11  C   UNL     1      26.409  45.482  49.701  1.00  0.00     0.251 C 
HETATM   12  N   UNL     1      25.308  45.066  49.015  1.00  0.00    -0.368 N 
HETATM   13  H   UNL     1      24.364  45.342  49.264  1.00  0.00     0.159 HD
HETATM   14  H   UNL     1      25.385  44.183  48.517  1.00  0.00     0.159 HD
HETATM   15  O   UNL     1      27.480  44.883  49.621  1.00  0.00    -0.271 OA
ENDBRANCH   4  11
ENDBRANCH   1   4
BRANCH   1  16
HETATM   16  C   UNL     1      25.193  45.337  52.323  1.00  0.00     0.272 C 
BRANCH  16  17
HETATM   17  C   UNL     1      26.365  45.223  53.258  1.00  0.00    -0.033 A 
HETATM   18  C   UNL     1      26.755  46.299  54.067  1.00  0.00     0.010 A 
HETATM   19  C   UNL     1      27.828  46.170  54.958  1.00  0.00     0.013 A 
HETATM   20  C   UNL     1      28.530  44.960  55.091  1.00  0.00    -0.025 A 
HETATM   21  C   UNL     1      28.125  43.888  54.280  1.00  0.00     0.013 A 
HETATM   22  C   UNL     1      27.062  44.014  53.377  1.00  0.00     0.010 A 
BRANCH  20  23
HETATM   23  C   UNL     1      29.631  44.815  56.061  1.00  0.00    -0.008 A 
HETATM   24  C   UNL     1      29.753  45.654  57.173  1.00  0.00     0.128 A 
HETATM   25  N   UNL     1      30.736  45.579  58.103  1.00  0.00    -0.272 NA
HETATM   26  C   UNL     1      31.656  44.609  57.935  1.00  0.00     0.116 A 
HETATM   27  C   UNL     1      31.637  43.715  56.879  1.00  0.00     0.020 A 
HETATM   28  C   UNL     1      30.616  43.825  55.935  1.00  0.00     0.015 A 
ENDBRANCH  20  23
ENDBRANCH  16  17
ENDBRANCH   1  16
TORSDOF 6
ENDMDL
MODEL 2
REMARK VINA RESULT:      -8.7      2.359      3.220
REMARK  6 active torsions:
REMARK  status: ('A' for Active; 'I' for Inactive)
REMARK    1  A    between atoms: C_4  and  C_5 
REMARK    2  A    between atoms: C_5  and  N_6 
REMARK    3  A    between atoms: C_5  and  C_22 
REMARK    4  A    between atoms: N_6  and  C_9 
REMARK    5  A    between atoms: C_9  and  C_10 
REMARK    6  A    between atoms: C_13  and  C_14 
REMARK       I    between atoms: C_22  and  N_23 
ROOT
HETATM    1  N   UNL     1      25.616  42.336  51.282  1.00  0.00    -0.054 N 
HETATM    2  H   UNL     1      25.403  42.764  52.190  1.00  0.00     0.278 HD
HETATM    3  H   UNL     1      25.070  41.467  51.226  1.00  0.00     0.278 HD
ENDROOT
BRANCH   1   4
HETATM    4  C   UNL     1      25.119  43.214  50.157  1.00  0.00     0.310 C 
BRANCH   4   5
HETATM    5  C   UNL     1      25.430  44.666  50.458  1.00  0.00    -0.019 A 
HETATM    6  C   UNL     1      26.213  45.418  49.567  1.00  0.00     0.010 A 
HETATM    7  C   UNL     1      26.512  46.754  49.844  1.00  0.00     0.001 A 
HETATM    8  C   UNL     1      26.043  47.349  51.013  1.00  0.00     0.000 A 
HETATM    9  C   UNL     1      25.274  46.612  51.910  1.00  0.00     0.001 A 
HETATM   10  C   UNL     1      24.970  45.277  51.638  1.00  0.00     0.010 A 
ENDBRANCH   4   5
BRANCH   4  11
HETATM   11  C   UNL     1      23.602  42.993  49.938  1.00  0.00     0.251 C 
HETATM   12  N   UNL     1      23.167  42.779  48.665  1.00  0.00    -0.368 N 
HETATM   13  H   UNL     1      23.691  43.065  47.845  1.00  0.00     0.159 HD
HETATM   14  H   UNL     1      22.162  42.700  48.531  1.00  0.00     0.159 HD
HETATM   15  O   UNL     1      22.829  42.970  50.894  1.00  0.00    -0.271 OA
ENDBRANCH   4  11
ENDBRANCH   1   4
BRANCH   1  16
HETATM   16  C   UNL     1      27.057  41.969  51.212  1.00  0.00     0.272 C 
BRANCH  16  17
HETATM   17  C   UNL     1      27.843  42.528  52.367  1.00  0.00    -0.033 A 
HETATM   18  C   UNL     1      27.207  43.195  53.422  1.00  0.00     0.010 A 
HETATM   19  C   UNL     1      27.946  43.681  54.508  1.00  0.00     0.013 A 
HETATM   20  C   UNL     1      29.336  43.498  54.590  1.00  0.00    -0.025 A 
HETATM   21  C   UNL     1      29.961  42.823  53.530  1.00  0.00     0.013 A 
HETATM   22  C   UNL     1      29.230  42.346  52.434  1.00  0.00     0.010 A 
BRANCH  20  23
HETATM   23  C   UNL     1      30.105  43.974  55.756  1.00  0.00    -0.008 A 
HETATM   24  C   UNL     1      29.877  45.228  56.331  1.00  0.00     0.128 A 
HETATM   25  N   UNL     1      30.543  45.729  57.399  1.00  0.00    -0.272 NA
HETATM   26  C   UNL     1      31.491  44.942  57.946  1.00  0.00     0.116 A 
HETATM   27  C   UNL     1      31.802  43.681  57.469  1.00  0.00     0.020 A 
HETATM   28  C   UNL     1      31.103  43.198  56.362  1.00  0.00     0.015 A 
ENDBRANCH  20  23
ENDBRANCH  16  17
ENDBRANCH   1  16
TORSDOF 6
ENDMDL
MODEL 3
REMARK VINA RESULT:      -8.5      2.385      8.537
REMARK  6 active torsions:
REMARK  status: ('A' for Active; 'I' for Inactive)
REMARK    1  A    between atoms: C_4  and  C_5 
REMARK    2  A    between atoms: C_5  and  N_6 
REMARK    3  A    between atoms: C_5  and  C_22 
REMARK    4  A    between atoms: N_6  and  C_9 
REMARK    5  A    between atoms: C_9  and  C_10 
REMARK    6  A    between atoms: C_13  and  C_14 
REMARK       I    between atoms: C_22  and  N_23 
ROOT
HETATM    1  N   UNL     1      26.908  44.005  51.991  1.00  0.00    -0.054 N 
HETATM    2  H   UNL     1      27.436  43.134  52.117  1.00  0.00     0.278 HD
HETATM    3  H   UNL     1      25.910  43.756  52.024  1.00  0.00     0.278 HD
ENDROOT
BRANCH   1   4
HETATM    4  C   UNL     1      27.143  44.936  53.158  1.00  0.00     0.310 C 
BRANCH   4   5
HETATM    5  C   UNL     1      28.362  44.489  53.938  1.00  0.00    -0.019 A 
HETATM    6  C   UNL     1      28.810  45.242  55.036  1.00  0.00     0.010 A 
HETATM    7  C   UNL     1      29.940  44.840  55.753  1.00  0.00     0.001 A 
HETATM    8  C   UNL     1      30.636  43.693  55.379  1.00  0.00     0.000 A 
HETATM    9  C   UNL     1      30.208  42.943  54.288  1.00  0.00     0.001 A 
HETATM   10  C   UNL     1      29.079  43.337  53.567  1.00  0.00     0.010 A 
ENDBRANCH   4   5
BRANCH   4  11
HETATM   11  C   UNL     1      25.884  44.996  54.057  1.00  0.00     0.251 C 
HETATM   12  N   UNL     1      25.293  43.820  54.404  1.00  0.00    -0.368 N 
HETATM   13  H   UNL     1      25.414  42.962  53.875  1.00  0.00     0.159 HD
HETATM   14  H   UNL     1      24.431  43.880  54.940  1.00  0.00     0.159 HD
HETATM   15  O   UNL     1      25.465  46.075  54.475  1.00  0.00    -0.271 OA
ENDBRANCH   4  11
ENDBRANCH   1   4
BRANCH   1  16
HETATM   16  C   UNL     1      27.184  44.585  50.648  1.00  0.00     0.272 C 
BRANCH  16  17
HETATM   17  C   UNL     1      26.226  45.691  50.299  1.00  0.00    -0.033 A 
HETATM   18  C   UNL     1      26.683  46.991  50.038  1.00  0.00     0.010 A 
HETATM   19  C   UNL     1      25.785  48.004  49.682  1.00  0.00     0.013 A 
HETATM   20  C   UNL     1      24.409  47.753  49.548  1.00  0.00    -0.025 A 
HETATM   21  C   UNL     1      23.965  46.445  49.805  1.00  0.00     0.013 A 
HETATM   22  C   UNL     1      24.856  45.430  50.176  1.00  0.00     0.010 A 
BRANCH  20  23
HETATM   23  C   UNL     1      23.472  48.813  49.130  1.00  0.00    -0.008 A 
HETATM   24  C   UNL     1      22.091  48.605  49.089  1.00  0.00     0.128 A 
HETATM   25  N   UNL     1      21.173  49.530  48.717  1.00  0.00    -0.272 NA
HETATM   26  C   UNL     1      21.644  50.744  48.370  1.00  0.00     0.116 A 
HETATM   27  C   UNL     1      22.988  51.071  48.377  1.00  0.00     0.020 A 
HETATM   28  C   UNL     1      23.907  50.093  48.758  1.00  0.00     0.015 A 
ENDBRANCH  20  23
ENDBRANCH  16  17
ENDBRANCH   1  16
TORSDOF 6
ENDMDL
MODEL 4
REMARK VINA RESULT:      -8.4     11.889     13.142
REMARK  6 active torsions:
REMARK  status: ('A' for Active; 'I' for Inactive)
REMARK    1  A    between atoms: C_4  and  C_5 
REMARK    2  A    between atoms: C_5  and  N_6 
REMARK    3  A    between atoms: C_5  and  C_22 
REMARK    4  A    between atoms: N_6  and  C_9 
REMARK    5  A    between atoms: C_9  and  C_10 
REMARK    6  A    between atoms: C_13  and  C_14 
REMARK       I    between atoms: C_22  and  N_23 
ROOT
HETATM    1  N   UNL     1      27.318  48.468  40.625  1.00  0.00    -0.054 N 
HETATM    2  H   UNL     1      27.294  48.989  41.508  1.00  0.00     0.278 HD
HETATM    3  H   UNL     1      26.454  47.912  40.583  1.00  0.00     0.278 HD
ENDROOT
BRANCH   1   4
HETATM    4  C   UNL     1      27.258  49.419  39.452  1.00  0.00     0.310 C 
BRANCH   4   5
HETATM    5  C   UNL     1      27.924  50.730  39.815  1.00  0.00    -0.019 A 
HETATM    6  C   UNL     1      28.937  51.256  38.997  1.00  0.00     0.010 A 
HETATM    7  C   UNL     1      29.563  52.459  39.332  1.00  0.00     0.001 A 
HETATM    8  C   UNL     1      29.191  53.144  40.487  1.00  0.00     0.000 A 
HETATM    9  C   UNL     1      28.195  52.629  41.312  1.00  0.00     0.001 A 
HETATM   10  C   UNL     1      27.565  51.428  40.982  1.00  0.00     0.010 A 
ENDBRANCH   4   5
BRANCH   4  11
HETATM   11  C   UNL     1      25.789  49.632  39.012  1.00  0.00     0.251 C 
HETATM   12  N   UNL     1      25.543  50.545  38.031  1.00  0.00    -0.368 N 
HETATM   13  H   UNL     1      26.183  51.299  37.803  1.00  0.00     0.159 HD
HETATM   14  H   UNL     1      24.568  50.718  37.799  1.00  0.00     0.159 HD
HETATM   15  O   UNL     1      24.884  48.962  39.508  1.00  0.00    -0.271 OA
ENDBRANCH   4  11
ENDBRANCH   1   4
BRANCH   1  16
HETATM   16  C   UNL     1      28.466  47.520  40.616  1.00  0.00     0.272 C 
BRANCH  16  17
HETATM   17  C   UNL     1      29.755  48.185  41.015  1.00  0.00    -0.033 A 
HETATM   18  C   UNL     1      30.832  48.275  40.123  1.00  0.00     0.010 A 
HETATM   19  C   UNL     1      32.015  48.925  40.495  1.00  0.00     0.013 A 
HETATM   20  C   UNL     1      32.155  49.529  41.756  1.00  0.00    -0.025 A 
HETATM   21  C   UNL     1      31.067  49.439  42.638  1.00  0.00     0.013 A 
HETATM   22  C   UNL     1      29.886  48.778  42.278  1.00  0.00     0.010 A 
BRANCH  20  23
HETATM   23  C   UNL     1      33.387  50.251  42.128  1.00  0.00    -0.008 A 
HETATM   24  C   UNL     1      33.380  51.295  43.057  1.00  0.00     0.128 A 
HETATM   25  N   UNL     1      34.470  52.000  43.446  1.00  0.00    -0.272 NA
HETATM   26  C   UNL     1      35.647  51.651  42.892  1.00  0.00     0.116 A 
HETATM   27  C   UNL     1      35.781  50.631  41.966  1.00  0.00     0.020 A 
HETATM   28  C   UNL     1      34.638  49.930  41.581  1.00  0.00     0.015 A 
ENDBRANCH  20  23
ENDBRANCH  16  17
ENDBRANCH   1  16
TORSDOF 6
ENDMDL
MODEL 5
REMARK VINA RESULT:      -8.4      2.452      8.099
REMARK  6 active torsions:
REMARK  status: ('A' for Active; 'I' for Inactive)
REMARK    1  A    between atoms: C_4  and  C_5 
REMARK    2  A    between atoms: C_5  and  N_6 
REMARK    3  A    between atoms: C_5  and  C_22 
REMARK    4  A    between atoms: N_6  and  C_9 
REMARK    5  A    between atoms: C_9  and  C_10 
REMARK    6  A    between atoms: C_13  and  C_14 
REMARK       I    between atoms: C_22  and  N_23 
ROOT
HETATM    1  N   UNL     1      26.948  42.797  52.794  1.00  0.00    -0.054 N 
HETATM    2  H   UNL     1      27.638  42.126  53.149  1.00  0.00     0.278 HD
HETATM    3  H   UNL     1      26.019  42.425  53.032  1.00  0.00     0.278 HD
ENDROOT
BRANCH   1   4
HETATM    4  C   UNL     1      27.070  44.113  53.528  1.00  0.00     0.310 C 
BRANCH   4   5
HETATM    5  C   UNL     1      28.363  44.148  54.316  1.00  0.00    -0.019 A 
HETATM    6  C   UNL     1      29.263  43.073  54.240  1.00  0.00     0.010 A 
HETATM    7  C   UNL     1      30.452  43.094  54.972  1.00  0.00     0.001 A 
HETATM    8  C   UNL     1      30.750  44.180  55.793  1.00  0.00     0.000 A 
HETATM    9  C   UNL     1      29.862  45.248  55.885  1.00  0.00     0.001 A 
HETATM   10  C   UNL     1      28.673  45.234  55.154  1.00  0.00     0.010 A 
ENDBRANCH   4   5
BRANCH   4  11
HETATM   11  C   UNL     1      25.841  44.329  54.445  1.00  0.00     0.251 C 
HETATM   12  N   UNL     1      25.479  43.313  55.276  1.00  0.00    -0.368 N 
HETATM   13  H   UNL     1      25.741  42.346  55.114  1.00  0.00     0.159 HD
HETATM   14  H   UNL     1      24.633  43.447  55.823  1.00  0.00     0.159 HD
HETATM   15  O   UNL     1      25.244  45.405  54.447  1.00  0.00    -0.271 OA
ENDBRANCH   4  11
ENDBRANCH   1   4
BRANCH   1  16
HETATM   16  C   UNL     1      27.033  42.887  51.310  1.00  0.00     0.272 C 
BRANCH  16  17
HETATM   17  C   UNL     1      26.381  44.134  50.778  1.00  0.00    -0.033 A 
HETATM   18  C   UNL     1      24.999  44.335  50.890  1.00  0.00     0.010 A 
HETATM   19  C   UNL     1      24.409  45.515  50.420  1.00  0.00     0.013 A 
HETATM   20  C   UNL     1      25.178  46.541  49.847  1.00  0.00    -0.025 A 
HETATM   21  C   UNL     1      26.562  46.331  49.747  1.00  0.00     0.013 A 
HETATM   22  C   UNL     1      27.157  45.148  50.202  1.00  0.00     0.010 A 
BRANCH  20  23
HETATM   23  C   UNL     1      24.558  47.801  49.392  1.00  0.00    -0.008 A 
HETATM   24  C   UNL     1      23.172  47.972  49.355  1.00  0.00     0.128 A 
HETATM   25  N   UNL     1      22.535  49.098  48.951  1.00  0.00    -0.272 NA
HETATM   26  C   UNL     1      23.313  50.128  48.565  1.00  0.00     0.116 A 
HETATM   27  C   UNL     1      24.696  50.081  48.564  1.00  0.00     0.020 A 
HETATM   28  C   UNL     1      25.320  48.904  48.979  1.00  0.00     0.015 A 
ENDBRANCH  20  23
ENDBRANCH  16  17
ENDBRANCH   1  16
TORSDOF 6
ENDMDL
MODEL 6
REMARK VINA RESULT:      -8.3      4.206      7.847
REMARK  6 active torsions:
REMARK  status: ('A' for Active; 'I' for Inactive)
REMARK    1  A    between atoms: C_4  and  C_5 
REMARK    2  A    between atoms: C_5  and  N_6 
REMARK    3  A    between atoms: C_5  and  C_22 
REMARK    4  A    between atoms: N_6  and  C_9 
REMARK    5  A    between atoms: C_9  and  C_10 
REMARK    6  A    between atoms: C_13  and  C_14 
REMARK       I    between atoms: C_22  and  N_23 
ROOT
HETATM    1  N   UNL     1      27.253  44.705  55.064  1.00  0.00    -0.054 N 
HETATM    2  H   UNL     1      27.475  43.823  55.539  1.00  0.00     0.278 HD
HETATM    3  H   UNL     1      26.637  45.236  55.692  1.00  0.00     0.278 HD
ENDROOT
BRANCH   1   4
HETATM    4  C   UNL     1      28.502  45.541  54.900  1.00  0.00     0.310 C 
BRANCH   4   5
HETATM    5  C   UNL     1      29.539  45.127  55.923  1.00  0.00    -0.019 A 
HETATM    6  C   UNL     1      30.373  44.025  55.675  1.00  0.00     0.010 A 
HETATM    7  C   UNL     1      31.324  43.632  56.620  1.00  0.00     0.001 A 
HETATM    8  C   UNL     1      31.446  44.327  57.822  1.00  0.00     0.000 A 
HETATM    9  C   UNL     1      30.619  45.415  58.084  1.00  0.00     0.001 A 
HETATM   10  C   UNL     1      29.668  45.814  57.144  1.00  0.00     0.010 A 
ENDBRANCH   4   5
BRANCH   4  11
HETATM   11  C   UNL     1      28.157  47.045  55.018  1.00  0.00     0.251 C 
HETATM   12  N   UNL     1      27.063  47.393  55.752  1.00  0.00    -0.368 N 
HETATM   13  H   UNL     1      26.302  46.751  55.949  1.00  0.00     0.159 HD
HETATM   14  H   UNL     1      26.814  48.379  55.766  1.00  0.00     0.159 HD
HETATM   15  O   UNL     1      28.879  47.895  54.498  1.00  0.00    -0.271 OA
ENDBRANCH   4  11
ENDBRANCH   1   4
BRANCH   1  16
HETATM   16  C   UNL     1      26.497  44.439  53.809  1.00  0.00     0.272 C 
BRANCH  16  17
HETATM   17  C   UNL     1      27.100  43.317  53.009  1.00  0.00    -0.033 A 
HETATM   18  C   UNL     1      27.793  42.271  53.633  1.00  0.00     0.010 A 
HETATM   19  C   UNL     1      28.321  41.215  52.880  1.00  0.00     0.013 A 
HETATM   20  C   UNL     1      28.156  41.153  51.487  1.00  0.00    -0.025 A 
HETATM   21  C   UNL     1      27.454  42.203  50.874  1.00  0.00     0.013 A 
HETATM   22  C   UNL     1      26.935  43.270  51.618  1.00  0.00     0.010 A 
BRANCH  20  23
HETATM   23  C   UNL     1      28.676  40.017  50.702  1.00  0.00    -0.008 A 
HETATM   24  C   UNL     1      28.510  39.937  49.317  1.00  0.00     0.128 A 
HETATM   25  N   UNL     1      28.961  38.926  48.534  1.00  0.00    -0.272 NA
HETATM   26  C   UNL     1      29.627  37.932  49.152  1.00  0.00     0.116 A 
HETATM   27  C   UNL     1      29.859  37.903  50.516  1.00  0.00     0.020 A 
HETATM   28  C   UNL     1      29.376  38.955  51.295  1.00  0.00     0.015 A 
ENDBRANCH  20  23
ENDBRANCH  16  17
ENDBRANCH   1  16
TORSDOF 6
ENDMDL
MODEL 7
REMARK VINA RESULT:      -8.0      2.671      8.339
REMARK  6 active torsions:
REMARK  status: ('A' for Active; 'I' for Inactive)
REMARK    1  A    between atoms: C_4  and  C_5 
REMARK    2  A    between atoms: C_5  and  N_6 
REMARK    3  A    between atoms: C_5  and  C_22 
REMARK    4  A    between atoms: N_6  and  C_9 
REMARK    5  A    between atoms: C_9  and  C_10 
REMARK    6  A    between atoms: C_13  and  C_14 
REMARK       I    between atoms: C_22  and  N_23 
ROOT
HETATM    1  N   UNL     1      27.725  42.674  52.966  1.00  0.00    -0.054 N 
HETATM    2  H   UNL     1      28.529  42.127  53.295  1.00  0.00     0.278 HD
HETATM    3  H   UNL     1      26.879  42.173  53.268  1.00  0.00     0.278 HD
ENDROOT
BRANCH   1   4
HETATM    4  C   UNL     1      27.685  44.016  53.661  1.00  0.00     0.310 C 
BRANCH   4   5
HETATM    5  C   UNL     1      28.857  44.141  54.613  1.00  0.00    -0.019 A 
HETATM    6  C   UNL     1      29.779  43.088  54.736  1.00  0.00     0.010 A 
HETATM    7  C   UNL     1      30.855  43.193  55.620  1.00  0.00     0.001 A 
HETATM    8  C   UNL     1      31.017  44.340  56.394  1.00  0.00     0.000 A 
HETATM    9  C   UNL     1      30.105  45.386  56.289  1.00  0.00     0.001 A 
HETATM   10  C   UNL     1      29.028  45.289  55.407  1.00  0.00     0.010 A 
ENDBRANCH   4   5
BRANCH   4  11
HETATM   11  C   UNL     1      26.335  44.196  54.397  1.00  0.00     0.251 C 
HETATM   12  N   UNL     1      25.839  43.133  55.089  1.00  0.00    -0.368 N 
HETATM   13  H   UNL     1      26.110  42.174  54.899  1.00  0.00     0.159 HD
HETATM   14  H   UNL     1      24.922  43.249  55.512  1.00  0.00     0.159 HD
HETATM   15  O   UNL     1      25.758  45.283  54.387  1.00  0.00    -0.271 OA
ENDBRANCH   4  11
ENDBRANCH   1   4
BRANCH   1  16
HETATM   16  C   UNL     1      27.711  42.728  51.479  1.00  0.00     0.272 C 
BRANCH  16  17
HETATM   17  C   UNL     1      26.690  43.700  50.954  1.00  0.00    -0.033 A 
HETATM   18  C   UNL     1      27.077  44.899  50.342  1.00  0.00     0.010 A 
HETATM   19  C   UNL     1      26.118  45.780  49.828  1.00  0.00     0.013 A 
HETATM   20  C   UNL     1      24.746  45.485  49.884  1.00  0.00    -0.025 A 
HETATM   21  C   UNL     1      24.371  44.277  50.493  1.00  0.00     0.013 A 
HETATM   22  C   UNL     1      25.324  43.397  51.022  1.00  0.00     0.010 A 
BRANCH  20  23
HETATM   23  C   UNL     1      23.741  46.395  49.303  1.00  0.00    -0.008 A 
HETATM   24  C   UNL     1      23.740  47.767  49.574  1.00  0.00     0.128 A 
HETATM   25  N   UNL     1      22.851  48.660  49.076  1.00  0.00    -0.272 NA
HETATM   26  C   UNL     1      21.903  48.175  48.250  1.00  0.00     0.116 A 
HETATM   27  C   UNL     1      21.806  46.839  47.902  1.00  0.00     0.020 A 
HETATM   28  C   UNL     1      22.733  45.945  48.438  1.00  0.00     0.015 A 
ENDBRANCH  20  23
ENDBRANCH  16  17
ENDBRANCH   1  16
TORSDOF 6
ENDMDL
MODEL 8
REMARK VINA RESULT:      -8.0      4.724      6.797
REMARK  6 active torsions:
REMARK  status: ('A' for Active; 'I' for Inactive)
REMARK    1  A    between atoms: C_4  and  C_5 
REMARK    2  A    between atoms: C_5  and  N_6 
REMARK    3  A    between atoms: C_5  and  C_22 
REMARK    4  A    between atoms: N_6  and  C_9 
REMARK    5  A    between atoms: C_9  and  C_10 
REMARK    6  A    between atoms: C_13  and  C_14 
REMARK       I    between atoms: C_22  and  N_23 
ROOT
HETATM    1  N   UNL     1      27.112  41.390  48.956  1.00  0.00    -0.054 N 
HETATM    2  H   UNL     1      28.064  41.757  49.067  1.00  0.00     0.278 HD
HETATM    3  H   UNL     1      26.590  42.080  48.400  1.00  0.00     0.278 HD
ENDROOT
BRANCH   1   4
HETATM    4  C   UNL     1      27.131  40.121  48.135  1.00  0.00     0.310 C 
BRANCH   4   5
HETATM    5  C   UNL     1      27.793  39.008  48.921  1.00  0.00    -0.019 A 
HETATM    6  C   UNL     1      27.041  37.899  49.341  1.00  0.00     0.010 A 
HETATM    7  C   UNL     1      27.643  36.874  50.074  1.00  0.00     0.001 A 
HETATM    8  C   UNL     1      28.995  36.949  50.404  1.00  0.00     0.000 A 
HETATM    9  C   UNL     1      29.750  38.047  50.002  1.00  0.00     0.001 A 
HETATM   10  C   UNL     1      29.155  39.074  49.267  1.00  0.00     0.010 A 
ENDBRANCH   4   5
BRANCH   4  11
HETATM   11  C   UNL     1      27.850  40.368  46.786  1.00  0.00     0.251 C 
HETATM   12  N   UNL     1      27.662  39.460  45.789  1.00  0.00    -0.368 N 
HETATM   13  H   UNL     1      27.363  38.505  45.958  1.00  0.00     0.159 HD
HETATM   14  H   UNL     1      28.192  39.603  44.932  1.00  0.00     0.159 HD
HETATM   15  O   UNL     1      28.531  41.378  46.616  1.00  0.00    -0.271 OA
ENDBRANCH   4  11
ENDBRANCH   1   4
BRANCH   1  16
HETATM   16  C   UNL     1      26.444  41.280  50.282  1.00  0.00     0.272 C 
BRANCH  16  17
HETATM   17  C   UNL     1      27.237  41.943  51.375  1.00  0.00    -0.033 A 
HETATM   18  C   UNL     1      27.081  43.307  51.658  1.00  0.00     0.010 A 
HETATM   19  C   UNL     1      27.800  43.906  52.700  1.00  0.00     0.013 A 
HETATM   20  C   UNL     1      28.677  43.163  53.508  1.00  0.00    -0.025 A 
HETATM   21  C   UNL     1      28.818  41.797  53.219  1.00  0.00     0.013 A 
HETATM   22  C   UNL     1      28.113  41.194  52.170  1.00  0.00     0.010 A 
BRANCH  20  23
HETATM   23  C   UNL     1      29.399  43.789  54.632  1.00  0.00    -0.008 A 
HETATM   24  C   UNL     1      29.051  45.049  55.126  1.00  0.00     0.128 A 
HETATM   25  N   UNL     1      29.668  45.682  56.153  1.00  0.00    -0.272 NA
HETATM   26  C   UNL     1      30.691  45.031  56.739  1.00  0.00     0.116 A 
HETATM   27  C   UNL     1      31.124  43.777  56.343  1.00  0.00     0.020 A 
HETATM   28  C   UNL     1      30.471  43.156  55.278  1.00  0.00     0.015 A 
ENDBRANCH  20  23
ENDBRANCH  16  17
ENDBRANCH   1  16
TORSDOF 6
ENDMDL
MODEL 9
REMARK VINA RESULT:      -7.9     12.177     14.981
REMARK  6 active torsions:
REMARK  status: ('A' for Active; 'I' for Inactive)
REMARK    1  A    between atoms: C_4  and  C_5 
REMARK    2  A    between atoms: C_5  and  N_6 
REMARK    3  A    between atoms: C_5  and  C_22 
REMARK    4  A    between atoms: N_6  and  C_9 
REMARK    5  A    between atoms: C_9  and  C_10 
REMARK    6  A    between atoms: C_13  and  C_14 
REMARK       I    between atoms: C_22  and  N_23 
ROOT
HETATM    1  N   UNL     1      31.478  53.554  40.675  1.00  0.00    -0.054 N 
HETATM    2  H   UNL     1      31.483  53.453  41.696  1.00  0.00     0.278 HD
HETATM    3  H   UNL     1      32.176  54.274  40.443  1.00  0.00     0.278 HD
ENDROOT
BRANCH   1   4
HETATM    4  C   UNL     1      31.961  52.281  40.019  1.00  0.00     0.310 C 
BRANCH   4   5
HETATM    5  C   UNL     1      31.764  51.109  40.958  1.00  0.00    -0.019 A 
HETATM    6  C   UNL     1      32.179  51.202  42.297  1.00  0.00     0.010 A 
HETATM    7  C   UNL     1      32.010  50.121  43.165  1.00  0.00     0.001 A 
HETATM    8  C   UNL     1      31.437  48.937  42.706  1.00  0.00     0.000 A 
HETATM    9  C   UNL     1      31.031  48.828  41.379  1.00  0.00     0.001 A 
HETATM   10  C   UNL     1      31.195  49.904  40.507  1.00  0.00     0.010 A 
ENDBRANCH   4   5
BRANCH   4  11
HETATM   11  C   UNL     1      33.443  52.426  39.596  1.00  0.00     0.251 C 
HETATM   12  N   UNL     1      34.107  51.303  39.203  1.00  0.00    -0.368 N 
HETATM   13  H   UNL     1      33.816  50.367  39.466  1.00  0.00     0.159 HD
HETATM   14  H   UNL     1      35.096  51.406  38.991  1.00  0.00     0.159 HD
HETATM   15  O   UNL     1      33.983  53.531  39.576  1.00  0.00    -0.271 OA
ENDBRANCH   4  11
ENDBRANCH   1   4
BRANCH   1  16
HETATM   16  C   UNL     1      30.152  54.045  40.211  1.00  0.00     0.272 C 
BRANCH  16  17
HETATM   17  C   UNL     1      29.143  52.934  40.095  1.00  0.00    -0.033 A 
HETATM   18  C   UNL     1      28.812  52.383  38.850  1.00  0.00     0.010 A 
HETATM   19  C   UNL     1      27.896  51.327  38.759  1.00  0.00     0.013 A 
HETATM   20  C   UNL     1      27.302  50.770  39.903  1.00  0.00    -0.025 A 
HETATM   21  C   UNL     1      27.648  51.327  41.145  1.00  0.00     0.013 A 
HETATM   22  C   UNL     1      28.552  52.392  41.243  1.00  0.00     0.010 A 
BRANCH  20  23
HETATM   23  C   UNL     1      26.371  49.630  39.806  1.00  0.00    -0.008 A 
HETATM   24  C   UNL     1      26.548  48.464  40.557  1.00  0.00     0.128 A 
HETATM   25  N   UNL     1      25.735  47.380  40.520  1.00  0.00    -0.272 NA
HETATM   26  C   UNL     1      24.672  47.449  39.695  1.00  0.00     0.116 A 
HETATM   27  C   UNL     1      24.388  48.551  38.908  1.00  0.00     0.020 A 
HETATM   28  C   UNL     1      25.249  49.647  38.965  1.00  0.00     0.015 A 
ENDBRANCH  20  23
ENDBRANCH  16  17
ENDBRANCH   1  16
TORSDOF 6
ENDMDL
MODEL 10
REMARK VINA RESULT:      -7.8      4.523      6.655
REMARK  6 active torsions:
REMARK  status: ('A' for Active; 'I' for Inactive)
REMARK    1  A    between atoms: C_4  and  C_5 
REMARK    2  A    between atoms: C_5  and  N_6 
REMARK    3  A    between atoms: C_5  and  C_22 
REMARK    4  A    between atoms: N_6  and  C_9 
REMARK    5  A    between atoms: C_9  and  C_10 
REMARK    6  A    between atoms: C_13  and  C_14 
REMARK       I    between atoms: C_22  and  N_23 
ROOT
HETATM    1  N   UNL     1      28.150  39.949  51.418  1.00  0.00    -0.054 N 
HETATM    2  H   UNL     1      27.310  40.526  51.298  1.00  0.00     0.278 HD
HETATM    3  H   UNL     1      27.836  39.033  51.766  1.00  0.00     0.278 HD
ENDROOT
BRANCH   1   4
HETATM    4  C   UNL     1      28.800  39.684  50.079  1.00  0.00     0.310 C 
BRANCH   4   5
HETATM    5  C   UNL     1      27.833  40.012  48.961  1.00  0.00    -0.019 A 
HETATM    6  C   UNL     1      26.453  40.062  49.215  1.00  0.00     0.010 A 
HETATM    7  C   UNL     1      25.555  40.354  48.185  1.00  0.00     0.001 A 
HETATM    8  C   UNL     1      26.022  40.587  46.894  1.00  0.00     0.000 A 
HETATM    9  C   UNL     1      27.387  40.530  46.626  1.00  0.00     0.001 A 
HETATM   10  C   UNL     1      28.289  40.242  47.650  1.00  0.00     0.010 A 
ENDBRANCH   4   5
BRANCH   4  11
HETATM   11  C   UNL     1      29.281  38.214  50.000  1.00  0.00     0.251 C 
HETATM   12  N   UNL     1      28.359  37.231  50.194  1.00  0.00    -0.368 N 
HETATM   13  H   UNL     1      27.486  37.380  50.688  1.00  0.00     0.159 HD
HETATM   14  H   UNL     1      28.704  36.274  50.203  1.00  0.00     0.159 HD
HETATM   15  O   UNL     1      30.452  37.953  49.727  1.00  0.00    -0.271 OA
ENDBRANCH   4  11
ENDBRANCH   1   4
BRANCH   1  16
HETATM   16  C   UNL     1      29.041  40.544  52.451  1.00  0.00     0.272 C 
BRANCH  16  17
HETATM   17  C   UNL     1      28.536  41.874  52.940  1.00  0.00    -0.033 A 
HETATM   18  C   UNL     1      29.184  42.559  53.977  1.00  0.00     0.010 A 
HETATM   19  C   UNL     1      28.724  43.812  54.400  1.00  0.00     0.013 A 
HETATM   20  C   UNL     1      27.623  44.434  53.790  1.00  0.00    -0.025 A 
HETATM   21  C   UNL     1      26.987  43.741  52.747  1.00  0.00     0.013 A 
HETATM   22  C   UNL     1      27.433  42.481  52.327  1.00  0.00     0.010 A 
BRANCH  20  23
HETATM   23  C   UNL     1      27.168  45.774  54.210  1.00  0.00    -0.008 A 
HETATM   24  C   UNL     1      26.071  46.403  53.615  1.00  0.00     0.128 A 
HETATM   25  N   UNL     1      25.598  47.628  53.949  1.00  0.00    -0.272 NA
HETATM   26  C   UNL     1      26.241  48.276  54.940  1.00  0.00     0.116 A 
HETATM   27  C   UNL     1      27.335  47.753  55.608  1.00  0.00     0.020 A 
HETATM   28  C   UNL     1      27.801  46.492  55.234  1.00  0.00     0.015 A 
ENDBRANCH  20  23
ENDBRANCH  16  17
ENDBRANCH   1  16
TORSDOF 6
ENDMDL
