MODEL 1
REMARK VINA RESULT:      -9.5      0.000      0.000
REMARK  4 active torsions:
REMARK  status: ('A' for Active; 'I' for Inactive)
REMARK    1  A    between atoms: C_6  and  N_7 
REMARK       I    between atoms: N_7  and  C_8 
REMARK    2  A    between atoms: C_8  and  C_9 
REMARK    3  A    between atoms: C_10  and  C_11 
REMARK    4  A    between atoms: C_13  and  O_14 
ROOT
HETATM    1  C   UNL     1      25.528  44.617  51.936  1.00  0.00     0.062 C 
HETATM    2  C   UNL     1      24.817  43.430  51.295  1.00  0.00     0.202 C 
HETATM    3  N   UNL     1      23.859  43.889  50.283  1.00  0.00    -0.084 N 
HETATM    4  C   UNL     1      23.797  45.175  49.812  1.00  0.00     0.725 A 
HETATM    5  N   UNL     1      24.630  46.104  50.320  1.00  0.00    -0.192 N 
HETATM    6  N   UNL     1      22.871  43.130  49.763  1.00  0.00    -0.149 NA
HETATM    7  C   UNL     1      22.314  44.001  48.913  1.00  0.00     0.275 A 
HETATM    8  N   UNL     1      22.846  45.266  48.919  1.00  0.00    -0.054 NA
HETATM    9  C   UNL     1      25.445  45.869  51.422  1.00  0.00     0.037 C 
HETATM   10  C   UNL     1      26.194  47.063  51.957  1.00  0.00     0.070 C 
HETATM   11  H   UNL     1      24.548  47.061  49.986  1.00  0.00     0.184 HD
ENDROOT
BRANCH   1  12
HETATM   12  C   UNL     1      26.264  44.304  53.186  1.00  0.00     0.256 C 
HETATM   13  N   UNL     1      27.631  44.401  53.024  1.00  0.00    -0.323 N 
HETATM   14  H   UNL     1      27.960  44.628  52.095  1.00  0.00     0.169 HD
HETATM   15  O   UNL     1      25.645  44.048  54.208  1.00  0.00    -0.267 OA
BRANCH  13  16
HETATM   16  C   UNL     1      28.632  44.248  54.015  1.00  0.00     0.041 A 
HETATM   17  C   UNL     1      29.513  43.148  53.929  1.00  0.00    -0.035 A 
HETATM   18  C   UNL     1      30.536  43.004  54.887  1.00  0.00     0.015 A 
HETATM   19  C   UNL     1      29.410  42.113  52.842  1.00  0.00     0.050 C 
HETATM   20  C   UNL     1      30.686  43.920  55.934  1.00  0.00    -0.061 A 
HETATM   21  C   UNL     1      31.805  43.783  56.922  1.00  0.00     0.048 C 
HETATM   22  C   UNL     1      29.811  45.001  56.009  1.00  0.00     0.009 A 
HETATM   23  C   UNL     1      28.793  45.160  55.063  1.00  0.00     0.030 A 
ENDBRANCH  13  16
ENDBRANCH   1  12
BRANCH   2  24
HETATM   24  C   UNL     1      25.764  42.406  50.677  1.00  0.00    -0.025 A 
HETATM   25  C   UNL     1      26.311  42.642  49.400  1.00  0.00     0.046 A 
HETATM   26  C   UNL     1      27.171  41.714  48.806  1.00  0.00     0.068 A 
HETATM   27  C   UNL     1      27.492  40.543  49.494  1.00  0.00     0.037 A 
HETATM   28  C   UNL     1      26.964  40.294  50.760  1.00  0.00     0.003 A 
HETATM   29  C   UNL     1      26.106  41.220  51.350  1.00  0.00     0.010 A 
BRANCH  26  30
HETATM   30  O   UNL     1      27.758  41.832  47.577  1.00  0.00    -0.356 OA
HETATM   31  C   UNL     1      28.111  40.624  46.914  1.00  0.00     0.210 C 
ENDBRANCH  26  30
ENDBRANCH   2  24
TORSDOF 4
ENDMDL
MODEL 2
REMARK VINA RESULT:      -9.1      2.567      4.485
REMARK  4 active torsions:
REMARK  status: ('A' for Active; 'I' for Inactive)
REMARK    1  A    between atoms: C_6  and  N_7 
REMARK       I    between atoms: N_7  and  C_8 
REMARK    2  A    between atoms: C_8  and  C_9 
REMARK    3  A    between atoms: C_10  and  C_11 
REMARK    4  A    between atoms: C_13  and  O_14 
ROOT
HETATM    1  C   UNL     1      28.056  42.421  51.876  1.00  0.00     0.062 C 
HETATM    2  C   UNL     1      27.627  43.096  50.578  1.00  0.00     0.202 C 
HETATM    3  N   UNL     1      26.970  42.132  49.689  1.00  0.00    -0.084 N 
HETATM    4  C   UNL     1      26.578  40.876  50.074  1.00  0.00     0.725 A 
HETATM    5  N   UNL     1      26.835  40.461  51.329  1.00  0.00    -0.192 N 
HETATM    6  N   UNL     1      26.753  42.329  48.371  1.00  0.00    -0.149 NA
HETATM    7  C   UNL     1      26.139  41.184  48.049  1.00  0.00     0.275 A 
HETATM    8  N   UNL     1      26.021  40.265  49.061  1.00  0.00    -0.054 NA
HETATM    9  C   UNL     1      27.629  41.179  52.216  1.00  0.00     0.037 C 
HETATM   10  C   UNL     1      27.947  40.497  53.522  1.00  0.00     0.070 C 
HETATM   11  H   UNL     1      26.571  39.514  51.589  1.00  0.00     0.184 HD
ENDROOT
BRANCH   1  12
HETATM   12  C   UNL     1      29.014  43.200  52.700  1.00  0.00     0.256 C 
HETATM   13  N   UNL     1      28.467  43.585  53.908  1.00  0.00    -0.323 N 
HETATM   14  H   UNL     1      27.501  43.334  54.066  1.00  0.00     0.169 HD
HETATM   15  O   UNL     1      30.151  43.389  52.295  1.00  0.00    -0.267 OA
BRANCH  13  16
HETATM   16  C   UNL     1      29.110  44.270  54.968  1.00  0.00     0.041 A 
HETATM   17  C   UNL     1      28.553  45.480  55.435  1.00  0.00    -0.035 A 
HETATM   18  C   UNL     1      29.162  46.152  56.513  1.00  0.00     0.015 A 
HETATM   19  C   UNL     1      27.316  46.087  54.830  1.00  0.00     0.050 C 
HETATM   20  C   UNL     1      30.320  45.655  57.119  1.00  0.00    -0.061 A 
HETATM   21  C   UNL     1      30.935  46.354  58.295  1.00  0.00     0.048 C 
HETATM   22  C   UNL     1      30.862  44.461  56.649  1.00  0.00     0.009 A 
HETATM   23  C   UNL     1      30.267  43.780  55.583  1.00  0.00     0.030 A 
ENDBRANCH  13  16
ENDBRANCH   1  12
BRANCH   2  24
HETATM   24  C   UNL     1      26.720  44.305  50.783  1.00  0.00    -0.025 A 
HETATM   25  C   UNL     1      26.931  45.473  50.024  1.00  0.00     0.046 A 
HETATM   26  C   UNL     1      26.121  46.598  50.200  1.00  0.00     0.068 A 
HETATM   27  C   UNL     1      25.089  46.556  51.138  1.00  0.00     0.037 A 
HETATM   28  C   UNL     1      24.863  45.408  51.896  1.00  0.00     0.003 A 
HETATM   29  C   UNL     1      25.672  44.288  51.720  1.00  0.00     0.010 A 
BRANCH  26  30
HETATM   30  O   UNL     1      26.231  47.783  49.526  1.00  0.00    -0.356 OA
HETATM   31  C   UNL     1      27.541  48.193  49.154  1.00  0.00     0.210 C 
ENDBRANCH  26  30
ENDBRANCH   2  24
TORSDOF 4
ENDMDL
MODEL 3
REMARK VINA RESULT:      -8.5      2.029      2.712
REMARK  4 active torsions:
REMARK  status: ('A' for Active; 'I' for Inactive)
REMARK    1  A    between atoms: C_6  and  N_7 
REMARK       I    between atoms: N_7  and  C_8 
REMARK    2  A    between atoms: C_8  and  C_9 
REMARK    3  A    between atoms: C_10  and  C_11 
REMARK    4  A    between atoms: C_13  and  O_14 
ROOT
HETATM    1  C   UNL     1      25.172  43.169  50.020  1.00  0.00     0.062 C 
HETATM    2  C   UNL     1      24.930  41.763  49.485  1.00  0.00     0.202 C 
HETATM    3  N   UNL     1      24.092  41.806  48.281  1.00  0.00    -0.084 N 
HETATM    4  C   UNL     1      23.785  42.956  47.602  1.00  0.00     0.725 A 
HETATM    5  N   UNL     1      24.235  44.138  48.067  1.00  0.00    -0.192 N 
HETATM    6  N   UNL     1      23.452  40.741  47.754  1.00  0.00    -0.149 NA
HETATM    7  C   UNL     1      22.856  41.310  46.699  1.00  0.00     0.275 A 
HETATM    8  N   UNL     1      23.027  42.666  46.576  1.00  0.00    -0.054 NA
HETATM    9  C   UNL     1      24.861  44.276  49.300  1.00  0.00     0.037 C 
HETATM   10  C   UNL     1      25.157  45.689  49.737  1.00  0.00     0.070 C 
HETATM   11  H   UNL     1      23.968  44.986  47.573  1.00  0.00     0.184 HD
ENDROOT
BRANCH   1  12
HETATM   12  C   UNL     1      25.717  43.229  51.399  1.00  0.00     0.256 C 
HETATM   13  N   UNL     1      27.096  43.285  51.412  1.00  0.00    -0.323 N 
HETATM   14  H   UNL     1      27.558  43.241  50.514  1.00  0.00     0.169 HD
HETATM   15  O   UNL     1      24.954  43.269  52.353  1.00  0.00    -0.267 OA
BRANCH  13  16
HETATM   16  C   UNL     1      27.944  43.425  52.538  1.00  0.00     0.041 A 
HETATM   17  C   UNL     1      28.820  42.368  52.867  1.00  0.00    -0.035 A 
HETATM   18  C   UNL     1      29.695  42.510  53.963  1.00  0.00     0.015 A 
HETATM   19  C   UNL     1      28.866  41.083  52.086  1.00  0.00     0.050 C 
HETATM   20  C   UNL     1      29.702  43.670  54.743  1.00  0.00    -0.061 A 
HETATM   21  C   UNL     1      30.668  43.830  55.879  1.00  0.00     0.048 C 
HETATM   22  C   UNL     1      28.833  44.707  54.409  1.00  0.00     0.009 A 
HETATM   23  C   UNL     1      27.961  44.583  53.323  1.00  0.00     0.030 A 
ENDBRANCH  13  16
ENDBRANCH   1  12
BRANCH   2  24
HETATM   24  C   UNL     1      26.210  40.987  49.189  1.00  0.00    -0.025 A 
HETATM   25  C   UNL     1      26.404  39.715  49.763  1.00  0.00     0.046 A 
HETATM   26  C   UNL     1      27.572  38.989  49.518  1.00  0.00     0.068 A 
HETATM   27  C   UNL     1      28.553  39.534  48.688  1.00  0.00     0.037 A 
HETATM   28  C   UNL     1      28.377  40.789  48.107  1.00  0.00     0.003 A 
HETATM   29  C   UNL     1      27.212  41.512  48.354  1.00  0.00     0.010 A 
BRANCH  26  30
HETATM   30  O   UNL     1      27.872  37.752  50.019  1.00  0.00    -0.356 OA
HETATM   31  C   UNL     1      29.237  37.496  50.327  1.00  0.00     0.210 C 
ENDBRANCH  26  30
ENDBRANCH   2  24
TORSDOF 4
ENDMDL
MODEL 4
REMARK VINA RESULT:      -8.4      1.328      2.122
REMARK  4 active torsions:
REMARK  status: ('A' for Active; 'I' for Inactive)
REMARK    1  A    between atoms: C_6  and  N_7 
REMARK       I    between atoms: N_7  and  C_8 
REMARK    2  A    between atoms: C_8  and  C_9 
REMARK    3  A    between atoms: C_10  and  C_11 
REMARK    4  A    between atoms: C_13  and  O_14 
ROOT
HETATM    1  C   UNL     1      24.859  44.880  51.285  1.00  0.00     0.062 C 
HETATM    2  C   UNL     1      23.958  43.833  50.640  1.00  0.00     0.202 C 
HETATM    3  N   UNL     1      23.000  44.470  49.729  1.00  0.00    -0.084 N 
HETATM    4  C   UNL     1      23.074  45.779  49.331  1.00  0.00     0.725 A 
HETATM    5  N   UNL     1      24.053  46.563  49.820  1.00  0.00    -0.192 N 
HETATM    6  N   UNL     1      21.888  43.874  49.248  1.00  0.00    -0.149 NA
HETATM    7  C   UNL     1      21.391  44.858  48.488  1.00  0.00     0.275 A 
HETATM    8  N   UNL     1      22.083  46.043  48.519  1.00  0.00    -0.054 NA
HETATM    9  C   UNL     1      24.904  46.161  50.843  1.00  0.00     0.037 C 
HETATM   10  C   UNL     1      25.837  47.216  51.381  1.00  0.00     0.070 C 
HETATM   11  H   UNL     1      24.073  47.542  49.544  1.00  0.00     0.184 HD
ENDROOT
BRANCH   1  12
HETATM   12  C   UNL     1      25.633  44.401  52.458  1.00  0.00     0.256 C 
HETATM   13  N   UNL     1      26.995  44.507  52.261  1.00  0.00    -0.323 N 
HETATM   14  H   UNL     1      27.295  44.848  51.358  1.00  0.00     0.169 HD
HETATM   15  O   UNL     1      25.045  44.021  53.459  1.00  0.00    -0.267 OA
BRANCH  13  16
HETATM   16  C   UNL     1      28.027  44.218  53.188  1.00  0.00     0.041 A 
HETATM   17  C   UNL     1      28.229  45.093  54.277  1.00  0.00    -0.035 A 
HETATM   18  C   UNL     1      29.228  44.798  55.226  1.00  0.00     0.015 A 
HETATM   19  C   UNL     1      27.411  46.340  54.475  1.00  0.00     0.050 C 
HETATM   20  C   UNL     1      30.036  43.664  55.102  1.00  0.00    -0.061 A 
HETATM   21  C   UNL     1      31.066  43.333  56.141  1.00  0.00     0.048 C 
HETATM   22  C   UNL     1      29.828  42.807  54.023  1.00  0.00     0.009 A 
HETATM   23  C   UNL     1      28.839  43.084  53.075  1.00  0.00     0.030 A 
ENDBRANCH  13  16
ENDBRANCH   1  12
BRANCH   2  24
HETATM   24  C   UNL     1      24.718  42.737  49.899  1.00  0.00    -0.025 A 
HETATM   25  C   UNL     1      25.484  41.804  50.627  1.00  0.00     0.046 A 
HETATM   26  C   UNL     1      26.198  40.798  49.972  1.00  0.00     0.068 A 
HETATM   27  C   UNL     1      26.144  40.717  48.580  1.00  0.00     0.037 A 
HETATM   28  C   UNL     1      25.389  41.629  47.843  1.00  0.00     0.003 A 
HETATM   29  C   UNL     1      24.678  42.633  48.498  1.00  0.00     0.010 A 
BRANCH  26  30
HETATM   30  O   UNL     1      26.973  39.842  50.568  1.00  0.00    -0.356 OA
HETATM   31  C   UNL     1      28.332  39.765  50.154  1.00  0.00     0.210 C 
ENDBRANCH  26  30
ENDBRANCH   2  24
TORSDOF 4
ENDMDL
MODEL 5
REMARK VINA RESULT:      -8.2      2.736      6.029
REMARK  4 active torsions:
REMARK  status: ('A' for Active; 'I' for Inactive)
REMARK    1  A    between atoms: C_6  and  N_7 
REMARK       I    between atoms: N_7  and  C_8 
REMARK    2  A    between atoms: C_8  and  C_9 
REMARK    3  A    between atoms: C_10  and  C_11 
REMARK    4  A    between atoms: C_13  and  O_14 
ROOT
HETATM    1  C   UNL     1      27.782  43.671  53.630  1.00  0.00     0.062 C 
HETATM    2  C   UNL     1      26.556  44.575  53.589  1.00  0.00     0.202 C 
HETATM    3  N   UNL     1      26.786  45.792  54.377  1.00  0.00    -0.084 N 
HETATM    4  C   UNL     1      28.009  46.169  54.865  1.00  0.00     0.725 A 
HETATM    5  N   UNL     1      29.077  45.374  54.658  1.00  0.00    -0.192 N 
HETATM    6  N   UNL     1      25.814  46.633  54.789  1.00  0.00    -0.149 NA
HETATM    7  C   UNL     1      26.541  47.547  55.441  1.00  0.00     0.275 A 
HETATM    8  N   UNL     1      27.888  47.296  55.519  1.00  0.00    -0.054 NA
HETATM    9  C   UNL     1      28.976  44.099  54.112  1.00  0.00     0.037 C 
HETATM   10  C   UNL     1      30.244  43.283  54.098  1.00  0.00     0.070 C 
HETATM   11  H   UNL     1      29.970  45.649  55.057  1.00  0.00     0.184 HD
ENDROOT
BRANCH   1  12
HETATM   12  C   UNL     1      27.553  42.283  53.156  1.00  0.00     0.256 C 
HETATM   13  N   UNL     1      27.805  42.146  51.806  1.00  0.00    -0.323 N 
HETATM   14  H   UNL     1      28.068  42.985  51.309  1.00  0.00     0.169 HD
HETATM   15  O   UNL     1      27.226  41.416  53.952  1.00  0.00    -0.267 OA
BRANCH  13  16
HETATM   16  C   UNL     1      27.765  40.957  51.036  1.00  0.00     0.041 A 
HETATM   17  C   UNL     1      26.614  40.684  50.265  1.00  0.00    -0.035 A 
HETATM   18  C   UNL     1      26.576  39.524  49.466  1.00  0.00     0.015 A 
HETATM   19  C   UNL     1      25.414  41.592  50.253  1.00  0.00     0.050 C 
HETATM   20  C   UNL     1      27.647  38.626  49.435  1.00  0.00    -0.061 A 
HETATM   21  C   UNL     1      27.616  37.418  48.548  1.00  0.00     0.048 C 
HETATM   22  C   UNL     1      28.777  38.906  50.201  1.00  0.00     0.009 A 
HETATM   23  C   UNL     1      28.833  40.055  50.996  1.00  0.00     0.030 A 
ENDBRANCH  13  16
ENDBRANCH   1  12
BRANCH   2  24
HETATM   24  C   UNL     1      26.116  44.954  52.178  1.00  0.00    -0.025 A 
HETATM   25  C   UNL     1      27.023  45.597  51.313  1.00  0.00     0.046 A 
HETATM   26  C   UNL     1      26.642  45.965  50.020  1.00  0.00     0.068 A 
HETATM   27  C   UNL     1      25.346  45.684  49.584  1.00  0.00     0.037 A 
HETATM   28  C   UNL     1      24.436  45.044  50.425  1.00  0.00     0.003 A 
HETATM   29  C   UNL     1      24.818  44.679  51.714  1.00  0.00     0.010 A 
BRANCH  26  30
HETATM   30  O   UNL     1      27.430  46.593  49.096  1.00  0.00    -0.356 OA
HETATM   31  C   UNL     1      27.455  48.015  49.131  1.00  0.00     0.210 C 
ENDBRANCH  26  30
ENDBRANCH   2  24
TORSDOF 4
ENDMDL
MODEL 6
REMARK VINA RESULT:      -8.2      2.782      6.063
REMARK  4 active torsions:
REMARK  status: ('A' for Active; 'I' for Inactive)
REMARK    1  A    between atoms: C_6  and  N_7 
REMARK       I    between atoms: N_7  and  C_8 
REMARK    2  A    between atoms: C_8  and  C_9 
REMARK    3  A    between atoms: C_10  and  C_11 
REMARK    4  A    between atoms: C_13  and  O_14 
ROOT
HETATM    1  C   UNL     1      27.865  43.354  53.440  1.00  0.00     0.062 C 
HETATM    2  C   UNL     1      26.619  44.228  53.375  1.00  0.00     0.202 C 
HETATM    3  N   UNL     1      26.806  45.453  54.160  1.00  0.00    -0.084 N 
HETATM    4  C   UNL     1      28.013  45.861  54.667  1.00  0.00     0.725 A 
HETATM    5  N   UNL     1      29.102  45.091  54.480  1.00  0.00    -0.192 N 
HETATM    6  N   UNL     1      25.808  46.272  54.553  1.00  0.00    -0.149 NA
HETATM    7  C   UNL     1      26.503  47.207  55.213  1.00  0.00     0.275 A 
HETATM    8  N   UNL     1      27.854  46.987  55.313  1.00  0.00    -0.054 NA
HETATM    9  C   UNL     1      29.040  43.812  53.940  1.00  0.00     0.037 C 
HETATM   10  C   UNL     1      30.327  43.026  53.949  1.00  0.00     0.070 C 
HETATM   11  H   UNL     1      29.982  45.389  54.893  1.00  0.00     0.184 HD
ENDROOT
BRANCH   1  12
HETATM   12  C   UNL     1      27.677  41.959  52.969  1.00  0.00     0.256 C 
HETATM   13  N   UNL     1      27.830  41.846  51.601  1.00  0.00    -0.323 N 
HETATM   14  H   UNL     1      28.007  42.703  51.095  1.00  0.00     0.169 HD
HETATM   15  O   UNL     1      27.462  41.068  53.777  1.00  0.00    -0.267 OA
BRANCH  13  16
HETATM   16  C   UNL     1      27.795  40.663  50.823  1.00  0.00     0.041 A 
HETATM   17  C   UNL     1      26.660  40.406  50.023  1.00  0.00    -0.035 A 
HETATM   18  C   UNL     1      26.629  39.252  49.216  1.00  0.00     0.015 A 
HETATM   19  C   UNL     1      25.470  41.327  49.989  1.00  0.00     0.050 C 
HETATM   20  C   UNL     1      27.692  38.344  49.204  1.00  0.00    -0.061 A 
HETATM   21  C   UNL     1      27.669  37.141  48.308  1.00  0.00     0.048 C 
HETATM   22  C   UNL     1      28.807  38.606  49.998  1.00  0.00     0.009 A 
HETATM   23  C   UNL     1      28.855  39.750  50.801  1.00  0.00     0.030 A 
ENDBRANCH  13  16
ENDBRANCH   1  12
BRANCH   2  24
HETATM   24  C   UNL     1      26.193  44.590  51.955  1.00  0.00    -0.025 A 
HETATM   25  C   UNL     1      24.837  44.488  51.585  1.00  0.00     0.046 A 
HETATM   26  C   UNL     1      24.423  44.804  50.289  1.00  0.00     0.068 A 
HETATM   27  C   UNL     1      25.368  45.229  49.354  1.00  0.00     0.037 A 
HETATM   28  C   UNL     1      26.713  45.340  49.703  1.00  0.00     0.003 A 
HETATM   29  C   UNL     1      27.125  45.024  50.996  1.00  0.00     0.010 A 
BRANCH  26  30
HETATM   30  O   UNL     1      23.141  44.741  49.815  1.00  0.00    -0.356 OA
HETATM   31  C   UNL     1      22.950  45.032  48.436  1.00  0.00     0.210 C 
ENDBRANCH  26  30
ENDBRANCH   2  24
TORSDOF 4
ENDMDL
MODEL 7
REMARK VINA RESULT:      -8.1      3.736      8.903
REMARK  4 active torsions:
REMARK  status: ('A' for Active; 'I' for Inactive)
REMARK    1  A    between atoms: C_6  and  N_7 
REMARK       I    between atoms: N_7  and  C_8 
REMARK    2  A    between atoms: C_8  and  C_9 
REMARK    3  A    between atoms: C_10  and  C_11 
REMARK    4  A    between atoms: C_13  and  O_14 
ROOT
HETATM    1  C   UNL     1      24.416  45.466  50.023  1.00  0.00     0.062 C 
HETATM    2  C   UNL     1      24.560  46.827  50.694  1.00  0.00     0.202 C 
HETATM    3  N   UNL     1      25.270  46.699  51.972  1.00  0.00    -0.084 N 
HETATM    4  C   UNL     1      25.923  45.564  52.375  1.00  0.00     0.725 A 
HETATM    5  N   UNL     1      25.896  44.471  51.588  1.00  0.00    -0.192 N 
HETATM    6  N   UNL     1      25.290  47.644  52.936  1.00  0.00    -0.149 NA
HETATM    7  C   UNL     1      26.057  47.043  53.853  1.00  0.00     0.275 A 
HETATM    8  N   UNL     1      26.458  45.765  53.552  1.00  0.00    -0.054 NA
HETATM    9  C   UNL     1      25.097  44.375  50.454  1.00  0.00     0.037 C 
HETATM   10  C   UNL     1      25.064  43.027  49.780  1.00  0.00     0.070 C 
HETATM   11  H   UNL     1      26.355  43.625  51.918  1.00  0.00     0.184 HD
ENDROOT
BRANCH   1  12
HETATM   12  C   UNL     1      23.439  45.419  48.907  1.00  0.00     0.256 C 
HETATM   13  N   UNL     1      22.148  45.658  49.334  1.00  0.00    -0.323 N 
HETATM   14  H   UNL     1      22.020  45.792  50.328  1.00  0.00     0.169 HD
HETATM   15  O   UNL     1      23.830  45.233  47.764  1.00  0.00    -0.267 OA
BRANCH  13  16
HETATM   16  C   UNL     1      20.980  45.764  48.540  1.00  0.00     0.041 A 
HETATM   17  C   UNL     1      20.361  47.026  48.404  1.00  0.00    -0.035 A 
HETATM   18  C   UNL     1      19.220  47.152  47.586  1.00  0.00     0.015 A 
HETATM   19  C   UNL     1      20.877  48.258  49.095  1.00  0.00     0.050 C 
HETATM   20  C   UNL     1      18.676  46.049  46.921  1.00  0.00    -0.061 A 
HETATM   21  C   UNL     1      17.489  46.202  46.018  1.00  0.00     0.048 C 
HETATM   22  C   UNL     1      19.295  44.809  47.063  1.00  0.00     0.009 A 
HETATM   23  C   UNL     1      20.430  44.668  47.868  1.00  0.00     0.030 A 
ENDBRANCH  13  16
ENDBRANCH   1  12
BRANCH   2  24
HETATM   24  C   UNL     1      25.253  47.872  49.825  1.00  0.00    -0.025 A 
HETATM   25  C   UNL     1      24.480  48.791  49.088  1.00  0.00     0.046 A 
HETATM   26  C   UNL     1      25.090  49.751  48.276  1.00  0.00     0.068 A 
HETATM   27  C   UNL     1      26.482  49.799  48.204  1.00  0.00     0.037 A 
HETATM   28  C   UNL     1      27.264  48.900  48.929  1.00  0.00     0.003 A 
HETATM   29  C   UNL     1      26.654  47.943  49.737  1.00  0.00     0.010 A 
BRANCH  26  30
HETATM   30  O   UNL     1      24.447  50.689  47.516  1.00  0.00    -0.356 OA
HETATM   31  C   UNL     1      23.026  50.690  47.561  1.00  0.00     0.210 C 
ENDBRANCH  26  30
ENDBRANCH   2  24
TORSDOF 4
ENDMDL
MODEL 8
REMARK VINA RESULT:      -8.0      5.063      7.907
REMARK  4 active torsions:
REMARK  status: ('A' for Active; 'I' for Inactive)
REMARK    1  A    between atoms: C_6  and  N_7 
REMARK       I    between atoms: N_7  and  C_8 
REMARK    2  A    between atoms: C_8  and  C_9 
REMARK    3  A    between atoms: C_10  and  C_11 
REMARK    4  A    between atoms: C_13  and  O_14 
ROOT
HETATM    1  C   UNL     1      21.809  48.994  48.655  1.00  0.00     0.062 C 
HETATM    2  C   UNL     1      20.404  48.556  49.051  1.00  0.00     0.202 C 
HETATM    3  N   UNL     1      19.583  49.719  49.406  1.00  0.00    -0.084 N 
HETATM    4  C   UNL     1      19.952  51.018  49.174  1.00  0.00     0.725 A 
HETATM    5  N   UNL     1      21.154  51.274  48.622  1.00  0.00    -0.192 N 
HETATM    6  N   UNL     1      18.415  49.655  50.081  1.00  0.00    -0.149 NA
HETATM    7  C   UNL     1      18.091  50.953  50.134  1.00  0.00     0.275 A 
HETATM    8  N   UNL     1      19.010  51.820  49.598  1.00  0.00    -0.054 NA
HETATM    9  C   UNL     1      22.120  50.294  48.424  1.00  0.00     0.037 C 
HETATM   10  C   UNL     1      23.465  50.777  47.945  1.00  0.00     0.070 C 
HETATM   11  H   UNL     1      21.429  52.244  48.489  1.00  0.00     0.184 HD
ENDROOT
BRANCH   1  12
HETATM   12  C   UNL     1      22.813  47.901  48.600  1.00  0.00     0.256 C 
HETATM   13  N   UNL     1      23.529  47.792  49.775  1.00  0.00    -0.323 N 
HETATM   14  H   UNL     1      23.321  48.471  50.495  1.00  0.00     0.169 HD
HETATM   15  O   UNL     1      22.891  47.198  47.604  1.00  0.00    -0.267 OA
BRANCH  13  16
HETATM   16  C   UNL     1      24.507  46.822  50.104  1.00  0.00     0.041 A 
HETATM   17  C   UNL     1      25.871  47.150  49.951  1.00  0.00    -0.035 A 
HETATM   18  C   UNL     1      26.855  46.207  50.310  1.00  0.00     0.015 A 
HETATM   19  C   UNL     1      26.328  48.483  49.423  1.00  0.00     0.050 C 
HETATM   20  C   UNL     1      26.507  44.943  50.796  1.00  0.00    -0.061 A 
HETATM   21  C   UNL     1      27.561  43.962  51.217  1.00  0.00     0.048 C 
HETATM   22  C   UNL     1      25.157  44.629  50.942  1.00  0.00     0.009 A 
HETATM   23  C   UNL     1      24.170  45.556  50.595  1.00  0.00     0.030 A 
ENDBRANCH  13  16
ENDBRANCH   1  12
BRANCH   2  24
HETATM   24  C   UNL     1      19.691  47.733  47.983  1.00  0.00    -0.025 A 
HETATM   25  C   UNL     1      19.556  46.340  48.149  1.00  0.00     0.046 A 
HETATM   26  C   UNL     1      18.917  45.562  47.180  1.00  0.00     0.068 A 
HETATM   27  C   UNL     1      18.404  46.178  46.038  1.00  0.00     0.037 A 
HETATM   28  C   UNL     1      18.525  47.556  45.859  1.00  0.00     0.003 A 
HETATM   29  C   UNL     1      19.163  48.330  46.825  1.00  0.00     0.010 A 
BRANCH  26  30
HETATM   30  O   UNL     1      18.730  44.208  47.230  1.00  0.00    -0.356 OA
HETATM   31  C   UNL     1      19.160  43.457  46.101  1.00  0.00     0.210 C 
ENDBRANCH  26  30
ENDBRANCH   2  24
TORSDOF 4
ENDMDL
MODEL 9
REMARK VINA RESULT:      -8.0      2.107      6.206
REMARK  4 active torsions:
REMARK  status: ('A' for Active; 'I' for Inactive)
REMARK    1  A    between atoms: C_6  and  N_7 
REMARK       I    between atoms: N_7  and  C_8 
REMARK    2  A    between atoms: C_8  and  C_9 
REMARK    3  A    between atoms: C_10  and  C_11 
REMARK    4  A    between atoms: C_13  and  O_14 
ROOT
HETATM    1  C   UNL     1      25.172  43.837  49.918  1.00  0.00     0.062 C 
HETATM    2  C   UNL     1      26.313  44.821  50.148  1.00  0.00     0.202 C 
HETATM    3  N   UNL     1      25.856  46.199  49.932  1.00  0.00    -0.084 N 
HETATM    4  C   UNL     1      24.541  46.558  49.792  1.00  0.00     0.725 A 
HETATM    5  N   UNL     1      23.591  45.604  49.811  1.00  0.00    -0.192 N 
HETATM    6  N   UNL     1      26.674  47.259  49.756  1.00  0.00    -0.149 NA
HETATM    7  C   UNL     1      25.776  48.241  49.612  1.00  0.00     0.275 A 
HETATM    8  N   UNL     1      24.459  47.852  49.618  1.00  0.00    -0.054 NA
HETATM    9  C   UNL     1      23.883  44.244  49.799  1.00  0.00     0.037 C 
HETATM   10  C   UNL     1      22.705  43.315  49.660  1.00  0.00     0.070 C 
HETATM   11  H   UNL     1      22.623  45.881  49.670  1.00  0.00     0.184 HD
ENDROOT
BRANCH   1  12
HETATM   12  C   UNL     1      25.587  42.419  49.781  1.00  0.00     0.256 C 
HETATM   13  N   UNL     1      26.310  42.198  48.626  1.00  0.00    -0.323 N 
HETATM   14  H   UNL     1      26.432  42.991  48.012  1.00  0.00     0.169 HD
HETATM   15  O   UNL     1      25.318  41.619  50.664  1.00  0.00    -0.267 OA
BRANCH  13  16
HETATM   16  C   UNL     1      26.926  40.992  48.209  1.00  0.00     0.041 A 
HETATM   17  C   UNL     1      26.317  40.235  47.185  1.00  0.00    -0.035 A 
HETATM   18  C   UNL     1      26.939  39.052  46.736  1.00  0.00     0.015 A 
HETATM   19  C   UNL     1      25.022  40.643  46.537  1.00  0.00     0.050 C 
HETATM   20  C   UNL     1      28.138  38.602  47.298  1.00  0.00    -0.061 A 
HETATM   21  C   UNL     1      28.815  37.367  46.783  1.00  0.00     0.048 C 
HETATM   22  C   UNL     1      28.728  39.357  48.309  1.00  0.00     0.009 A 
HETATM   23  C   UNL     1      28.126  40.535  48.763  1.00  0.00     0.030 A 
ENDBRANCH  13  16
ENDBRANCH   1  12
BRANCH   2  24
HETATM   24  C   UNL     1      26.959  44.706  51.525  1.00  0.00    -0.025 A 
HETATM   25  C   UNL     1      28.151  43.969  51.678  1.00  0.00     0.046 A 
HETATM   26  C   UNL     1      28.757  43.839  52.930  1.00  0.00     0.068 A 
HETATM   27  C   UNL     1      28.172  44.453  54.038  1.00  0.00     0.037 A 
HETATM   28  C   UNL     1      26.996  45.189  53.906  1.00  0.00     0.003 A 
HETATM   29  C   UNL     1      26.392  45.317  52.657  1.00  0.00     0.010 A 
BRANCH  26  30
HETATM   30  O   UNL     1      29.907  43.150  53.200  1.00  0.00    -0.356 OA
HETATM   31  C   UNL     1      30.360  43.157  54.548  1.00  0.00     0.210 C 
ENDBRANCH  26  30
ENDBRANCH   2  24
TORSDOF 4
ENDMDL
MODEL 10
REMARK VINA RESULT:      -8.0     12.156     13.288
REMARK  4 active torsions:
REMARK  status: ('A' for Active; 'I' for Inactive)
REMARK    1  A    between atoms: C_6  and  N_7 
REMARK       I    between atoms: N_7  and  C_8 
REMARK    2  A    between atoms: C_8  and  C_9 
REMARK    3  A    between atoms: C_10  and  C_11 
REMARK    4  A    between atoms: C_13  and  O_14 
ROOT
HETATM    1  C   UNL     1      27.869  50.011  39.797  1.00  0.00     0.062 C 
HETATM    2  C   UNL     1      27.049  48.743  40.003  1.00  0.00     0.202 C 
HETATM    3  N   UNL     1      25.766  48.838  39.297  1.00  0.00    -0.084 N 
HETATM    4  C   UNL     1      25.463  49.817  38.386  1.00  0.00     0.725 A 
HETATM    5  N   UNL     1      26.364  50.785  38.133  1.00  0.00    -0.192 N 
HETATM    6  N   UNL     1      24.705  48.035  39.523  1.00  0.00    -0.149 NA
HETATM    7  C   UNL     1      23.829  48.530  38.641  1.00  0.00     0.275 A 
HETATM    8  N   UNL     1      24.251  49.627  37.932  1.00  0.00    -0.054 NA
HETATM    9  C   UNL     1      27.532  50.944  38.871  1.00  0.00     0.037 C 
HETATM   10  C   UNL     1      28.349  52.172  38.561  1.00  0.00     0.070 C 
HETATM   11  H   UNL     1      26.111  51.524  37.482  1.00  0.00     0.184 HD
ENDROOT
BRANCH   1  12
HETATM   12  C   UNL     1      29.021  50.168  40.720  1.00  0.00     0.256 C 
HETATM   13  N   UNL     1      30.230  49.985  40.079  1.00  0.00    -0.323 N 
HETATM   14  H   UNL     1      30.188  49.735  39.100  1.00  0.00     0.169 HD
HETATM   15  O   UNL     1      28.827  50.474  41.887  1.00  0.00    -0.267 OA
BRANCH  13  16
HETATM   16  C   UNL     1      31.528  50.133  40.625  1.00  0.00     0.041 A 
HETATM   17  C   UNL     1      32.302  48.976  40.864  1.00  0.00    -0.035 A 
HETATM   18  C   UNL     1      33.609  49.111  41.373  1.00  0.00     0.015 A 
HETATM   19  C   UNL     1      31.789  47.588  40.590  1.00  0.00     0.050 C 
HETATM   20  C   UNL     1      34.150  50.367  41.664  1.00  0.00    -0.061 A 
HETATM   21  C   UNL     1      35.558  50.504  42.163  1.00  0.00     0.048 C 
HETATM   22  C   UNL     1      33.377  51.501  41.425  1.00  0.00     0.009 A 
HETATM   23  C   UNL     1      32.080  51.384  40.917  1.00  0.00     0.030 A 
ENDBRANCH  13  16
ENDBRANCH   1  12
BRANCH   2  24
HETATM   24  C   UNL     1      27.771  47.467  39.582  1.00  0.00    -0.025 A 
HETATM   25  C   UNL     1      27.653  46.305  40.370  1.00  0.00     0.046 A 
HETATM   26  C   UNL     1      28.313  45.126  40.013  1.00  0.00     0.068 A 
HETATM   27  C   UNL     1      29.094  45.105  38.856  1.00  0.00     0.037 A 
HETATM   28  C   UNL     1      29.220  46.244  38.062  1.00  0.00     0.003 A 
HETATM   29  C   UNL     1      28.561  47.418  38.420  1.00  0.00     0.010 A 
BRANCH  26  30
HETATM   30  O   UNL     1      28.276  43.943  40.697  1.00  0.00    -0.356 OA
HETATM   31  C   UNL     1      27.489  42.900  40.137  1.00  0.00     0.210 C 
ENDBRANCH  26  30
ENDBRANCH   2  24
TORSDOF 4
ENDMDL
