MODEL 1
REMARK VINA RESULT:      -9.4      0.000      0.000
REMARK  7 active torsions:
REMARK  status: ('A' for Active; 'I' for Inactive)
REMARK       I    between atoms: N_2  and  C_3 
REMARK    1  A    between atoms: N_2  and  C_24 
REMARK    2  A    between atoms: C_3  and  C_4 
REMARK    3  A    between atoms: C_7  and  N_8 
REMARK    4  A    between atoms: C_11  and  N_12 
REMARK       I    between atoms: N_12  and  C_13 
REMARK    5  A    between atoms: C_13  and  C_14 
REMARK    6  A    between atoms: C_24  and  C_25 
REMARK    7  A    between atoms: C_27  and  O_28 
ROOT
HETATM    1  C   UNL     1      25.971  45.442  50.129  1.00  0.00     0.032 A 
HETATM    2  C   UNL     1      24.599  45.384  49.856  1.00  0.00     0.019 A 
HETATM    3  C   UNL     1      23.874  46.551  49.614  1.00  0.00     0.032 A 
HETATM    4  C   UNL     1      24.518  47.797  49.623  1.00  0.00     0.058 A 
HETATM    5  C   UNL     1      25.879  47.864  49.953  1.00  0.00     0.032 A 
HETATM    6  C   UNL     1      26.596  46.688  50.232  1.00  0.00     0.019 A 
ENDROOT
BRANCH   4   7
HETATM    7  N   UNL     1      23.771  48.953  49.254  1.00  0.00    -0.243 N 
HETATM    8  N   UNL     1      24.409  50.076  48.839  1.00  0.00    -0.178 NA
HETATM    9  C   UNL     1      23.447  50.992  48.726  1.00  0.00     0.170 A 
HETATM   10  C   UNL     1      22.179  50.483  49.059  1.00  0.00     0.071 A 
HETATM   11  C   UNL     1      22.405  49.152  49.330  1.00  0.00     0.149 A 
BRANCH  10  12
HETATM   12  N   UNL     1      20.946  51.106  49.156  1.00  0.00    -0.324 N 
HETATM   13  C   UNL     1      20.059  51.204  48.095  1.00  0.00     0.228 C 
HETATM   14  O   UNL     1      20.218  50.689  46.993  1.00  0.00    -0.273 OA
HETATM   15  H   UNL     1      20.744  51.588  50.021  1.00  0.00     0.169 HD
BRANCH  13  16
HETATM   16  C   UNL     1      18.877  52.104  48.396  1.00  0.00     0.104 C 
HETATM   17  C   UNL     1      17.591  51.624  47.746  1.00  0.00     0.181 C 
HETATM   18  O   UNL     1      16.509  52.124  48.548  1.00  0.00    -0.390 OA
HETATM   19  C   UNL     1      17.043  52.609  49.784  1.00  0.00     0.168 C 
HETATM   20  C   UNL     1      18.481  52.145  49.855  1.00  0.00     0.042 C 
ENDBRANCH  13  16
ENDBRANCH  10  12
ENDBRANCH   4   7
BRANCH   1  21
HETATM   21  C   UNL     1      26.652  44.138  50.335  1.00  0.00     0.253 C 
HETATM   22  N   UNL     1      26.820  43.606  51.615  1.00  0.00    -0.348 N 
HETATM   23  C   UNL     1      27.742  42.487  51.774  1.00  0.00     0.153 C 
HETATM   24  O   UNL     1      27.143  43.615  49.334  1.00  0.00    -0.267 OA
BRANCH  22  25
HETATM   25  C   UNL     1      26.095  44.013  52.820  1.00  0.00     0.164 C 
BRANCH  25  26
HETATM   26  C   UNL     1      26.806  45.069  53.649  1.00  0.00    -0.038 A 
HETATM   27  C   UNL     1      27.996  44.814  54.359  1.00  0.00     0.045 A 
HETATM   28  C   UNL     1      28.640  45.821  55.082  1.00  0.00     0.068 A 
HETATM   29  C   UNL     1      28.070  47.092  55.133  1.00  0.00     0.037 A 
HETATM   30  C   UNL     1      26.883  47.363  54.454  1.00  0.00     0.003 A 
HETATM   31  C   UNL     1      26.256  46.359  53.713  1.00  0.00     0.009 A 
BRANCH  28  32
HETATM   32  O   UNL     1      29.811  45.682  55.774  1.00  0.00    -0.356 OA
HETATM   33  C   UNL     1      29.761  45.933  57.174  1.00  0.00     0.210 C 
ENDBRANCH  28  32
ENDBRANCH  25  26
ENDBRANCH  22  25
ENDBRANCH   1  21
TORSDOF 7
ENDMDL
MODEL 2
REMARK VINA RESULT:      -9.2      1.810      2.671
REMARK  7 active torsions:
REMARK  status: ('A' for Active; 'I' for Inactive)
REMARK       I    between atoms: N_2  and  C_3 
REMARK    1  A    between atoms: N_2  and  C_24 
REMARK    2  A    between atoms: C_3  and  C_4 
REMARK    3  A    between atoms: C_7  and  N_8 
REMARK    4  A    between atoms: C_11  and  N_12 
REMARK       I    between atoms: N_12  and  C_13 
REMARK    5  A    between atoms: C_13  and  C_14 
REMARK    6  A    between atoms: C_24  and  C_25 
REMARK    7  A    between atoms: C_27  and  O_28 
ROOT
HETATM    1  C   UNL     1      26.698  43.470  51.076  1.00  0.00     0.032 A 
HETATM    2  C   UNL     1      27.401  44.534  50.497  1.00  0.00     0.019 A 
HETATM    3  C   UNL     1      26.718  45.618  49.947  1.00  0.00     0.032 A 
HETATM    4  C   UNL     1      25.317  45.663  49.983  1.00  0.00     0.058 A 
HETATM    5  C   UNL     1      24.608  44.573  50.509  1.00  0.00     0.032 A 
HETATM    6  C   UNL     1      25.301  43.467  51.029  1.00  0.00     0.019 A 
ENDROOT
BRANCH   4   7
HETATM    7  N   UNL     1      24.660  46.839  49.520  1.00  0.00    -0.243 N 
HETATM    8  N   UNL     1      25.344  48.005  49.404  1.00  0.00    -0.178 NA
HETATM    9  C   UNL     1      24.418  48.916  49.103  1.00  0.00     0.170 A 
HETATM   10  C   UNL     1      23.129  48.361  49.015  1.00  0.00     0.071 A 
HETATM   11  C   UNL     1      23.321  47.013  49.221  1.00  0.00     0.149 A 
BRANCH  10  12
HETATM   12  N   UNL     1      21.895  48.956  48.810  1.00  0.00    -0.324 N 
HETATM   13  C   UNL     1      21.478  50.092  49.487  1.00  0.00     0.228 C 
HETATM   14  O   UNL     1      22.168  50.742  50.267  1.00  0.00    -0.273 OA
HETATM   15  H   UNL     1      21.247  48.469  48.207  1.00  0.00     0.169 HD
BRANCH  13  16
HETATM   16  C   UNL     1      20.021  50.425  49.239  1.00  0.00     0.104 C 
HETATM   17  C   UNL     1      19.130  50.093  50.424  1.00  0.00     0.181 C 
HETATM   18  O   UNL     1      17.992  50.966  50.344  1.00  0.00    -0.390 OA
HETATM   19  C   UNL     1      18.268  51.990  49.385  1.00  0.00     0.168 C 
HETATM   20  C   UNL     1      19.741  51.900  49.054  1.00  0.00     0.042 C 
ENDBRANCH  13  16
ENDBRANCH  10  12
ENDBRANCH   4   7
BRANCH   1  21
HETATM   21  C   UNL     1      27.523  42.385  51.665  1.00  0.00     0.253 C 
HETATM   22  N   UNL     1      27.682  42.269  53.048  1.00  0.00    -0.348 N 
HETATM   23  C   UNL     1      28.725  41.379  53.544  1.00  0.00     0.153 C 
HETATM   24  O   UNL     1      28.132  41.668  50.871  1.00  0.00    -0.267 OA
BRANCH  22  25
HETATM   25  C   UNL     1      26.844  42.902  54.069  1.00  0.00     0.164 C 
BRANCH  25  26
HETATM   26  C   UNL     1      27.251  44.324  54.417  1.00  0.00    -0.038 A 
HETATM   27  C   UNL     1      26.341  45.399  54.433  1.00  0.00     0.045 A 
HETATM   28  C   UNL     1      26.746  46.687  54.793  1.00  0.00     0.068 A 
HETATM   29  C   UNL     1      28.085  46.917  55.104  1.00  0.00     0.037 A 
HETATM   30  C   UNL     1      29.007  45.871  55.077  1.00  0.00     0.003 A 
HETATM   31  C   UNL     1      28.592  44.582  54.740  1.00  0.00     0.009 A 
BRANCH  28  32
HETATM   32  O   UNL     1      25.936  47.786  54.869  1.00  0.00    -0.356 OA
HETATM   33  C   UNL     1      26.333  48.812  55.772  1.00  0.00     0.210 C 
ENDBRANCH  28  32
ENDBRANCH  25  26
ENDBRANCH  22  25
ENDBRANCH   1  21
TORSDOF 7
ENDMDL
MODEL 3
REMARK VINA RESULT:      -9.0      1.286      1.726
REMARK  7 active torsions:
REMARK  status: ('A' for Active; 'I' for Inactive)
REMARK       I    between atoms: N_2  and  C_3 
REMARK    1  A    between atoms: N_2  and  C_24 
REMARK    2  A    between atoms: C_3  and  C_4 
REMARK    3  A    between atoms: C_7  and  N_8 
REMARK    4  A    between atoms: C_11  and  N_12 
REMARK       I    between atoms: N_12  and  C_13 
REMARK    5  A    between atoms: C_13  and  C_14 
REMARK    6  A    between atoms: C_24  and  C_25 
REMARK    7  A    between atoms: C_27  and  O_28 
ROOT
HETATM    1  C   UNL     1      26.140  44.102  50.719  1.00  0.00     0.032 A 
HETATM    2  C   UNL     1      26.852  45.221  50.273  1.00  0.00     0.019 A 
HETATM    3  C   UNL     1      26.180  46.333  49.765  1.00  0.00     0.032 A 
HETATM    4  C   UNL     1      24.779  46.348  49.713  1.00  0.00     0.058 A 
HETATM    5  C   UNL     1      24.064  45.206  50.104  1.00  0.00     0.032 A 
HETATM    6  C   UNL     1      24.749  44.076  50.581  1.00  0.00     0.019 A 
ENDROOT
BRANCH   4   7
HETATM    7  N   UNL     1      24.124  47.544  49.301  1.00  0.00    -0.243 N 
HETATM    8  N   UNL     1      24.790  48.726  49.308  1.00  0.00    -0.178 NA
HETATM    9  C   UNL     1      23.864  49.642  49.024  1.00  0.00     0.170 A 
HETATM   10  C   UNL     1      22.592  49.075  48.824  1.00  0.00     0.071 A 
HETATM   11  C   UNL     1      22.800  47.718  48.941  1.00  0.00     0.149 A 
BRANCH  10  12
HETATM   12  N   UNL     1      21.360  49.663  48.595  1.00  0.00    -0.324 N 
HETATM   13  C   UNL     1      20.767  50.552  49.479  1.00  0.00     0.228 C 
HETATM   14  O   UNL     1      21.288  50.980  50.505  1.00  0.00    -0.273 OA
HETATM   15  H   UNL     1      20.843  49.343  47.788  1.00  0.00     0.169 HD
BRANCH  13  16
HETATM   16  C   UNL     1      19.340  50.894  49.102  1.00  0.00     0.104 C 
HETATM   17  C   UNL     1      18.355  50.640  50.231  1.00  0.00     0.181 C 
HETATM   18  O   UNL     1      17.244  51.525  50.019  1.00  0.00    -0.390 OA
HETATM   19  C   UNL     1      17.612  52.492  49.031  1.00  0.00     0.168 C 
HETATM   20  C   UNL     1      19.104  52.361  48.820  1.00  0.00     0.042 C 
ENDBRANCH  13  16
ENDBRANCH  10  12
ENDBRANCH   4   7
BRANCH   1  21
HETATM   21  C   UNL     1      26.952  42.989  51.275  1.00  0.00     0.253 C 
HETATM   22  N   UNL     1      27.179  42.878  52.649  1.00  0.00    -0.348 N 
HETATM   23  C   UNL     1      28.211  41.951  53.098  1.00  0.00     0.153 C 
HETATM   24  O   UNL     1      27.488  42.242  50.457  1.00  0.00    -0.267 OA
BRANCH  22  25
HETATM   25  C   UNL     1      26.422  43.552  53.706  1.00  0.00     0.164 C 
BRANCH  25  26
HETATM   26  C   UNL     1      27.042  44.854  54.184  1.00  0.00    -0.038 A 
HETATM   27  C   UNL     1      28.205  44.904  54.979  1.00  0.00     0.045 A 
HETATM   28  C   UNL     1      28.765  46.122  55.369  1.00  0.00     0.068 A 
HETATM   29  C   UNL     1      28.139  47.309  54.997  1.00  0.00     0.037 A 
HETATM   30  C   UNL     1      26.977  47.285  54.226  1.00  0.00     0.003 A 
HETATM   31  C   UNL     1      26.434  46.065  53.818  1.00  0.00     0.009 A 
BRANCH  28  32
HETATM   32  O   UNL     1      29.905  46.274  56.111  1.00  0.00    -0.356 OA
HETATM   33  C   UNL     1      30.576  45.082  56.504  1.00  0.00     0.210 C 
ENDBRANCH  28  32
ENDBRANCH  25  26
ENDBRANCH  22  25
ENDBRANCH   1  21
TORSDOF 7
ENDMDL
MODEL 4
REMARK VINA RESULT:      -8.9      2.440     10.767
REMARK  7 active torsions:
REMARK  status: ('A' for Active; 'I' for Inactive)
REMARK       I    between atoms: N_2  and  C_3 
REMARK    1  A    between atoms: N_2  and  C_24 
REMARK    2  A    between atoms: C_3  and  C_4 
REMARK    3  A    between atoms: C_7  and  N_8 
REMARK    4  A    between atoms: C_11  and  N_12 
REMARK       I    between atoms: N_12  and  C_13 
REMARK    5  A    between atoms: C_13  and  C_14 
REMARK    6  A    between atoms: C_24  and  C_25 
REMARK    7  A    between atoms: C_27  and  O_28 
ROOT
HETATM    1  C   UNL     1      22.723  46.380  48.587  1.00  0.00     0.032 A 
HETATM    2  C   UNL     1      22.780  45.032  48.961  1.00  0.00     0.019 A 
HETATM    3  C   UNL     1      23.650  44.611  49.966  1.00  0.00     0.032 A 
HETATM    4  C   UNL     1      24.466  45.539  50.629  1.00  0.00     0.058 A 
HETATM    5  C   UNL     1      24.455  46.880  50.218  1.00  0.00     0.032 A 
HETATM    6  C   UNL     1      23.603  47.292  49.180  1.00  0.00     0.019 A 
ENDROOT
BRANCH   4   7
HETATM    7  N   UNL     1      25.252  45.092  51.730  1.00  0.00    -0.243 N 
HETATM    8  N   UNL     1      24.658  44.538  52.816  1.00  0.00    -0.178 NA
HETATM    9  C   UNL     1      25.642  44.380  53.701  1.00  0.00     0.170 A 
HETATM   10  C   UNL     1      26.883  44.821  53.208  1.00  0.00     0.071 A 
HETATM   11  C   UNL     1      26.618  45.213  51.914  1.00  0.00     0.149 A 
BRANCH  10  12
HETATM   12  N   UNL     1      28.123  44.914  53.817  1.00  0.00    -0.324 N 
HETATM   13  C   UNL     1      28.840  43.810  54.252  1.00  0.00     0.228 C 
HETATM   14  O   UNL     1      28.510  42.640  54.077  1.00  0.00    -0.273 OA
HETATM   15  H   UNL     1      28.458  45.843  54.032  1.00  0.00     0.169 HD
BRANCH  13  16
HETATM   16  C   UNL     1      30.063  44.184  55.065  1.00  0.00     0.104 C 
HETATM   17  C   UNL     1      29.760  45.201  56.152  1.00  0.00     0.181 C 
HETATM   18  O   UNL     1      30.743  45.013  57.182  1.00  0.00    -0.390 OA
HETATM   19  C   UNL     1      31.425  43.778  56.943  1.00  0.00     0.168 C 
HETATM   20  C   UNL     1      30.648  43.045  55.871  1.00  0.00     0.042 C 
ENDBRANCH  13  16
ENDBRANCH  10  12
ENDBRANCH   4   7
BRANCH   1  21
HETATM   21  C   UNL     1      21.737  46.726  47.533  1.00  0.00     0.253 C 
HETATM   22  N   UNL     1      20.458  47.182  47.862  1.00  0.00    -0.348 N 
HETATM   23  C   UNL     1      19.453  47.222  46.806  1.00  0.00     0.153 C 
HETATM   24  O   UNL     1      22.073  46.491  46.372  1.00  0.00    -0.267 OA
BRANCH  22  25
HETATM   25  C   UNL     1      20.038  47.707  49.163  1.00  0.00     0.164 C 
BRANCH  25  26
HETATM   26  C   UNL     1      19.728  49.195  49.164  1.00  0.00    -0.038 A 
HETATM   27  C   UNL     1      18.537  49.729  49.695  1.00  0.00     0.045 A 
HETATM   28  C   UNL     1      18.302  51.106  49.711  1.00  0.00     0.068 A 
HETATM   29  C   UNL     1      19.249  51.963  49.154  1.00  0.00     0.037 A 
HETATM   30  C   UNL     1      20.427  51.456  48.606  1.00  0.00     0.003 A 
HETATM   31  C   UNL     1      20.667  50.081  48.615  1.00  0.00     0.009 A 
BRANCH  28  32
HETATM   32  O   UNL     1      17.197  51.721  50.230  1.00  0.00    -0.356 OA
HETATM   33  C   UNL     1      16.108  51.939  49.339  1.00  0.00     0.210 C 
ENDBRANCH  28  32
ENDBRANCH  25  26
ENDBRANCH  22  25
ENDBRANCH   1  21
TORSDOF 7
ENDMDL
MODEL 5
REMARK VINA RESULT:      -8.8      1.859      2.476
REMARK  7 active torsions:
REMARK  status: ('A' for Active; 'I' for Inactive)
REMARK       I    between atoms: N_2  and  C_3 
REMARK    1  A    between atoms: N_2  and  C_24 
REMARK    2  A    between atoms: C_3  and  C_4 
REMARK    3  A    between atoms: C_7  and  N_8 
REMARK    4  A    between atoms: C_11  and  N_12 
REMARK       I    between atoms: N_12  and  C_13 
REMARK    5  A    between atoms: C_13  and  C_14 
REMARK    6  A    between atoms: C_24  and  C_25 
REMARK    7  A    between atoms: C_27  and  O_28 
ROOT
HETATM    1  C   UNL     1      26.528  43.852  51.185  1.00  0.00     0.032 A 
HETATM    2  C   UNL     1      25.459  44.497  51.818  1.00  0.00     0.019 A 
HETATM    3  C   UNL     1      24.957  45.697  51.316  1.00  0.00     0.032 A 
HETATM    4  C   UNL     1      25.508  46.264  50.157  1.00  0.00     0.058 A 
HETATM    5  C   UNL     1      26.617  45.653  49.554  1.00  0.00     0.032 A 
HETATM    6  C   UNL     1      27.141  44.463  50.086  1.00  0.00     0.019 A 
ENDROOT
BRANCH   4   7
HETATM    7  N   UNL     1      24.892  47.425  49.607  1.00  0.00    -0.243 N 
HETATM    8  N   UNL     1      25.649  48.480  49.216  1.00  0.00    -0.178 NA
HETATM    9  C   UNL     1      24.770  49.433  48.903  1.00  0.00     0.170 A 
HETATM   10  C   UNL     1      23.439  49.014  49.080  1.00  0.00     0.071 A 
HETATM   11  C   UNL     1      23.543  47.697  49.469  1.00  0.00     0.149 A 
BRANCH  10  12
HETATM   12  N   UNL     1      22.245  49.704  48.954  1.00  0.00    -0.324 N 
HETATM   13  C   UNL     1      21.842  50.693  49.837  1.00  0.00     0.228 C 
HETATM   14  O   UNL     1      22.517  51.127  50.766  1.00  0.00    -0.273 OA
HETATM   15  H   UNL     1      21.609  49.389  48.234  1.00  0.00     0.169 HD
BRANCH  13  16
HETATM   16  C   UNL     1      20.415  51.148  49.603  1.00  0.00     0.104 C 
HETATM   17  C   UNL     1      19.977  50.991  48.156  1.00  0.00     0.181 C 
HETATM   18  O   UNL     1      18.548  50.846  48.170  1.00  0.00    -0.390 OA
HETATM   19  C   UNL     1      18.126  50.605  49.516  1.00  0.00     0.168 C 
HETATM   20  C   UNL     1      19.372  50.325  50.326  1.00  0.00     0.042 C 
ENDBRANCH  13  16
ENDBRANCH  10  12
ENDBRANCH   4   7
BRANCH   1  21
HETATM   21  C   UNL     1      26.960  42.562  51.780  1.00  0.00     0.253 C 
HETATM   22  N   UNL     1      28.291  42.343  52.140  1.00  0.00    -0.348 N 
HETATM   23  C   UNL     1      28.702  40.976  52.439  1.00  0.00     0.153 C 
HETATM   24  O   UNL     1      26.107  41.677  51.842  1.00  0.00    -0.267 OA
BRANCH  22  25
HETATM   25  C   UNL     1      29.316  43.372  52.325  1.00  0.00     0.164 C 
BRANCH  25  26
HETATM   26  C   UNL     1      29.397  43.925  53.738  1.00  0.00    -0.038 A 
HETATM   27  C   UNL     1      30.385  43.528  54.661  1.00  0.00     0.045 A 
HETATM   28  C   UNL     1      30.448  44.085  55.941  1.00  0.00     0.068 A 
HETATM   29  C   UNL     1      29.490  45.023  56.322  1.00  0.00     0.037 A 
HETATM   30  C   UNL     1      28.492  45.416  55.432  1.00  0.00     0.003 A 
HETATM   31  C   UNL     1      28.447  44.875  54.147  1.00  0.00     0.009 A 
BRANCH  28  32
HETATM   32  O   UNL     1      31.384  43.791  56.893  1.00  0.00    -0.356 OA
HETATM   33  C   UNL     1      31.333  44.551  58.097  1.00  0.00     0.210 C 
ENDBRANCH  28  32
ENDBRANCH  25  26
ENDBRANCH  22  25
ENDBRANCH   1  21
TORSDOF 7
ENDMDL
MODEL 6
REMARK VINA RESULT:      -8.6      3.430      5.617
REMARK  7 active torsions:
REMARK  status: ('A' for Active; 'I' for Inactive)
REMARK       I    between atoms: N_2  and  C_3 
REMARK    1  A    between atoms: N_2  and  C_24 
REMARK    2  A    between atoms: C_3  and  C_4 
REMARK    3  A    between atoms: C_7  and  N_8 
REMARK    4  A    between atoms: C_11  and  N_12 
REMARK       I    between atoms: N_12  and  C_13 
REMARK    5  A    between atoms: C_13  and  C_14 
REMARK    6  A    between atoms: C_24  and  C_25 
REMARK    7  A    between atoms: C_27  and  O_28 
ROOT
HETATM    1  C   UNL     1      23.479  49.816  48.559  1.00  0.00     0.032 A 
HETATM    2  C   UNL     1      22.575  48.907  47.996  1.00  0.00     0.019 A 
HETATM    3  C   UNL     1      21.205  49.037  48.220  1.00  0.00     0.032 A 
HETATM    4  C   UNL     1      20.714  50.095  49.000  1.00  0.00     0.058 A 
HETATM    5  C   UNL     1      21.619  50.973  49.614  1.00  0.00     0.032 A 
HETATM    6  C   UNL     1      23.001  50.815  49.414  1.00  0.00     0.019 A 
ENDROOT
BRANCH   4   7
HETATM    7  N   UNL     1      19.304  50.265  49.108  1.00  0.00    -0.243 N 
HETATM    8  N   UNL     1      18.462  49.443  48.433  1.00  0.00    -0.178 NA
HETATM    9  C   UNL     1      17.250  49.964  48.626  1.00  0.00     0.170 A 
HETATM   10  C   UNL     1      17.283  51.120  49.427  1.00  0.00     0.071 A 
HETATM   11  C   UNL     1      18.608  51.254  49.779  1.00  0.00     0.149 A 
BRANCH  10  12
HETATM   12  N   UNL     1      16.280  52.000  49.795  1.00  0.00    -0.324 N 
HETATM   13  C   UNL     1      15.536  52.730  48.881  1.00  0.00     0.228 C 
HETATM   14  O   UNL     1      15.617  52.624  47.661  1.00  0.00    -0.273 OA
HETATM   15  H   UNL     1      16.166  52.175  50.784  1.00  0.00     0.169 HD
BRANCH  13  16
HETATM   16  C   UNL     1      14.647  53.767  49.538  1.00  0.00     0.104 C 
HETATM   17  C   UNL     1      13.884  53.218  50.731  1.00  0.00     0.181 C 
HETATM   18  O   UNL     1      13.606  54.332  51.594  1.00  0.00    -0.390 OA
HETATM   19  C   UNL     1      14.392  55.449  51.166  1.00  0.00     0.168 C 
HETATM   20  C   UNL     1      15.395  54.923  50.163  1.00  0.00     0.042 C 
ENDBRANCH  13  16
ENDBRANCH  10  12
ENDBRANCH   4   7
BRANCH   1  21
HETATM   21  C   UNL     1      24.911  49.607  48.226  1.00  0.00     0.253 C 
HETATM   22  N   UNL     1      25.760  48.917  49.094  1.00  0.00    -0.348 N 
HETATM   23  C   UNL     1      27.196  49.001  48.855  1.00  0.00     0.153 C 
HETATM   24  O   UNL     1      25.320  50.159  47.205  1.00  0.00    -0.267 OA
BRANCH  22  25
HETATM   25  C   UNL     1      25.346  48.041  50.192  1.00  0.00     0.164 C 
BRANCH  25  26
HETATM   26  C   UNL     1      25.215  46.577  49.807  1.00  0.00    -0.038 A 
HETATM   27  C   UNL     1      26.310  45.690  49.785  1.00  0.00     0.045 A 
HETATM   28  C   UNL     1      26.144  44.342  49.459  1.00  0.00     0.068 A 
HETATM   29  C   UNL     1      24.877  43.877  49.111  1.00  0.00     0.037 A 
HETATM   30  C   UNL     1      23.783  44.741  49.108  1.00  0.00     0.003 A 
HETATM   31  C   UNL     1      23.949  46.082  49.457  1.00  0.00     0.009 A 
BRANCH  28  32
HETATM   32  O   UNL     1      27.134  43.398  49.441  1.00  0.00    -0.356 OA
HETATM   33  C   UNL     1      26.771  42.099  48.985  1.00  0.00     0.210 C 
ENDBRANCH  28  32
ENDBRANCH  25  26
ENDBRANCH  22  25
ENDBRANCH   1  21
TORSDOF 7
ENDMDL
MODEL 7
REMARK VINA RESULT:      -8.4     11.873     15.469
REMARK  7 active torsions:
REMARK  status: ('A' for Active; 'I' for Inactive)
REMARK       I    between atoms: N_2  and  C_3 
REMARK    1  A    between atoms: N_2  and  C_24 
REMARK    2  A    between atoms: C_3  and  C_4 
REMARK    3  A    between atoms: C_7  and  N_8 
REMARK    4  A    between atoms: C_11  and  N_12 
REMARK       I    between atoms: N_12  and  C_13 
REMARK    5  A    between atoms: C_13  and  C_14 
REMARK    6  A    between atoms: C_24  and  C_25 
REMARK    7  A    between atoms: C_27  and  O_28 
ROOT
HETATM    1  C   UNL     1      30.246  48.583  41.102  1.00  0.00     0.032 A 
HETATM    2  C   UNL     1      31.059  49.201  40.145  1.00  0.00     0.019 A 
HETATM    3  C   UNL     1      32.207  49.893  40.530  1.00  0.00     0.032 A 
HETATM    4  C   UNL     1      32.570  49.961  41.883  1.00  0.00     0.058 A 
HETATM    5  C   UNL     1      31.728  49.394  42.850  1.00  0.00     0.032 A 
HETATM    6  C   UNL     1      30.553  48.729  42.459  1.00  0.00     0.019 A 
ENDROOT
BRANCH   4   7
HETATM    7  N   UNL     1      33.811  50.572  42.225  1.00  0.00    -0.243 N 
HETATM    8  N   UNL     1      34.953  50.206  41.592  1.00  0.00    -0.178 NA
HETATM    9  C   UNL     1      35.925  50.842  42.246  1.00  0.00     0.170 A 
HETATM   10  C   UNL     1      35.435  51.629  43.303  1.00  0.00     0.071 A 
HETATM   11  C   UNL     1      34.067  51.491  43.227  1.00  0.00     0.149 A 
BRANCH  10  12
HETATM   12  N   UNL     1      36.097  52.370  44.268  1.00  0.00    -0.324 N 
HETATM   13  C   UNL     1      36.862  53.488  43.974  1.00  0.00     0.228 C 
HETATM   14  O   UNL     1      36.973  53.994  42.862  1.00  0.00    -0.273 OA
HETATM   15  H   UNL     1      36.087  52.006  45.211  1.00  0.00     0.169 HD
BRANCH  13  16
HETATM   16  C   UNL     1      37.644  53.998  45.168  1.00  0.00     0.104 C 
HETATM   17  C   UNL     1      38.975  53.286  45.348  1.00  0.00     0.181 C 
HETATM   18  O   UNL     1      39.842  54.199  46.040  1.00  0.00    -0.390 OA
HETATM   19  C   UNL     1      39.243  55.498  46.027  1.00  0.00     0.168 C 
HETATM   20  C   UNL     1      38.085  55.440  45.055  1.00  0.00     0.042 C 
ENDBRANCH  13  16
ENDBRANCH  10  12
ENDBRANCH   4   7
BRANCH   1  21
HETATM   21  C   UNL     1      29.069  47.842  40.581  1.00  0.00     0.253 C 
HETATM   22  N   UNL     1      27.768  48.276  40.846  1.00  0.00    -0.348 N 
HETATM   23  C   UNL     1      26.670  47.358  40.562  1.00  0.00     0.153 C 
HETATM   24  O   UNL     1      29.304  46.783  39.999  1.00  0.00    -0.267 OA
BRANCH  22  25
HETATM   25  C   UNL     1      27.381  49.609  41.314  1.00  0.00     0.164 C 
BRANCH  25  26
HETATM   26  C   UNL     1      27.862  50.745  40.427  1.00  0.00    -0.038 A 
HETATM   27  C   UNL     1      28.502  51.894  40.933  1.00  0.00     0.045 A 
HETATM   28  C   UNL     1      28.963  52.902  40.083  1.00  0.00     0.068 A 
HETATM   29  C   UNL     1      28.748  52.785  38.711  1.00  0.00     0.037 A 
HETATM   30  C   UNL     1      28.100  51.666  38.189  1.00  0.00     0.003 A 
HETATM   31  C   UNL     1      27.664  50.650  39.041  1.00  0.00     0.009 A 
BRANCH  28  32
HETATM   32  O   UNL     1      29.621  54.035  40.473  1.00  0.00    -0.356 OA
HETATM   33  C   UNL     1      31.005  53.897  40.781  1.00  0.00     0.210 C 
ENDBRANCH  28  32
ENDBRANCH  25  26
ENDBRANCH  22  25
ENDBRANCH   1  21
TORSDOF 7
ENDMDL
MODEL 8
REMARK VINA RESULT:      -8.3      2.702      4.968
REMARK  7 active torsions:
REMARK  status: ('A' for Active; 'I' for Inactive)
REMARK       I    between atoms: N_2  and  C_3 
REMARK    1  A    between atoms: N_2  and  C_24 
REMARK    2  A    between atoms: C_3  and  C_4 
REMARK    3  A    between atoms: C_7  and  N_8 
REMARK    4  A    between atoms: C_11  and  N_12 
REMARK       I    between atoms: N_12  and  C_13 
REMARK    5  A    between atoms: C_13  and  C_14 
REMARK    6  A    between atoms: C_24  and  C_25 
REMARK    7  A    between atoms: C_27  and  O_28 
ROOT
HETATM    1  C   UNL     1      27.335  44.542  51.630  1.00  0.00     0.032 A 
HETATM    2  C   UNL     1      26.434  45.339  52.347  1.00  0.00     0.019 A 
HETATM    3  C   UNL     1      25.739  46.369  51.713  1.00  0.00     0.032 A 
HETATM    4  C   UNL     1      25.922  46.606  50.343  1.00  0.00     0.058 A 
HETATM    5  C   UNL     1      26.867  45.849  49.635  1.00  0.00     0.032 A 
HETATM    6  C   UNL     1      27.590  44.836  50.287  1.00  0.00     0.019 A 
ENDROOT
BRANCH   4   7
HETATM    7  N   UNL     1      25.108  47.587  49.706  1.00  0.00    -0.243 N 
HETATM    8  N   UNL     1      25.658  48.736  49.242  1.00  0.00    -0.178 NA
HETATM    9  C   UNL     1      24.621  49.480  48.856  1.00  0.00     0.170 A 
HETATM   10  C   UNL     1      23.390  48.829  49.057  1.00  0.00     0.071 A 
HETATM   11  C   UNL     1      23.735  47.587  49.542  1.00  0.00     0.149 A 
BRANCH  10  12
HETATM   12  N   UNL     1      22.089  49.267  48.875  1.00  0.00    -0.324 N 
HETATM   13  C   UNL     1      21.522  50.290  49.618  1.00  0.00     0.228 C 
HETATM   14  O   UNL     1      22.115  50.973  50.448  1.00  0.00    -0.273 OA
HETATM   15  H   UNL     1      21.515  48.739  48.232  1.00  0.00     0.169 HD
BRANCH  13  16
HETATM   16  C   UNL     1      20.034  50.443  49.372  1.00  0.00     0.104 C 
HETATM   17  C   UNL     1      19.190  49.920  50.522  1.00  0.00     0.181 C 
HETATM   18  O   UNL     1      17.946  50.638  50.483  1.00  0.00    -0.390 OA
HETATM   19  C   UNL     1      18.088  51.750  49.593  1.00  0.00     0.168 C 
HETATM   20  C   UNL     1      19.562  51.876  49.277  1.00  0.00     0.042 C 
ENDBRANCH  13  16
ENDBRANCH  10  12
ENDBRANCH   4   7
BRANCH   1  21
HETATM   21  C   UNL     1      27.992  43.451  52.393  1.00  0.00     0.253 C 
HETATM   22  N   UNL     1      27.467  42.156  52.399  1.00  0.00    -0.348 N 
HETATM   23  C   UNL     1      27.981  41.215  53.387  1.00  0.00     0.153 C 
HETATM   24  O   UNL     1      28.954  43.774  53.090  1.00  0.00    -0.267 OA
BRANCH  22  25
HETATM   25  C   UNL     1      26.492  41.616  51.449  1.00  0.00     0.164 C 
BRANCH  25  26
HETATM   26  C   UNL     1      27.100  41.110  50.152  1.00  0.00    -0.038 A 
HETATM   27  C   UNL     1      27.950  39.988  50.090  1.00  0.00     0.045 A 
HETATM   28  C   UNL     1      28.461  39.531  48.873  1.00  0.00     0.068 A 
HETATM   29  C   UNL     1      28.154  40.224  47.703  1.00  0.00     0.037 A 
HETATM   30  C   UNL     1      27.330  41.348  47.742  1.00  0.00     0.003 A 
HETATM   31  C   UNL     1      26.802  41.786  48.958  1.00  0.00     0.009 A 
BRANCH  28  32
HETATM   32  O   UNL     1      29.265  38.437  48.706  1.00  0.00    -0.356 OA
HETATM   33  C   UNL     1      29.009  37.624  47.566  1.00  0.00     0.210 C 
ENDBRANCH  28  32
ENDBRANCH  25  26
ENDBRANCH  22  25
ENDBRANCH   1  21
TORSDOF 7
ENDMDL
MODEL 9
REMARK VINA RESULT:      -8.1      2.518      4.712
REMARK  7 active torsions:
REMARK  status: ('A' for Active; 'I' for Inactive)
REMARK       I    between atoms: N_2  and  C_3 
REMARK    1  A    between atoms: N_2  and  C_24 
REMARK    2  A    between atoms: C_3  and  C_4 
REMARK    3  A    between atoms: C_7  and  N_8 
REMARK    4  A    between atoms: C_11  and  N_12 
REMARK       I    between atoms: N_12  and  C_13 
REMARK    5  A    between atoms: C_13  and  C_14 
REMARK    6  A    between atoms: C_24  and  C_25 
REMARK    7  A    between atoms: C_27  and  O_28 
ROOT
HETATM    1  C   UNL     1      23.622  49.455  48.580  1.00  0.00     0.032 A 
HETATM    2  C   UNL     1      23.146  50.643  49.148  1.00  0.00     0.019 A 
HETATM    3  C   UNL     1      21.776  50.869  49.273  1.00  0.00     0.032 A 
HETATM    4  C   UNL     1      20.858  49.898  48.847  1.00  0.00     0.058 A 
HETATM    5  C   UNL     1      21.329  48.734  48.224  1.00  0.00     0.032 A 
HETATM    6  C   UNL     1      22.710  48.528  48.068  1.00  0.00     0.019 A 
ENDROOT
BRANCH   4   7
HETATM    7  N   UNL     1      19.472  50.113  49.100  1.00  0.00    -0.243 N 
HETATM    8  N   UNL     1      18.554  49.197  48.701  1.00  0.00    -0.178 NA
HETATM    9  C   UNL     1      17.374  49.768  48.947  1.00  0.00     0.170 A 
HETATM   10  C   UNL     1      17.505  51.050  49.509  1.00  0.00     0.071 A 
HETATM   11  C   UNL     1      18.863  51.222  49.659  1.00  0.00     0.149 A 
BRANCH  10  12
HETATM   12  N   UNL     1      16.553  52.003  49.833  1.00  0.00    -0.324 N 
HETATM   13  C   UNL     1      15.746  52.620  48.891  1.00  0.00     0.228 C 
HETATM   14  O   UNL     1      15.718  52.344  47.695  1.00  0.00    -0.273 OA
HETATM   15  H   UNL     1      16.529  52.317  50.794  1.00  0.00     0.169 HD
BRANCH  13  16
HETATM   16  C   UNL     1      14.935  53.765  49.467  1.00  0.00     0.104 C 
HETATM   17  C   UNL     1      14.063  54.450  48.429  1.00  0.00     0.181 C 
HETATM   18  O   UNL     1      12.956  55.032  49.138  1.00  0.00    -0.390 OA
HETATM   19  C   UNL     1      12.935  54.502  50.466  1.00  0.00     0.168 C 
HETATM   20  C   UNL     1      13.910  53.345  50.496  1.00  0.00     0.042 C 
ENDBRANCH  13  16
ENDBRANCH  10  12
ENDBRANCH   4   7
BRANCH   1  21
HETATM   21  C   UNL     1      25.098  49.300  48.529  1.00  0.00     0.253 C 
HETATM   22  N   UNL     1      25.742  48.283  49.238  1.00  0.00    -0.348 N 
HETATM   23  C   UNL     1      27.191  48.363  49.383  1.00  0.00     0.153 C 
HETATM   24  O   UNL     1      25.718  50.171  47.918  1.00  0.00    -0.267 OA
BRANCH  22  25
HETATM   25  C   UNL     1      25.110  47.085  49.793  1.00  0.00     0.164 C 
BRANCH  25  26
HETATM   26  C   UNL     1      25.640  46.674  51.156  1.00  0.00    -0.038 A 
HETATM   27  C   UNL     1      25.478  47.465  52.311  1.00  0.00     0.045 A 
HETATM   28  C   UNL     1      25.949  47.038  53.555  1.00  0.00     0.068 A 
HETATM   29  C   UNL     1      26.627  45.823  53.645  1.00  0.00     0.037 A 
HETATM   30  C   UNL     1      26.816  45.033  52.512  1.00  0.00     0.003 A 
HETATM   31  C   UNL     1      26.322  45.453  51.276  1.00  0.00     0.009 A 
BRANCH  28  32
HETATM   32  O   UNL     1      25.813  47.715  54.735  1.00  0.00    -0.356 OA
HETATM   33  C   UNL     1      26.934  47.702  55.613  1.00  0.00     0.210 C 
ENDBRANCH  28  32
ENDBRANCH  25  26
ENDBRANCH  22  25
ENDBRANCH   1  21
TORSDOF 7
ENDMDL
MODEL 10
REMARK VINA RESULT:      -8.0     10.744     12.846
REMARK  7 active torsions:
REMARK  status: ('A' for Active; 'I' for Inactive)
REMARK       I    between atoms: N_2  and  C_3 
REMARK    1  A    between atoms: N_2  and  C_24 
REMARK    2  A    between atoms: C_3  and  C_4 
REMARK    3  A    between atoms: C_7  and  N_8 
REMARK    4  A    between atoms: C_11  and  N_12 
REMARK       I    between atoms: N_12  and  C_13 
REMARK    5  A    between atoms: C_13  and  C_14 
REMARK    6  A    between atoms: C_24  and  C_25 
REMARK    7  A    between atoms: C_27  and  O_28 
ROOT
HETATM    1  C   UNL     1      31.175  48.224  41.083  1.00  0.00     0.032 A 
HETATM    2  C   UNL     1      30.853  47.738  39.810  1.00  0.00     0.019 A 
HETATM    3  C   UNL     1      29.521  47.582  39.427  1.00  0.00     0.032 A 
HETATM    4  C   UNL     1      28.487  47.929  40.308  1.00  0.00     0.058 A 
HETATM    5  C   UNL     1      28.805  48.360  41.604  1.00  0.00     0.032 A 
HETATM    6  C   UNL     1      30.149  48.481  41.997  1.00  0.00     0.019 A 
ENDROOT
BRANCH   4   7
HETATM    7  N   UNL     1      27.143  47.869  39.840  1.00  0.00    -0.243 N 
HETATM    8  N   UNL     1      26.878  47.471  38.570  1.00  0.00    -0.178 NA
HETATM    9  C   UNL     1      25.570  47.676  38.415  1.00  0.00     0.170 A 
HETATM   10  C   UNL     1      24.967  48.201  39.572  1.00  0.00     0.071 A 
HETATM   11  C   UNL     1      25.988  48.254  40.496  1.00  0.00     0.149 A 
BRANCH  10  12
HETATM   12  N   UNL     1      23.672  48.630  39.808  1.00  0.00    -0.324 N 
HETATM   13  C   UNL     1      23.088  49.690  39.132  1.00  0.00     0.228 C 
HETATM   14  O   UNL     1      23.605  50.307  38.206  1.00  0.00    -0.273 OA
HETATM   15  H   UNL     1      23.181  48.199  40.580  1.00  0.00     0.169 HD
BRANCH  13  16
HETATM   16  C   UNL     1      21.746  50.091  39.712  1.00  0.00     0.104 C 
HETATM   17  C   UNL     1      21.787  51.436  40.417  1.00  0.00     0.181 C 
HETATM   18  O   UNL     1      20.456  51.974  40.362  1.00  0.00    -0.390 OA
HETATM   19  C   UNL     1      19.691  51.205  39.429  1.00  0.00     0.168 C 
HETATM   20  C   UNL     1      20.665  50.324  38.680  1.00  0.00     0.042 C 
ENDBRANCH  13  16
ENDBRANCH  10  12
ENDBRANCH   4   7
BRANCH   1  21
HETATM   21  C   UNL     1      32.622  48.387  41.375  1.00  0.00     0.253 C 
HETATM   22  N   UNL     1      33.236  49.639  41.305  1.00  0.00    -0.348 N 
HETATM   23  C   UNL     1      34.694  49.687  41.312  1.00  0.00     0.153 C 
HETATM   24  O   UNL     1      33.258  47.352  41.578  1.00  0.00    -0.267 OA
BRANCH  22  25
HETATM   25  C   UNL     1      32.555  50.935  41.303  1.00  0.00     0.164 C 
BRANCH  25  26
HETATM   26  C   UNL     1      31.732  51.206  40.054  1.00  0.00    -0.038 A 
HETATM   27  C   UNL     1      30.358  51.516  40.094  1.00  0.00     0.045 A 
HETATM   28  C   UNL     1      29.643  51.793  38.927  1.00  0.00     0.068 A 
HETATM   29  C   UNL     1      30.294  51.722  37.697  1.00  0.00     0.037 A 
HETATM   30  C   UNL     1      31.649  51.398  37.632  1.00  0.00     0.003 A 
HETATM   31  C   UNL     1      32.364  51.146  38.803  1.00  0.00     0.009 A 
BRANCH  28  32
HETATM   32  O   UNL     1      28.319  52.134  38.864  1.00  0.00    -0.356 OA
HETATM   33  C   UNL     1      27.419  51.125  38.420  1.00  0.00     0.210 C 
ENDBRANCH  28  32
ENDBRANCH  25  26
ENDBRANCH  22  25
ENDBRANCH   1  21
TORSDOF 7
ENDMDL
