MODEL 1
REMARK VINA RESULT:     -10.6      0.000      0.000
REMARK  5 active torsions:
REMARK  status: ('A' for Active; 'I' for Inactive)
REMARK    1  A    between atoms: C_9  and  N_10 
REMARK       I    between atoms: N_10  and  C_11 
REMARK    2  A    between atoms: C_11  and  C_12 
REMARK    3  A    between atoms: C_16  and  C_17 
REMARK    4  A    between atoms: C_17  and  O_18 
REMARK    5  A    between atoms: O_18  and  C_19 
ROOT
HETATM    1  C   UNL     1      26.790  44.890  52.313  1.00  0.00     0.153 A 
HETATM    2  O   UNL     1      26.832  43.914  51.350  1.00  0.00    -0.304 OA
HETATM    3  C   UNL     1      27.509  42.857  51.873  1.00  0.00     0.087 A 
HETATM    4  C   UNL     1      27.893  43.128  53.180  1.00  0.00     0.009 A 
HETATM    5  C   UNL     1      27.423  44.448  53.467  1.00  0.00     0.018 A 
HETATM    6  C   UNL     1      27.782  41.667  51.204  1.00  0.00     0.038 A 
HETATM    7  C   UNL     1      28.492  40.698  51.919  1.00  0.00     0.003 A 
HETATM    8  C   UNL     1      28.893  40.925  53.238  1.00  0.00     0.001 A 
HETATM    9  C   UNL     1      28.600  42.134  53.885  1.00  0.00     0.015 A 
ENDROOT
BRANCH   1  10
HETATM   10  C   UNL     1      26.143  46.150  51.985  1.00  0.00     0.280 C 
HETATM   11  N   UNL     1      25.806  46.237  50.643  1.00  0.00    -0.321 N 
HETATM   12  H   UNL     1      26.022  45.403  50.106  1.00  0.00     0.169 HD
HETATM   13  O   UNL     1      25.939  47.029  52.816  1.00  0.00    -0.265 OA
BRANCH  11  14
HETATM   14  C   UNL     1      25.226  47.320  49.959  1.00  0.00     0.035 A 
HETATM   15  C   UNL     1      23.849  47.472  49.779  1.00  0.00     0.039 A 
HETATM   16  C   UNL     1      23.379  48.600  49.120  1.00  0.00    -0.022 A 
HETATM   17  C   UNL     1      21.962  48.983  48.872  1.00  0.00     0.274 C 
HETATM   18  C   UNL     1      24.251  49.572  48.631  1.00  0.00    -0.025 A 
HETATM   19  N   UNL     1      22.037  50.240  48.008  1.00  0.00    -0.067 N 
HETATM   20  C   UNL     1      21.066  51.299  48.393  1.00  0.00     0.270 C 
HETATM   21  H   UNL     1      21.833  49.935  47.049  1.00  0.00     0.280 HD
HETATM   22  C   UNL     1      23.493  50.694  48.011  1.00  0.00     0.273 C 
HETATM   23  C   UNL     1      25.619  49.435  48.789  1.00  0.00     0.012 A 
HETATM   24  C   UNL     1      26.101  48.304  49.458  1.00  0.00     0.030 A 
ENDBRANCH  11  14
ENDBRANCH   1  10
BRANCH   5  25
HETATM   25  C   UNL     1      27.559  45.194  54.753  1.00  0.00     0.218 C 
BRANCH  25  26
HETATM   26  O   UNL     1      28.872  45.749  54.852  1.00  0.00    -0.347 OA
BRANCH  26  27
HETATM   27  C   UNL     1      29.675  45.286  55.856  1.00  0.00     0.069 A 
HETATM   28  C   UNL     1      29.496  45.927  57.085  1.00  0.00     0.037 A 
HETATM   29  C   UNL     1      30.246  45.550  58.201  1.00  0.00     0.003 A 
HETATM   30  C   UNL     1      31.181  44.525  58.093  1.00  0.00     0.000 A 
HETATM   31  C   UNL     1      31.367  43.882  56.871  1.00  0.00     0.003 A 
HETATM   32  C   UNL     1      30.616  44.261  55.752  1.00  0.00     0.037 A 
ENDBRANCH  26  27
ENDBRANCH  25  26
ENDBRANCH   5  25
TORSDOF 5
ENDMDL
MODEL 2
REMARK VINA RESULT:     -10.1      2.800      8.564
REMARK  5 active torsions:
REMARK  status: ('A' for Active; 'I' for Inactive)
REMARK    1  A    between atoms: C_9  and  N_10 
REMARK       I    between atoms: N_10  and  C_11 
REMARK    2  A    between atoms: C_11  and  C_12 
REMARK    3  A    between atoms: C_16  and  C_17 
REMARK    4  A    between atoms: C_17  and  O_18 
REMARK    5  A    between atoms: O_18  and  C_19 
ROOT
HETATM    1  C   UNL     1      24.818  44.122  51.463  1.00  0.00     0.153 A 
HETATM    2  O   UNL     1      24.418  42.931  50.916  1.00  0.00    -0.304 OA
HETATM    3  C   UNL     1      23.697  43.219  49.800  1.00  0.00     0.087 A 
HETATM    4  C   UNL     1      23.639  44.593  49.603  1.00  0.00     0.009 A 
HETATM    5  C   UNL     1      24.371  45.180  50.683  1.00  0.00     0.018 A 
HETATM    6  C   UNL     1      23.098  42.279  48.965  1.00  0.00     0.038 A 
HETATM    7  C   UNL     1      22.399  42.779  47.863  1.00  0.00     0.003 A 
HETATM    8  C   UNL     1      22.320  44.153  47.622  1.00  0.00     0.001 A 
HETATM    9  C   UNL     1      22.937  45.074  48.481  1.00  0.00     0.015 A 
ENDROOT
BRANCH   1  10
HETATM   10  C   UNL     1      25.585  44.087  52.699  1.00  0.00     0.280 C 
HETATM   11  N   UNL     1      26.945  44.236  52.480  1.00  0.00    -0.321 N 
HETATM   12  H   UNL     1      27.196  44.386  51.507  1.00  0.00     0.169 HD
HETATM   13  O   UNL     1      25.066  43.930  53.799  1.00  0.00    -0.265 OA
BRANCH  11  14
HETATM   14  C   UNL     1      27.989  44.194  53.421  1.00  0.00     0.035 A 
HETATM   15  C   UNL     1      28.149  45.137  54.440  1.00  0.00     0.039 A 
HETATM   16  C   UNL     1      29.194  44.981  55.341  1.00  0.00    -0.022 A 
HETATM   17  C   UNL     1      29.510  45.830  56.522  1.00  0.00     0.274 C 
HETATM   18  C   UNL     1      30.084  43.912  55.243  1.00  0.00    -0.025 A 
HETATM   19  N   UNL     1      30.821  45.272  57.071  1.00  0.00    -0.067 N 
HETATM   20  C   UNL     1      30.864  45.178  58.555  1.00  0.00     0.270 C 
HETATM   21  H   UNL     1      31.555  45.917  56.758  1.00  0.00     0.280 HD
HETATM   22  C   UNL     1      31.076  43.952  56.351  1.00  0.00     0.273 C 
HETATM   23  C   UNL     1      29.950  42.973  54.235  1.00  0.00     0.012 A 
HETATM   24  C   UNL     1      28.896  43.120  53.326  1.00  0.00     0.030 A 
ENDBRANCH  11  14
ENDBRANCH   1  10
BRANCH   5  25
HETATM   25  C   UNL     1      24.628  46.632  50.913  1.00  0.00     0.218 C 
BRANCH  25  26
HETATM   26  O   UNL     1      25.901  46.988  50.374  1.00  0.00    -0.347 OA
BRANCH  26  27
HETATM   27  C   UNL     1      25.961  48.107  49.593  1.00  0.00     0.069 A 
HETATM   28  C   UNL     1      24.725  48.540  49.104  1.00  0.00     0.037 A 
HETATM   29  C   UNL     1      24.636  49.676  48.296  1.00  0.00     0.003 A 
HETATM   30  C   UNL     1      25.787  50.388  47.974  1.00  0.00     0.000 A 
HETATM   31  C   UNL     1      27.024  49.962  48.455  1.00  0.00     0.003 A 
HETATM   32  C   UNL     1      27.113  48.823  49.263  1.00  0.00     0.037 A 
ENDBRANCH  26  27
ENDBRANCH  25  26
ENDBRANCH   5  25
TORSDOF 5
ENDMDL
MODEL 3
REMARK VINA RESULT:     -10.0      3.660      7.838
REMARK  5 active torsions:
REMARK  status: ('A' for Active; 'I' for Inactive)
REMARK    1  A    between atoms: C_9  and  N_10 
REMARK       I    between atoms: N_10  and  C_11 
REMARK    2  A    between atoms: C_11  and  C_12 
REMARK    3  A    between atoms: C_16  and  C_17 
REMARK    4  A    between atoms: C_17  and  O_18 
REMARK    5  A    between atoms: O_18  and  C_19 
ROOT
HETATM    1  C   UNL     1      28.028  40.603  50.480  1.00  0.00     0.153 A 
HETATM    2  O   UNL     1      28.756  39.465  50.245  1.00  0.00    -0.304 OA
HETATM    3  C   UNL     1      28.547  39.109  48.950  1.00  0.00     0.087 A 
HETATM    4  C   UNL     1      27.700  40.019  48.329  1.00  0.00     0.009 A 
HETATM    5  C   UNL     1      27.366  40.992  49.323  1.00  0.00     0.018 A 
HETATM    6  C   UNL     1      29.097  37.994  48.323  1.00  0.00     0.038 A 
HETATM    7  C   UNL     1      28.760  37.803  46.980  1.00  0.00     0.003 A 
HETATM    8  C   UNL     1      27.917  38.696  46.314  1.00  0.00     0.001 A 
HETATM    9  C   UNL     1      27.381  39.811  46.973  1.00  0.00     0.015 A 
ENDROOT
BRANCH   1  10
HETATM   10  C   UNL     1      28.056  41.172  51.817  1.00  0.00     0.280 C 
HETATM   11  N   UNL     1      28.920  42.252  51.913  1.00  0.00    -0.321 N 
HETATM   12  H   UNL     1      29.367  42.505  51.037  1.00  0.00     0.169 HD
HETATM   13  O   UNL     1      27.391  40.724  52.745  1.00  0.00    -0.265 OA
BRANCH  11  14
HETATM   14  C   UNL     1      29.247  43.008  53.053  1.00  0.00     0.035 A 
HETATM   15  C   UNL     1      28.445  44.036  53.555  1.00  0.00     0.039 A 
HETATM   16  C   UNL     1      28.843  44.695  54.710  1.00  0.00    -0.022 A 
HETATM   17  C   UNL     1      28.117  45.771  55.438  1.00  0.00     0.274 C 
HETATM   18  C   UNL     1      30.024  44.356  55.369  1.00  0.00    -0.025 A 
HETATM   19  N   UNL     1      29.066  46.203  56.554  1.00  0.00    -0.067 N 
HETATM   20  C   UNL     1      28.396  46.433  57.863  1.00  0.00     0.270 C 
HETATM   21  H   UNL     1      29.489  47.083  56.239  1.00  0.00     0.280 HD
HETATM   22  C   UNL     1      30.194  45.177  56.599  1.00  0.00     0.273 C 
HETATM   23  C   UNL     1      30.839  43.349  54.883  1.00  0.00     0.012 A 
HETATM   24  C   UNL     1      30.442  42.675  53.722  1.00  0.00     0.030 A 
ENDBRANCH  11  14
ENDBRANCH   1  10
BRANCH   5  25
HETATM   25  C   UNL     1      26.502  42.197  49.150  1.00  0.00     0.218 C 
BRANCH  25  26
HETATM   26  O   UNL     1      27.274  43.379  49.367  1.00  0.00    -0.347 OA
BRANCH  26  27
HETATM   27  C   UNL     1      26.663  44.418  50.010  1.00  0.00     0.069 A 
HETATM   28  C   UNL     1      25.754  44.034  51.000  1.00  0.00     0.037 A 
HETATM   29  C   UNL     1      25.061  44.993  51.743  1.00  0.00     0.003 A 
HETATM   30  C   UNL     1      25.276  46.346  51.499  1.00  0.00     0.000 A 
HETATM   31  C   UNL     1      26.179  46.737  50.511  1.00  0.00     0.003 A 
HETATM   32  C   UNL     1      26.872  45.776  49.767  1.00  0.00     0.037 A 
ENDBRANCH  26  27
ENDBRANCH  25  26
ENDBRANCH   5  25
TORSDOF 5
ENDMDL
MODEL 4
REMARK VINA RESULT:      -9.8      2.596      9.655
REMARK  5 active torsions:
REMARK  status: ('A' for Active; 'I' for Inactive)
REMARK    1  A    between atoms: C_9  and  N_10 
REMARK       I    between atoms: N_10  and  C_11 
REMARK    2  A    between atoms: C_11  and  C_12 
REMARK    3  A    between atoms: C_16  and  C_17 
REMARK    4  A    between atoms: C_17  and  O_18 
REMARK    5  A    between atoms: O_18  and  C_19 
ROOT
HETATM    1  C   UNL     1      24.056  47.173  49.698  1.00  0.00     0.153 A 
HETATM    2  O   UNL     1      23.568  45.914  49.458  1.00  0.00    -0.304 OA
HETATM    3  C   UNL     1      22.510  46.044  48.613  1.00  0.00     0.087 A 
HETATM    4  C   UNL     1      22.315  47.379  48.284  1.00  0.00     0.009 A 
HETATM    5  C   UNL     1      23.323  48.112  48.986  1.00  0.00     0.018 A 
HETATM    6  C   UNL     1      21.727  44.994  48.139  1.00  0.00     0.038 A 
HETATM    7  C   UNL     1      20.683  45.336  47.275  1.00  0.00     0.003 A 
HETATM    8  C   UNL     1      20.454  46.666  46.912  1.00  0.00     0.001 A 
HETATM    9  C   UNL     1      21.263  47.699  47.404  1.00  0.00     0.015 A 
ENDROOT
BRANCH   1  10
HETATM   10  C   UNL     1      25.181  47.310  50.609  1.00  0.00     0.280 C 
HETATM   11  N   UNL     1      25.044  46.522  51.741  1.00  0.00    -0.321 N 
HETATM   12  H   UNL     1      24.209  45.944  51.745  1.00  0.00     0.169 HD
HETATM   13  O   UNL     1      26.130  48.056  50.386  1.00  0.00    -0.265 OA
BRANCH  11  14
HETATM   14  C   UNL     1      25.897  46.441  52.855  1.00  0.00     0.035 A 
HETATM   15  C   UNL     1      26.821  45.411  53.048  1.00  0.00     0.039 A 
HETATM   16  C   UNL     1      27.643  45.447  54.166  1.00  0.00    -0.022 A 
HETATM   17  C   UNL     1      28.722  44.490  54.532  1.00  0.00     0.274 C 
HETATM   18  C   UNL     1      27.557  46.482  55.097  1.00  0.00    -0.025 A 
HETATM   19  N   UNL     1      29.205  44.944  55.907  1.00  0.00    -0.067 N 
HETATM   20  C   UNL     1      30.684  44.913  56.071  1.00  0.00     0.270 C 
HETATM   21  H   UNL     1      28.783  44.297  56.582  1.00  0.00     0.280 HD
HETATM   22  C   UNL     1      28.574  46.308  56.170  1.00  0.00     0.273 C 
HETATM   23  C   UNL     1      26.642  47.506  54.931  1.00  0.00     0.012 A 
HETATM   24  C   UNL     1      25.813  47.481  53.803  1.00  0.00     0.030 A 
ENDBRANCH  11  14
ENDBRANCH   1  10
BRANCH   5  25
HETATM   25  C   UNL     1      23.558  49.586  48.945  1.00  0.00     0.218 C 
BRANCH  25  26
HETATM   26  O   UNL     1      22.845  50.218  50.009  1.00  0.00    -0.347 OA
BRANCH  26  27
HETATM   27  C   UNL     1      21.602  50.710  49.725  1.00  0.00     0.069 A 
HETATM   28  C   UNL     1      21.469  51.246  48.441  1.00  0.00     0.037 A 
HETATM   29  C   UNL     1      20.251  51.778  48.013  1.00  0.00     0.003 A 
HETATM   30  C   UNL     1      19.155  51.775  48.870  1.00  0.00     0.000 A 
HETATM   31  C   UNL     1      19.280  51.245  50.153  1.00  0.00     0.003 A 
HETATM   32  C   UNL     1      20.500  50.713  50.582  1.00  0.00     0.037 A 
ENDBRANCH  26  27
ENDBRANCH  25  26
ENDBRANCH   5  25
TORSDOF 5
ENDMDL
MODEL 5
REMARK VINA RESULT:      -9.8      3.231      7.167
REMARK  5 active torsions:
REMARK  status: ('A' for Active; 'I' for Inactive)
REMARK    1  A    between atoms: C_9  and  N_10 
REMARK       I    between atoms: N_10  and  C_11 
REMARK    2  A    between atoms: C_11  and  C_12 
REMARK    3  A    between atoms: C_16  and  C_17 
REMARK    4  A    between atoms: C_17  and  O_18 
REMARK    5  A    between atoms: O_18  and  C_19 
ROOT
HETATM    1  C   UNL     1      29.069  43.912  53.928  1.00  0.00     0.153 A 
HETATM    2  O   UNL     1      30.039  43.145  54.520  1.00  0.00    -0.304 OA
HETATM    3  C   UNL     1      30.367  43.741  55.696  1.00  0.00     0.087 A 
HETATM    4  C   UNL     1      29.603  44.885  55.888  1.00  0.00     0.009 A 
HETATM    5  C   UNL     1      28.757  44.994  54.740  1.00  0.00     0.018 A 
HETATM    6  C   UNL     1      31.330  43.280  56.591  1.00  0.00     0.038 A 
HETATM    7  C   UNL     1      31.517  44.037  57.750  1.00  0.00     0.003 A 
HETATM    8  C   UNL     1      30.767  45.192  57.987  1.00  0.00     0.001 A 
HETATM    9  C   UNL     1      29.803  45.628  57.068  1.00  0.00     0.015 A 
ENDROOT
BRANCH   1  10
HETATM   10  C   UNL     1      28.568  43.501  52.626  1.00  0.00     0.280 C 
HETATM   11  N   UNL     1      28.117  42.191  52.624  1.00  0.00    -0.321 N 
HETATM   12  H   UNL     1      28.167  41.733  53.529  1.00  0.00     0.169 HD
HETATM   13  O   UNL     1      28.565  44.244  51.651  1.00  0.00    -0.265 OA
BRANCH  11  14
HETATM   14  C   UNL     1      27.624  41.441  51.542  1.00  0.00     0.035 A 
HETATM   15  C   UNL     1      26.405  41.704  50.911  1.00  0.00     0.039 A 
HETATM   16  C   UNL     1      26.029  40.924  49.825  1.00  0.00    -0.022 A 
HETATM   17  C   UNL     1      24.811  41.067  48.983  1.00  0.00     0.274 C 
HETATM   18  C   UNL     1      26.838  39.887  49.362  1.00  0.00    -0.025 A 
HETATM   19  N   UNL     1      24.851  39.880  48.024  1.00  0.00    -0.067 N 
HETATM   20  C   UNL     1      24.475  40.218  46.625  1.00  0.00     0.270 C 
HETATM   21  H   UNL     1      24.179  39.197  48.392  1.00  0.00     0.280 HD
HETATM   22  C   UNL     1      26.230  39.243  48.165  1.00  0.00     0.273 C 
HETATM   23  C   UNL     1      28.043  39.603  49.978  1.00  0.00     0.012 A 
HETATM   24  C   UNL     1      28.433  40.387  51.070  1.00  0.00     0.030 A 
ENDBRANCH  11  14
ENDBRANCH   1  10
BRANCH   5  25
HETATM   25  C   UNL     1      27.727  46.042  54.475  1.00  0.00     0.218 C 
BRANCH  25  26
HETATM   26  O   UNL     1      26.442  45.432  54.342  1.00  0.00    -0.347 OA
BRANCH  26  27
HETATM   27  C   UNL     1      25.800  45.577  53.144  1.00  0.00     0.069 A 
HETATM   28  C   UNL     1      26.028  46.801  52.508  1.00  0.00     0.037 A 
HETATM   29  C   UNL     1      25.440  47.082  51.273  1.00  0.00     0.003 A 
HETATM   30  C   UNL     1      24.620  46.137  50.665  1.00  0.00     0.000 A 
HETATM   31  C   UNL     1      24.385  44.915  51.294  1.00  0.00     0.003 A 
HETATM   32  C   UNL     1      24.973  44.634  52.532  1.00  0.00     0.037 A 
ENDBRANCH  26  27
ENDBRANCH  25  26
ENDBRANCH   5  25
TORSDOF 5
ENDMDL
MODEL 6
REMARK VINA RESULT:      -9.7      2.007      5.187
REMARK  5 active torsions:
REMARK  status: ('A' for Active; 'I' for Inactive)
REMARK    1  A    between atoms: C_9  and  N_10 
REMARK       I    between atoms: N_10  and  C_11 
REMARK    2  A    between atoms: C_11  and  C_12 
REMARK    3  A    between atoms: C_16  and  C_17 
REMARK    4  A    between atoms: C_17  and  O_18 
REMARK    5  A    between atoms: O_18  and  C_19 
ROOT
HETATM    1  C   UNL     1      27.885  45.375  54.748  1.00  0.00     0.153 A 
HETATM    2  O   UNL     1      28.191  45.979  55.940  1.00  0.00    -0.304 OA
HETATM    3  C   UNL     1      29.296  45.361  56.436  1.00  0.00     0.087 A 
HETATM    4  C   UNL     1      29.726  44.368  55.565  1.00  0.00     0.009 A 
HETATM    5  C   UNL     1      28.811  44.380  54.466  1.00  0.00     0.018 A 
HETATM    6  C   UNL     1      29.916  45.670  57.644  1.00  0.00     0.038 A 
HETATM    7  C   UNL     1      31.046  44.917  57.976  1.00  0.00     0.003 A 
HETATM    8  C   UNL     1      31.518  43.913  57.127  1.00  0.00     0.001 A 
HETATM    9  C   UNL     1      30.872  43.627  55.916  1.00  0.00     0.015 A 
ENDROOT
BRANCH   1  10
HETATM   10  C   UNL     1      26.710  45.837  54.026  1.00  0.00     0.280 C 
HETATM   11  N   UNL     1      26.729  45.463  52.692  1.00  0.00    -0.321 N 
HETATM   12  H   UNL     1      27.530  44.896  52.431  1.00  0.00     0.169 HD
HETATM   13  O   UNL     1      25.820  46.494  54.556  1.00  0.00    -0.265 OA
BRANCH  11  14
HETATM   14  C   UNL     1      25.800  45.779  51.685  1.00  0.00     0.035 A 
HETATM   15  C   UNL     1      24.884  44.862  51.164  1.00  0.00     0.039 A 
HETATM   16  C   UNL     1      23.983  45.289  50.197  1.00  0.00    -0.022 A 
HETATM   17  C   UNL     1      22.898  44.498  49.555  1.00  0.00     0.274 C 
HETATM   18  C   UNL     1      23.983  46.604  49.735  1.00  0.00    -0.025 A 
HETATM   19  N   UNL     1      22.310  45.424  48.493  1.00  0.00    -0.067 N 
HETATM   20  C   UNL     1      20.824  45.393  48.417  1.00  0.00     0.270 C 
HETATM   21  H   UNL     1      22.694  45.105  47.596  1.00  0.00     0.280 HD
HETATM   22  C   UNL     1      22.895  46.811  48.740  1.00  0.00     0.273 C 
HETATM   23  C   UNL     1      24.890  47.525  50.229  1.00  0.00     0.012 A 
HETATM   24  C   UNL     1      25.797  47.105  51.208  1.00  0.00     0.030 A 
ENDBRANCH  11  14
ENDBRANCH   1  10
BRANCH   5  25
HETATM   25  C   UNL     1      28.853  43.518  53.248  1.00  0.00     0.218 C 
BRANCH  25  26
HETATM   26  O   UNL     1      27.726  42.641  53.239  1.00  0.00    -0.347 OA
BRANCH  26  27
HETATM   27  C   UNL     1      27.608  41.782  52.182  1.00  0.00     0.069 A 
HETATM   28  C   UNL     1      28.661  40.872  52.053  1.00  0.00     0.037 A 
HETATM   29  C   UNL     1      28.668  39.931  51.021  1.00  0.00     0.003 A 
HETATM   30  C   UNL     1      27.617  39.896  50.110  1.00  0.00     0.000 A 
HETATM   31  C   UNL     1      26.564  40.802  50.230  1.00  0.00     0.003 A 
HETATM   32  C   UNL     1      26.558  41.745  51.263  1.00  0.00     0.037 A 
ENDBRANCH  26  27
ENDBRANCH  25  26
ENDBRANCH   5  25
TORSDOF 5
ENDMDL
MODEL 7
REMARK VINA RESULT:      -9.7      3.274      7.786
REMARK  5 active torsions:
REMARK  status: ('A' for Active; 'I' for Inactive)
REMARK    1  A    between atoms: C_9  and  N_10 
REMARK       I    between atoms: N_10  and  C_11 
REMARK    2  A    between atoms: C_11  and  C_12 
REMARK    3  A    between atoms: C_16  and  C_17 
REMARK    4  A    between atoms: C_17  and  O_18 
REMARK    5  A    between atoms: O_18  and  C_19 
ROOT
HETATM    1  C   UNL     1      29.072  43.877  53.889  1.00  0.00     0.153 A 
HETATM    2  O   UNL     1      30.046  43.119  54.485  1.00  0.00    -0.304 OA
HETATM    3  C   UNL     1      30.372  43.725  55.657  1.00  0.00     0.087 A 
HETATM    4  C   UNL     1      29.602  44.867  55.841  1.00  0.00     0.009 A 
HETATM    5  C   UNL     1      28.755  44.964  54.693  1.00  0.00     0.018 A 
HETATM    6  C   UNL     1      31.337  43.275  56.554  1.00  0.00     0.038 A 
HETATM    7  C   UNL     1      31.522  44.042  57.708  1.00  0.00     0.003 A 
HETATM    8  C   UNL     1      30.767  45.195  57.937  1.00  0.00     0.001 A 
HETATM    9  C   UNL     1      29.800  45.620  57.015  1.00  0.00     0.015 A 
ENDROOT
BRANCH   1  10
HETATM   10  C   UNL     1      28.571  43.455  52.590  1.00  0.00     0.280 C 
HETATM   11  N   UNL     1      28.195  42.121  52.579  1.00  0.00    -0.321 N 
HETATM   12  H   UNL     1      28.286  41.655  53.477  1.00  0.00     0.169 HD
HETATM   13  O   UNL     1      28.509  44.208  51.625  1.00  0.00    -0.265 OA
BRANCH  11  14
HETATM   14  C   UNL     1      27.726  41.357  51.495  1.00  0.00     0.035 A 
HETATM   15  C   UNL     1      28.488  40.379  50.852  1.00  0.00     0.039 A 
HETATM   16  C   UNL     1      27.914  39.656  49.815  1.00  0.00    -0.022 A 
HETATM   17  C   UNL     1      28.524  38.542  49.038  1.00  0.00     0.274 C 
HETATM   18  C   UNL     1      26.603  39.892  49.403  1.00  0.00    -0.025 A 
HETATM   19  N   UNL     1      27.500  38.207  47.957  1.00  0.00    -0.067 N 
HETATM   20  C   UNL     1      27.313  36.748  47.730  1.00  0.00     0.270 C 
HETATM   21  H   UNL     1      27.852  38.634  47.093  1.00  0.00     0.280 HD
HETATM   22  C   UNL     1      26.219  38.955  48.312  1.00  0.00     0.273 C 
HETATM   23  C   UNL     1      25.835  40.863  50.019  1.00  0.00     0.012 A 
HETATM   24  C   UNL     1      26.403  41.593  51.070  1.00  0.00     0.030 A 
ENDBRANCH  11  14
ENDBRANCH   1  10
BRANCH   5  25
HETATM   25  C   UNL     1      27.720  46.005  54.421  1.00  0.00     0.218 C 
BRANCH  25  26
HETATM   26  O   UNL     1      26.439  45.387  54.284  1.00  0.00    -0.347 OA
BRANCH  26  27
HETATM   27  C   UNL     1      25.790  45.548  53.093  1.00  0.00     0.069 A 
HETATM   28  C   UNL     1      26.019  46.777  52.468  1.00  0.00     0.037 A 
HETATM   29  C   UNL     1      25.423  47.075  51.240  1.00  0.00     0.003 A 
HETATM   30  C   UNL     1      24.594  46.140  50.629  1.00  0.00     0.000 A 
HETATM   31  C   UNL     1      24.358  44.913  51.247  1.00  0.00     0.003 A 
HETATM   32  C   UNL     1      24.953  44.615  52.477  1.00  0.00     0.037 A 
ENDBRANCH  26  27
ENDBRANCH  25  26
ENDBRANCH   5  25
TORSDOF 5
ENDMDL
MODEL 8
REMARK VINA RESULT:      -9.6      2.347      8.529
REMARK  5 active torsions:
REMARK  status: ('A' for Active; 'I' for Inactive)
REMARK    1  A    between atoms: C_9  and  N_10 
REMARK       I    between atoms: N_10  and  C_11 
REMARK    2  A    between atoms: C_11  and  C_12 
REMARK    3  A    between atoms: C_16  and  C_17 
REMARK    4  A    between atoms: C_17  and  O_18 
REMARK    5  A    between atoms: O_18  and  C_19 
ROOT
HETATM    1  C   UNL     1      24.226  47.841  49.859  1.00  0.00     0.153 A 
HETATM    2  O   UNL     1      23.794  49.141  49.905  1.00  0.00    -0.304 OA
HETATM    3  C   UNL     1      22.663  49.220  49.155  1.00  0.00     0.087 A 
HETATM    4  C   UNL     1      22.341  47.973  48.634  1.00  0.00     0.009 A 
HETATM    5  C   UNL     1      23.355  47.076  49.094  1.00  0.00     0.018 A 
HETATM    6  C   UNL     1      21.923  50.379  48.935  1.00  0.00     0.038 A 
HETATM    7  C   UNL     1      20.786  50.250  48.133  1.00  0.00     0.003 A 
HETATM    8  C   UNL     1      20.421  49.015  47.592  1.00  0.00     0.001 A 
HETATM    9  C   UNL     1      21.186  47.866  47.835  1.00  0.00     0.015 A 
ENDROOT
BRANCH   1  10
HETATM   10  C   UNL     1      25.452  47.499  50.562  1.00  0.00     0.280 C 
HETATM   11  N   UNL     1      25.209  46.903  51.789  1.00  0.00    -0.321 N 
HETATM   12  H   UNL     1      24.224  46.760  51.993  1.00  0.00     0.169 HD
HETATM   13  O   UNL     1      26.567  47.733  50.106  1.00  0.00    -0.265 OA
BRANCH  11  14
HETATM   14  C   UNL     1      26.140  46.497  52.761  1.00  0.00     0.035 A 
HETATM   15  C   UNL     1      26.761  45.245  52.759  1.00  0.00     0.039 A 
HETATM   16  C   UNL     1      27.696  44.959  53.746  1.00  0.00    -0.022 A 
HETATM   17  C   UNL     1      28.507  43.720  53.896  1.00  0.00     0.274 C 
HETATM   18  C   UNL     1      28.017  45.888  54.734  1.00  0.00    -0.025 A 
HETATM   19  N   UNL     1      29.266  43.901  55.209  1.00  0.00    -0.067 N 
HETATM   20  C   UNL     1      30.687  43.464  55.152  1.00  0.00     0.270 C 
HETATM   21  H   UNL     1      28.771  43.329  55.902  1.00  0.00     0.280 HD
HETATM   22  C   UNL     1      29.074  45.353  55.635  1.00  0.00     0.273 C 
HETATM   23  C   UNL     1      27.405  47.129  54.760  1.00  0.00     0.012 A 
HETATM   24  C   UNL     1      26.466  47.429  53.766  1.00  0.00     0.030 A 
ENDBRANCH  11  14
ENDBRANCH   1  10
BRANCH   5  25
HETATM   25  C   UNL     1      23.449  45.610  48.830  1.00  0.00     0.218 C 
BRANCH  25  26
HETATM   26  O   UNL     1      23.607  44.907  50.064  1.00  0.00    -0.347 OA
BRANCH  26  27
HETATM   27  C   UNL     1      24.528  43.898  50.098  1.00  0.00     0.069 A 
HETATM   28  C   UNL     1      25.716  44.174  49.415  1.00  0.00     0.037 A 
HETATM   29  C   UNL     1      26.749  43.235  49.373  1.00  0.00     0.003 A 
HETATM   30  C   UNL     1      26.597  42.010  50.017  1.00  0.00     0.000 A 
HETATM   31  C   UNL     1      25.414  41.727  50.698  1.00  0.00     0.003 A 
HETATM   32  C   UNL     1      24.380  42.667  50.738  1.00  0.00     0.037 A 
ENDBRANCH  26  27
ENDBRANCH  25  26
ENDBRANCH   5  25
TORSDOF 5
ENDMDL
MODEL 9
REMARK VINA RESULT:      -9.2      3.408      8.229
REMARK  5 active torsions:
REMARK  status: ('A' for Active; 'I' for Inactive)
REMARK    1  A    between atoms: C_9  and  N_10 
REMARK       I    between atoms: N_10  and  C_11 
REMARK    2  A    between atoms: C_11  and  C_12 
REMARK    3  A    between atoms: C_16  and  C_17 
REMARK    4  A    between atoms: C_17  and  O_18 
REMARK    5  A    between atoms: O_18  and  C_19 
ROOT
HETATM    1  C   UNL     1      28.751  42.362  53.693  1.00  0.00     0.153 A 
HETATM    2  O   UNL     1      29.889  42.615  54.415  1.00  0.00    -0.304 OA
HETATM    3  C   UNL     1      29.739  43.834  54.996  1.00  0.00     0.087 A 
HETATM    4  C   UNL     1      28.500  44.374  54.674  1.00  0.00     0.009 A 
HETATM    5  C   UNL     1      27.857  43.415  53.830  1.00  0.00     0.018 A 
HETATM    6  C   UNL     1      30.685  44.463  55.802  1.00  0.00     0.038 A 
HETATM    7  C   UNL     1      30.337  45.719  56.308  1.00  0.00     0.003 A 
HETATM    8  C   UNL     1      29.099  46.297  56.015  1.00  0.00     0.001 A 
HETATM    9  C   UNL     1      28.168  45.637  55.203  1.00  0.00     0.015 A 
ENDROOT
BRANCH   1  10
HETATM   10  C   UNL     1      28.677  41.120  52.940  1.00  0.00     0.280 C 
HETATM   11  N   UNL     1      28.776  41.324  51.573  1.00  0.00    -0.321 N 
HETATM   12  H   UNL     1      28.924  42.294  51.307  1.00  0.00     0.169 HD
HETATM   13  O   UNL     1      28.531  40.027  53.476  1.00  0.00    -0.265 OA
BRANCH  11  14
HETATM   14  C   UNL     1      28.687  40.374  50.541  1.00  0.00     0.035 A 
HETATM   15  C   UNL     1      28.024  40.605  49.333  1.00  0.00     0.039 A 
HETATM   16  C   UNL     1      28.029  39.610  48.364  1.00  0.00    -0.022 A 
HETATM   17  C   UNL     1      27.437  39.668  47.000  1.00  0.00     0.274 C 
HETATM   18  C   UNL     1      28.671  38.391  48.578  1.00  0.00    -0.025 A 
HETATM   19  N   UNL     1      27.629  38.267  46.425  1.00  0.00    -0.067 N 
HETATM   20  C   UNL     1      28.061  38.250  45.001  1.00  0.00     0.270 C 
HETATM   21  H   UNL     1      26.717  37.804  46.500  1.00  0.00     0.280 HD
HETATM   22  C   UNL     1      28.565  37.524  47.373  1.00  0.00     0.273 C 
HETATM   23  C   UNL     1      29.323  38.137  49.771  1.00  0.00     0.012 A 
HETATM   24  C   UNL     1      29.329  39.137  50.751  1.00  0.00     0.030 A 
ENDBRANCH  11  14
ENDBRANCH   1  10
BRANCH   5  25
HETATM   25  C   UNL     1      26.491  43.510  53.236  1.00  0.00     0.218 C 
BRANCH  25  26
HETATM   26  O   UNL     1      26.590  43.627  51.815  1.00  0.00    -0.347 OA
BRANCH  26  27
HETATM   27  C   UNL     1      26.498  44.881  51.281  1.00  0.00     0.069 A 
HETATM   28  C   UNL     1      25.886  45.823  52.113  1.00  0.00     0.037 A 
HETATM   29  C   UNL     1      25.731  47.148  51.697  1.00  0.00     0.003 A 
HETATM   30  C   UNL     1      26.192  47.538  50.444  1.00  0.00     0.000 A 
HETATM   31  C   UNL     1      26.802  46.604  49.608  1.00  0.00     0.003 A 
HETATM   32  C   UNL     1      26.955  45.277  50.023  1.00  0.00     0.037 A 
ENDBRANCH  26  27
ENDBRANCH  25  26
ENDBRANCH   5  25
TORSDOF 5
ENDMDL
MODEL 10
REMARK VINA RESULT:      -9.1      3.483      7.875
REMARK  5 active torsions:
REMARK  status: ('A' for Active; 'I' for Inactive)
REMARK    1  A    between atoms: C_9  and  N_10 
REMARK       I    between atoms: N_10  and  C_11 
REMARK    2  A    between atoms: C_11  and  C_12 
REMARK    3  A    between atoms: C_16  and  C_17 
REMARK    4  A    between atoms: C_17  and  O_18 
REMARK    5  A    between atoms: O_18  and  C_19 
ROOT
HETATM    1  C   UNL     1      24.189  47.420  49.995  1.00  0.00     0.153 A 
HETATM    2  O   UNL     1      24.895  47.885  51.074  1.00  0.00    -0.304 OA
HETATM    3  C   UNL     1      25.412  46.804  51.717  1.00  0.00     0.087 A 
HETATM    4  C   UNL     1      25.064  45.635  51.053  1.00  0.00     0.009 A 
HETATM    5  C   UNL     1      24.273  46.036  49.932  1.00  0.00     0.018 A 
HETATM    6  C   UNL     1      26.182  46.851  52.876  1.00  0.00     0.038 A 
HETATM    7  C   UNL     1      26.622  45.625  53.383  1.00  0.00     0.003 A 
HETATM    8  C   UNL     1      26.302  44.424  52.744  1.00  0.00     0.001 A 
HETATM    9  C   UNL     1      25.526  44.411  51.576  1.00  0.00     0.015 A 
ENDROOT
BRANCH   1  10
HETATM   10  C   UNL     1      23.503  48.388  49.154  1.00  0.00     0.280 C 
HETATM   11  N   UNL     1      22.204  48.625  49.574  1.00  0.00    -0.321 N 
HETATM   12  H   UNL     1      21.942  48.123  50.417  1.00  0.00     0.169 HD
HETATM   13  O   UNL     1      24.031  48.915  48.181  1.00  0.00    -0.265 OA
BRANCH  11  14
HETATM   14  C   UNL     1      21.231  49.446  48.977  1.00  0.00     0.035 A 
HETATM   15  C   UNL     1      20.388  49.021  47.947  1.00  0.00     0.039 A 
HETATM   16  C   UNL     1      19.435  49.902  47.454  1.00  0.00    -0.022 A 
HETATM   17  C   UNL     1      18.410  49.639  46.407  1.00  0.00     0.274 C 
HETATM   18  C   UNL     1      19.311  51.196  47.959  1.00  0.00    -0.025 A 
HETATM   19  N   UNL     1      17.722  50.983  46.180  1.00  0.00    -0.067 N 
HETATM   20  C   UNL     1      16.244  50.891  46.040  1.00  0.00     0.270 C 
HETATM   21  H   UNL     1      18.115  51.357  45.309  1.00  0.00     0.280 HD
HETATM   22  C   UNL     1      18.189  51.914  47.294  1.00  0.00     0.273 C 
HETATM   23  C   UNL     1      20.143  51.640  48.971  1.00  0.00     0.012 A 
HETATM   24  C   UNL     1      21.102  50.756  49.479  1.00  0.00     0.030 A 
ENDBRANCH  11  14
ENDBRANCH   1  10
BRANCH   5  25
HETATM   25  C   UNL     1      23.676  45.151  48.887  1.00  0.00     0.218 C 
BRANCH  25  26
HETATM   26  O   UNL     1      22.275  45.004  49.122  1.00  0.00    -0.347 OA
BRANCH  26  27
HETATM   27  C   UNL     1      21.430  45.325  48.098  1.00  0.00     0.069 A 
HETATM   28  C   UNL     1      20.072  45.260  48.423  1.00  0.00     0.037 A 
HETATM   29  C   UNL     1      19.096  45.568  47.474  1.00  0.00     0.003 A 
HETATM   30  C   UNL     1      19.474  45.946  46.189  1.00  0.00     0.000 A 
HETATM   31  C   UNL     1      20.826  46.010  45.855  1.00  0.00     0.003 A 
HETATM   32  C   UNL     1      21.804  45.700  46.806  1.00  0.00     0.037 A 
ENDBRANCH  26  27
ENDBRANCH  25  26
ENDBRANCH   5  25
TORSDOF 5
ENDMDL
