MODEL 1
REMARK VINA RESULT:      -8.9      0.000      0.000
REMARK  3 active torsions:
REMARK  status: ('A' for Active; 'I' for Inactive)
REMARK    1  A    between atoms: C_3  and  N_4 
REMARK       I    between atoms: N_4  and  C_5 
REMARK    2  A    between atoms: C_5  and  C_6 
REMARK    3  A    between atoms: C_9  and  N_10 
REMARK       I    between atoms: N_10  and  C_11 
ROOT
HETATM    1  N   UNL     1      28.002  44.738  53.521  1.00  0.00    -0.321 N 
HETATM    2  C   UNL     1      26.685  44.320  53.609  1.00  0.00     0.256 C 
HETATM    3  O   UNL     1      26.201  43.645  54.510  1.00  0.00    -0.267 OA
HETATM    4  H   UNL     1      28.154  45.520  52.906  1.00  0.00     0.169 HD
ENDROOT
BRANCH   2   5
HETATM    5  C   UNL     1      25.750  44.849  52.560  1.00  0.00     0.032 A 
HETATM    6  C   UNL     1      24.910  44.042  51.784  1.00  0.00     0.019 A 
HETATM    7  C   UNL     1      24.138  44.602  50.754  1.00  0.00     0.030 A 
HETATM    8  C   UNL     1      24.173  45.974  50.499  1.00  0.00     0.034 A 
HETATM    9  C   UNL     1      24.964  46.789  51.314  1.00  0.00     0.030 A 
HETATM   10  C   UNL     1      25.746  46.232  52.331  1.00  0.00     0.019 A 
BRANCH   8  11
HETATM   11  N   UNL     1      23.469  46.605  49.454  1.00  0.00    -0.328 N 
HETATM   12  C   UNL     1      23.313  47.964  49.244  1.00  0.00     0.218 C 
HETATM   13  C   UNL     1      22.440  48.251  48.049  1.00  0.00     0.117 C 
HETATM   14  O   UNL     1      23.796  48.874  49.909  1.00  0.00    -0.274 OA
HETATM   15  H   UNL     1      22.983  45.991  48.812  1.00  0.00     0.169 HD
ENDBRANCH   8  11
ENDBRANCH   2   5
BRANCH   1  16
HETATM   16  C   UNL     1      29.043  44.519  54.471  1.00  0.00     0.065 C 
HETATM   17  C   UNL     1      29.962  43.457  54.445  1.00  0.00    -0.031 C 
HETATM   18  C   UNL     1      30.142  42.487  53.309  1.00  0.00     0.050 C 
HETATM   19  C   UNL     1      30.830  43.289  55.541  1.00  0.00     0.035 C 
HETATM   20  C   UNL     1      30.832  44.210  56.576  1.00  0.00     0.031 C 
HETATM   21  N   UNL     1      30.042  45.300  56.565  1.00  0.00    -0.256 NA
HETATM   22  C   UNL     1      31.727  44.019  57.763  1.00  0.00     0.070 C 
HETATM   23  C   UNL     1      29.176  45.450  55.527  1.00  0.00     0.058 C 
HETATM   24  C   UNL     1      28.337  46.695  55.611  1.00  0.00     0.073 C 
ENDBRANCH   1  16
TORSDOF 3
ENDMDL
MODEL 2
REMARK VINA RESULT:      -8.9      0.752      2.151
REMARK  3 active torsions:
REMARK  status: ('A' for Active; 'I' for Inactive)
REMARK    1  A    between atoms: C_3  and  N_4 
REMARK       I    between atoms: N_4  and  C_5 
REMARK    2  A    between atoms: C_5  and  C_6 
REMARK    3  A    between atoms: C_9  and  N_10 
REMARK       I    between atoms: N_10  and  C_11 
ROOT
HETATM    1  N   UNL     1      28.082  44.909  53.559  1.00  0.00    -0.321 N 
HETATM    2  C   UNL     1      26.733  44.608  53.496  1.00  0.00     0.256 C 
HETATM    3  O   UNL     1      26.100  43.958  54.320  1.00  0.00    -0.267 OA
HETATM    4  H   UNL     1      28.365  45.688  52.988  1.00  0.00     0.169 HD
ENDROOT
BRANCH   2   5
HETATM    5  C   UNL     1      25.963  45.241  52.373  1.00  0.00     0.032 A 
HETATM    6  C   UNL     1      26.107  46.579  51.985  1.00  0.00     0.019 A 
HETATM    7  C   UNL     1      25.278  47.123  50.991  1.00  0.00     0.030 A 
HETATM    8  C   UNL     1      24.315  46.340  50.354  1.00  0.00     0.034 A 
HETATM    9  C   UNL     1      24.214  44.989  50.697  1.00  0.00     0.030 A 
HETATM   10  C   UNL     1      25.027  44.446  51.698  1.00  0.00     0.019 A 
BRANCH   8  11
HETATM   11  N   UNL     1      23.413  46.824  49.386  1.00  0.00    -0.328 N 
HETATM   12  C   UNL     1      23.042  48.138  49.163  1.00  0.00     0.218 C 
HETATM   13  C   UNL     1      22.004  48.252  48.074  1.00  0.00     0.117 C 
HETATM   14  O   UNL     1      23.465  49.133  49.741  1.00  0.00    -0.274 OA
HETATM   15  H   UNL     1      22.947  46.122  48.823  1.00  0.00     0.169 HD
ENDBRANCH   8  11
ENDBRANCH   2   5
BRANCH   1  16
HETATM   16  C   UNL     1      28.994  44.578  54.604  1.00  0.00     0.065 C 
HETATM   17  C   UNL     1      29.204  45.327  55.774  1.00  0.00    -0.031 C 
HETATM   18  C   UNL     1      28.363  46.489  56.227  1.00  0.00     0.050 C 
HETATM   19  C   UNL     1      30.253  44.953  56.635  1.00  0.00     0.035 C 
HETATM   20  C   UNL     1      31.000  43.816  56.372  1.00  0.00     0.031 C 
HETATM   21  N   UNL     1      30.740  43.018  55.320  1.00  0.00    -0.256 NA
HETATM   22  C   UNL     1      32.141  43.432  57.265  1.00  0.00     0.070 C 
HETATM   23  C   UNL     1      29.752  43.391  54.464  1.00  0.00     0.058 C 
HETATM   24  C   UNL     1      29.545  42.436  53.321  1.00  0.00     0.073 C 
ENDBRANCH   1  16
TORSDOF 3
ENDMDL
MODEL 3
REMARK VINA RESULT:      -8.7      0.403      1.100
REMARK  3 active torsions:
REMARK  status: ('A' for Active; 'I' for Inactive)
REMARK    1  A    between atoms: C_3  and  N_4 
REMARK       I    between atoms: N_4  and  C_5 
REMARK    2  A    between atoms: C_5  and  C_6 
REMARK    3  A    between atoms: C_9  and  N_10 
REMARK       I    between atoms: N_10  and  C_11 
ROOT
HETATM    1  N   UNL     1      28.060  44.787  53.290  1.00  0.00    -0.321 N 
HETATM    2  C   UNL     1      26.704  44.522  53.367  1.00  0.00     0.256 C 
HETATM    3  O   UNL     1      26.129  43.965  54.295  1.00  0.00    -0.267 OA
HETATM    4  H   UNL     1      28.310  45.505  52.630  1.00  0.00     0.169 HD
ENDROOT
BRANCH   2   5
HETATM    5  C   UNL     1      25.855  45.078  52.260  1.00  0.00     0.032 A 
HETATM    6  C   UNL     1      25.835  46.429  51.895  1.00  0.00     0.019 A 
HETATM    7  C   UNL     1      24.940  46.888  50.916  1.00  0.00     0.030 A 
HETATM    8  C   UNL     1      24.072  46.007  50.270  1.00  0.00     0.034 A 
HETATM    9  C   UNL     1      24.135  44.647  50.590  1.00  0.00     0.030 A 
HETATM   10  C   UNL     1      25.014  44.188  51.576  1.00  0.00     0.019 A 
BRANCH   8  11
HETATM   11  N   UNL     1      23.110  46.396  49.316  1.00  0.00    -0.328 N 
HETATM   12  C   UNL     1      22.812  47.681  48.898  1.00  0.00     0.218 C 
HETATM   13  C   UNL     1      21.677  47.698  47.904  1.00  0.00     0.117 C 
HETATM   14  O   UNL     1      23.360  48.719  49.252  1.00  0.00    -0.274 OA
HETATM   15  H   UNL     1      22.542  45.652  48.930  1.00  0.00     0.169 HD
ENDBRANCH   8  11
ENDBRANCH   2   5
BRANCH   1  16
HETATM   16  C   UNL     1      29.050  44.520  54.281  1.00  0.00     0.065 C 
HETATM   17  C   UNL     1      29.907  43.407  54.301  1.00  0.00    -0.031 C 
HETATM   18  C   UNL     1      30.073  42.415  53.183  1.00  0.00     0.050 C 
HETATM   19  C   UNL     1      30.721  43.203  55.431  1.00  0.00     0.035 C 
HETATM   20  C   UNL     1      30.737  44.135  56.457  1.00  0.00     0.031 C 
HETATM   21  N   UNL     1      30.013  45.268  56.404  1.00  0.00    -0.256 NA
HETATM   22  C   UNL     1      31.574  43.906  57.679  1.00  0.00     0.070 C 
HETATM   23  C   UNL     1      29.197  45.455  55.332  1.00  0.00     0.058 C 
HETATM   24  C   UNL     1      28.428  46.747  55.372  1.00  0.00     0.073 C 
ENDBRANCH   1  16
TORSDOF 3
ENDMDL
MODEL 4
REMARK VINA RESULT:      -8.4      2.892      9.871
REMARK  3 active torsions:
REMARK  status: ('A' for Active; 'I' for Inactive)
REMARK    1  A    between atoms: C_3  and  N_4 
REMARK       I    between atoms: N_4  and  C_5 
REMARK    2  A    between atoms: C_5  and  C_6 
REMARK    3  A    between atoms: C_9  and  N_10 
REMARK       I    between atoms: N_10  and  C_11 
ROOT
HETATM    1  N   UNL     1      21.920  48.437  49.599  1.00  0.00    -0.321 N 
HETATM    2  C   UNL     1      22.717  47.615  48.823  1.00  0.00     0.256 C 
HETATM    3  O   UNL     1      22.768  47.605  47.599  1.00  0.00    -0.267 OA
HETATM    4  H   UNL     1      22.221  48.533  50.555  1.00  0.00     0.169 HD
ENDROOT
BRANCH   2   5
HETATM    5  C   UNL     1      23.690  46.743  49.563  1.00  0.00     0.032 A 
HETATM    6  C   UNL     1      23.679  45.344  49.514  1.00  0.00     0.019 A 
HETATM    7  C   UNL     1      24.559  44.597  50.315  1.00  0.00     0.030 A 
HETATM    8  C   UNL     1      25.476  45.232  51.154  1.00  0.00     0.034 A 
HETATM    9  C   UNL     1      25.529  46.629  51.157  1.00  0.00     0.030 A 
HETATM   10  C   UNL     1      24.644  47.376  50.373  1.00  0.00     0.019 A 
BRANCH   8  11
HETATM   11  N   UNL     1      26.354  44.556  52.024  1.00  0.00    -0.328 N 
HETATM   12  C   UNL     1      26.083  44.087  53.297  1.00  0.00     0.218 C 
HETATM   13  C   UNL     1      27.300  43.469  53.939  1.00  0.00     0.117 C 
HETATM   14  O   UNL     1      25.011  44.135  53.889  1.00  0.00    -0.274 OA
HETATM   15  H   UNL     1      27.306  44.446  51.697  1.00  0.00     0.169 HD
ENDBRANCH   8  11
ENDBRANCH   2   5
BRANCH   1  16
HETATM   16  C   UNL     1      21.043  49.467  49.148  1.00  0.00     0.065 C 
HETATM   17  C   UNL     1      21.436  50.743  48.712  1.00  0.00    -0.031 C 
HETATM   18  C   UNL     1      22.852  51.175  48.448  1.00  0.00     0.050 C 
HETATM   19  C   UNL     1      20.440  51.703  48.449  1.00  0.00     0.035 C 
HETATM   20  C   UNL     1      19.101  51.359  48.534  1.00  0.00     0.031 C 
HETATM   21  N   UNL     1      18.701  50.110  48.836  1.00  0.00    -0.256 NA
HETATM   22  C   UNL     1      18.035  52.385  48.291  1.00  0.00     0.070 C 
HETATM   23  C   UNL     1      19.656  49.187  49.126  1.00  0.00     0.058 C 
HETATM   24  C   UNL     1      19.107  47.826  49.455  1.00  0.00     0.073 C 
ENDBRANCH   1  16
TORSDOF 3
ENDMDL
MODEL 5
REMARK VINA RESULT:      -8.3      1.618      2.566
REMARK  3 active torsions:
REMARK  status: ('A' for Active; 'I' for Inactive)
REMARK    1  A    between atoms: C_3  and  N_4 
REMARK       I    between atoms: N_4  and  C_5 
REMARK    2  A    between atoms: C_5  and  C_6 
REMARK    3  A    between atoms: C_9  and  N_10 
REMARK       I    between atoms: N_10  and  C_11 
ROOT
HETATM    1  N   UNL     1      27.782  44.567  53.378  1.00  0.00    -0.321 N 
HETATM    2  C   UNL     1      26.408  44.433  53.480  1.00  0.00     0.256 C 
HETATM    3  O   UNL     1      25.789  44.086  54.479  1.00  0.00    -0.267 OA
HETATM    4  H   UNL     1      28.092  45.144  52.613  1.00  0.00     0.169 HD
ENDROOT
BRANCH   2   5
HETATM    5  C   UNL     1      25.609  44.872  52.287  1.00  0.00     0.032 A 
HETATM    6  C   UNL     1      25.653  46.164  51.749  1.00  0.00     0.019 A 
HETATM    7  C   UNL     1      24.800  46.525  50.694  1.00  0.00     0.030 A 
HETATM    8  C   UNL     1      23.911  45.600  50.144  1.00  0.00     0.034 A 
HETATM    9  C   UNL     1      23.911  44.292  50.639  1.00  0.00     0.030 A 
HETATM   10  C   UNL     1      24.747  43.933  51.701  1.00  0.00     0.019 A 
BRANCH   8  11
HETATM   11  N   UNL     1      22.989  45.897  49.121  1.00  0.00    -0.328 N 
HETATM   12  C   UNL     1      22.879  45.287  47.884  1.00  0.00     0.218 C 
HETATM   13  C   UNL     1      21.806  45.925  47.037  1.00  0.00     0.117 C 
HETATM   14  O   UNL     1      23.539  44.344  47.464  1.00  0.00    -0.274 OA
HETATM   15  H   UNL     1      22.368  46.678  49.295  1.00  0.00     0.169 HD
ENDBRANCH   8  11
ENDBRANCH   2   5
BRANCH   1  16
HETATM   16  C   UNL     1      28.747  44.382  54.411  1.00  0.00     0.065 C 
HETATM   17  C   UNL     1      29.124  45.348  55.359  1.00  0.00    -0.031 C 
HETATM   18  C   UNL     1      28.435  46.666  55.582  1.00  0.00     0.050 C 
HETATM   19  C   UNL     1      30.206  45.067  56.215  1.00  0.00     0.035 C 
HETATM   20  C   UNL     1      30.821  43.825  56.177  1.00  0.00     0.031 C 
HETATM   21  N   UNL     1      30.400  42.844  55.358  1.00  0.00    -0.256 NA
HETATM   22  C   UNL     1      31.996  43.531  57.060  1.00  0.00     0.070 C 
HETATM   23  C   UNL     1      29.379  43.120  54.503  1.00  0.00     0.058 C 
HETATM   24  C   UNL     1      28.988  41.961  53.629  1.00  0.00     0.073 C 
ENDBRANCH   1  16
TORSDOF 3
ENDMDL
MODEL 6
REMARK VINA RESULT:      -8.2     15.463     17.487
REMARK  3 active torsions:
REMARK  status: ('A' for Active; 'I' for Inactive)
REMARK    1  A    between atoms: C_3  and  N_4 
REMARK       I    between atoms: N_4  and  C_5 
REMARK    2  A    between atoms: C_5  and  C_6 
REMARK    3  A    between atoms: C_9  and  N_10 
REMARK       I    between atoms: N_10  and  C_11 
ROOT
HETATM    1  N   UNL     1      38.290  47.008  65.413  1.00  0.00    -0.321 N 
HETATM    2  C   UNL     1      37.563  46.403  64.403  1.00  0.00     0.256 C 
HETATM    3  O   UNL     1      36.636  46.907  63.780  1.00  0.00    -0.267 OA
HETATM    4  H   UNL     1      39.187  46.588  65.594  1.00  0.00     0.169 HD
ENDROOT
BRANCH   2   5
HETATM    5  C   UNL     1      38.042  45.051  63.958  1.00  0.00     0.032 A 
HETATM    6  C   UNL     1      39.375  44.760  63.644  1.00  0.00     0.019 A 
HETATM    7  C   UNL     1      39.727  43.498  63.140  1.00  0.00     0.030 A 
HETATM    8  C   UNL     1      38.764  42.503  62.964  1.00  0.00     0.034 A 
HETATM    9  C   UNL     1      37.444  42.774  63.336  1.00  0.00     0.030 A 
HETATM   10  C   UNL     1      37.086  44.035  63.824  1.00  0.00     0.019 A 
BRANCH   8  11
HETATM   11  N   UNL     1      39.027  41.232  62.416  1.00  0.00    -0.328 N 
HETATM   12  C   UNL     1      39.475  40.105  63.082  1.00  0.00     0.218 C 
HETATM   13  C   UNL     1      39.697  38.948  62.140  1.00  0.00     0.117 C 
HETATM   14  O   UNL     1      39.686  39.992  64.284  1.00  0.00    -0.274 OA
HETATM   15  H   UNL     1      38.922  41.150  61.412  1.00  0.00     0.169 HD
ENDBRANCH   8  11
ENDBRANCH   2   5
BRANCH   1  16
HETATM   16  C   UNL     1      38.151  48.341  65.900  1.00  0.00     0.065 C 
HETATM   17  C   UNL     1      37.243  48.760  66.887  1.00  0.00    -0.031 C 
HETATM   18  C   UNL     1      36.410  47.849  67.747  1.00  0.00     0.050 C 
HETATM   19  C   UNL     1      37.115  50.138  67.145  1.00  0.00     0.035 C 
HETATM   20  C   UNL     1      37.937  51.047  66.499  1.00  0.00     0.031 C 
HETATM   21  N   UNL     1      38.893  50.659  65.636  1.00  0.00    -0.256 NA
HETATM   22  C   UNL     1      37.782  52.518  66.741  1.00  0.00     0.070 C 
HETATM   23  C   UNL     1      38.999  49.333  65.354  1.00  0.00     0.058 C 
HETATM   24  C   UNL     1      40.093  49.004  64.376  1.00  0.00     0.073 C 
ENDBRANCH   1  16
TORSDOF 3
ENDMDL
MODEL 7
REMARK VINA RESULT:      -8.1      2.886      4.989
REMARK  3 active torsions:
REMARK  status: ('A' for Active; 'I' for Inactive)
REMARK    1  A    between atoms: C_3  and  N_4 
REMARK       I    between atoms: N_4  and  C_5 
REMARK    2  A    between atoms: C_5  and  C_6 
REMARK    3  A    between atoms: C_9  and  N_10 
REMARK       I    between atoms: N_10  and  C_11 
ROOT
HETATM    1  N   UNL     1      25.190  46.855  50.965  1.00  0.00    -0.321 N 
HETATM    2  C   UNL     1      25.575  47.725  49.961  1.00  0.00     0.256 C 
HETATM    3  O   UNL     1      26.699  47.823  49.483  1.00  0.00    -0.267 OA
HETATM    4  H   UNL     1      24.198  46.687  51.018  1.00  0.00     0.169 HD
ENDROOT
BRANCH   2   5
HETATM    5  C   UNL     1      24.479  48.533  49.327  1.00  0.00     0.032 A 
HETATM    6  C   UNL     1      24.685  49.761  48.687  1.00  0.00     0.019 A 
HETATM    7  C   UNL     1      23.594  50.504  48.207  1.00  0.00     0.030 A 
HETATM    8  C   UNL     1      22.290  50.024  48.335  1.00  0.00     0.034 A 
HETATM    9  C   UNL     1      22.090  48.769  48.917  1.00  0.00     0.030 A 
HETATM   10  C   UNL     1      23.172  48.033  49.411  1.00  0.00     0.019 A 
BRANCH   8  11
HETATM   11  N   UNL     1      21.141  50.731  47.926  1.00  0.00    -0.328 N 
HETATM   12  C   UNL     1      20.207  51.357  48.733  1.00  0.00     0.218 C 
HETATM   13  C   UNL     1      19.082  51.957  47.927  1.00  0.00     0.117 C 
HETATM   14  O   UNL     1      20.230  51.449  49.955  1.00  0.00    -0.274 OA
HETATM   15  H   UNL     1      20.954  50.738  46.931  1.00  0.00     0.169 HD
ENDBRANCH   8  11
ENDBRANCH   2   5
BRANCH   1  16
HETATM   16  C   UNL     1      25.993  45.868  51.609  1.00  0.00     0.065 C 
HETATM   17  C   UNL     1      26.457  44.680  51.020  1.00  0.00    -0.031 C 
HETATM   18  C   UNL     1      26.365  44.339  49.558  1.00  0.00     0.050 C 
HETATM   19  C   UNL     1      27.105  43.731  51.833  1.00  0.00     0.035 C 
HETATM   20  C   UNL     1      27.357  44.012  53.167  1.00  0.00     0.031 C 
HETATM   21  N   UNL     1      27.026  45.192  53.723  1.00  0.00    -0.256 NA
HETATM   22  C   UNL     1      28.014  42.993  54.048  1.00  0.00     0.070 C 
HETATM   23  C   UNL     1      26.367  46.099  52.954  1.00  0.00     0.058 C 
HETATM   24  C   UNL     1      26.039  47.380  53.669  1.00  0.00     0.073 C 
ENDBRANCH   1  16
TORSDOF 3
ENDMDL
MODEL 8
REMARK VINA RESULT:      -7.8      3.516      5.979
REMARK  3 active torsions:
REMARK  status: ('A' for Active; 'I' for Inactive)
REMARK    1  A    between atoms: C_3  and  N_4 
REMARK       I    between atoms: N_4  and  C_5 
REMARK    2  A    between atoms: C_5  and  C_6 
REMARK    3  A    between atoms: C_9  and  N_10 
REMARK       I    between atoms: N_10  and  C_11 
ROOT
HETATM    1  N   UNL     1      24.454  46.918  50.556  1.00  0.00    -0.321 N 
HETATM    2  C   UNL     1      24.848  47.979  49.760  1.00  0.00     0.256 C 
HETATM    3  O   UNL     1      25.999  48.252  49.438  1.00  0.00    -0.267 OA
HETATM    4  H   UNL     1      23.485  46.662  50.466  1.00  0.00     0.169 HD
ENDROOT
BRANCH   2   5
HETATM    5  C   UNL     1      23.745  48.791  49.144  1.00  0.00     0.032 A 
HETATM    6  C   UNL     1      23.902  50.108  48.696  1.00  0.00     0.019 A 
HETATM    7  C   UNL     1      22.797  50.834  48.224  1.00  0.00     0.030 A 
HETATM    8  C   UNL     1      21.529  50.253  48.169  1.00  0.00     0.034 A 
HETATM    9  C   UNL     1      21.384  48.918  48.557  1.00  0.00     0.030 A 
HETATM   10  C   UNL     1      22.479  48.196  49.042  1.00  0.00     0.019 A 
BRANCH   8  11
HETATM   11  N   UNL     1      20.363  50.930  47.757  1.00  0.00    -0.328 N 
HETATM   12  C   UNL     1      19.480  51.642  48.549  1.00  0.00     0.218 C 
HETATM   13  C   UNL     1      18.315  52.174  47.752  1.00  0.00     0.117 C 
HETATM   14  O   UNL     1      19.572  51.852  49.753  1.00  0.00    -0.274 OA
HETATM   15  H   UNL     1      20.121  50.842  46.778  1.00  0.00     0.169 HD
ENDBRANCH   8  11
ENDBRANCH   2   5
BRANCH   1  16
HETATM   16  C   UNL     1      25.285  45.904  51.119  1.00  0.00     0.065 C 
HETATM   17  C   UNL     1      25.989  46.004  52.331  1.00  0.00    -0.031 C 
HETATM   18  C   UNL     1      25.829  47.104  53.343  1.00  0.00     0.050 C 
HETATM   19  C   UNL     1      26.893  44.980  52.671  1.00  0.00     0.035 C 
HETATM   20  C   UNL     1      27.012  43.857  51.867  1.00  0.00     0.031 C 
HETATM   21  N   UNL     1      26.261  43.688  50.763  1.00  0.00    -0.256 NA
HETATM   22  C   UNL     1      27.998  42.780  52.204  1.00  0.00     0.070 C 
HETATM   23  C   UNL     1      25.412  44.688  50.407  1.00  0.00     0.058 C 
HETATM   24  C   UNL     1      24.624  44.403  49.158  1.00  0.00     0.073 C 
ENDBRANCH   1  16
TORSDOF 3
ENDMDL
MODEL 9
REMARK VINA RESULT:      -7.8     13.006     15.635
REMARK  3 active torsions:
REMARK  status: ('A' for Active; 'I' for Inactive)
REMARK    1  A    between atoms: C_3  and  N_4 
REMARK       I    between atoms: N_4  and  C_5 
REMARK    2  A    between atoms: C_5  and  C_6 
REMARK    3  A    between atoms: C_9  and  N_10 
REMARK       I    between atoms: N_10  and  C_11 
ROOT
HETATM    1  N   UNL     1      30.535  50.624  40.820  1.00  0.00    -0.321 N 
HETATM    2  C   UNL     1      31.043  50.102  41.997  1.00  0.00     0.256 C 
HETATM    3  O   UNL     1      30.587  49.152  42.622  1.00  0.00    -0.267 OA
HETATM    4  H   UNL     1      31.187  51.179  40.291  1.00  0.00     0.169 HD
ENDROOT
BRANCH   2   5
HETATM    5  C   UNL     1      32.340  50.689  42.476  1.00  0.00     0.032 A 
HETATM    6  C   UNL     1      33.570  50.490  41.838  1.00  0.00     0.019 A 
HETATM    7  C   UNL     1      34.754  50.989  42.405  1.00  0.00     0.030 A 
HETATM    8  C   UNL     1      34.727  51.712  43.599  1.00  0.00     0.034 A 
HETATM    9  C   UNL     1      33.492  51.964  44.203  1.00  0.00     0.030 A 
HETATM   10  C   UNL     1      32.312  51.455  43.650  1.00  0.00     0.019 A 
BRANCH   8  11
HETATM   11  N   UNL     1      35.873  52.200  44.257  1.00  0.00    -0.328 N 
HETATM   12  C   UNL     1      36.762  53.157  43.800  1.00  0.00     0.218 C 
HETATM   13  C   UNL     1      37.901  53.371  44.765  1.00  0.00     0.117 C 
HETATM   14  O   UNL     1      36.692  53.790  42.752  1.00  0.00    -0.274 OA
HETATM   15  H   UNL     1      36.096  51.765  45.143  1.00  0.00     0.169 HD
ENDBRANCH   8  11
ENDBRANCH   2   5
BRANCH   1  16
HETATM   16  C   UNL     1      29.423  50.140  40.070  1.00  0.00     0.065 C 
HETATM   17  C   UNL     1      29.449  49.058  39.175  1.00  0.00    -0.031 C 
HETATM   18  C   UNL     1      30.592  48.095  39.006  1.00  0.00     0.050 C 
HETATM   19  C   UNL     1      28.308  48.803  38.391  1.00  0.00     0.035 C 
HETATM   20  C   UNL     1      27.156  49.553  38.570  1.00  0.00     0.031 C 
HETATM   21  N   UNL     1      27.071  50.518  39.504  1.00  0.00    -0.256 NA
HETATM   22  C   UNL     1      25.950  49.312  37.714  1.00  0.00     0.070 C 
HETATM   23  C   UNL     1      28.180  50.794  40.241  1.00  0.00     0.058 C 
HETATM   24  C   UNL     1      27.982  51.890  41.252  1.00  0.00     0.073 C 
ENDBRANCH   1  16
TORSDOF 3
ENDMDL
MODEL 10
REMARK VINA RESULT:      -7.7     12.800     15.871
REMARK  3 active torsions:
REMARK  status: ('A' for Active; 'I' for Inactive)
REMARK    1  A    between atoms: C_3  and  N_4 
REMARK       I    between atoms: N_4  and  C_5 
REMARK    2  A    between atoms: C_5  and  C_6 
REMARK    3  A    between atoms: C_9  and  N_10 
REMARK       I    between atoms: N_10  and  C_11 
ROOT
HETATM    1  N   UNL     1      30.247  50.758  40.615  1.00  0.00    -0.321 N 
HETATM    2  C   UNL     1      30.453  51.643  41.660  1.00  0.00     0.256 C 
HETATM    3  O   UNL     1      29.611  52.383  42.155  1.00  0.00    -0.267 OA
HETATM    4  H   UNL     1      30.935  50.026  40.543  1.00  0.00     0.169 HD
ENDROOT
BRANCH   2   5
HETATM    5  C   UNL     1      31.804  51.594  42.313  1.00  0.00     0.032 A 
HETATM    6  C   UNL     1      32.030  51.887  43.663  1.00  0.00     0.019 A 
HETATM    7  C   UNL     1      33.336  51.917  44.176  1.00  0.00     0.030 A 
HETATM    8  C   UNL     1      34.432  51.633  43.359  1.00  0.00     0.034 A 
HETATM    9  C   UNL     1      34.203  51.280  42.026  1.00  0.00     0.030 A 
HETATM   10  C   UNL     1      32.904  51.265  41.508  1.00  0.00     0.019 A 
BRANCH   8  11
HETATM   11  N   UNL     1      35.774  51.693  43.783  1.00  0.00    -0.328 N 
HETATM   12  C   UNL     1      36.728  52.632  43.431  1.00  0.00     0.218 C 
HETATM   13  C   UNL     1      38.071  52.325  44.044  1.00  0.00     0.117 C 
HETATM   14  O   UNL     1      36.568  53.615  42.716  1.00  0.00    -0.274 OA
HETATM   15  H   UNL     1      36.088  50.932  44.375  1.00  0.00     0.169 HD
ENDBRANCH   8  11
ENDBRANCH   2   5
BRANCH   1  16
HETATM   16  C   UNL     1      29.020  50.488  39.941  1.00  0.00     0.065 C 
HETATM   17  C   UNL     1      28.494  51.231  38.871  1.00  0.00    -0.031 C 
HETATM   18  C   UNL     1      29.224  52.308  38.117  1.00  0.00     0.050 C 
HETATM   19  C   UNL     1      27.195  50.934  38.418  1.00  0.00     0.035 C 
HETATM   20  C   UNL     1      26.493  49.869  38.960  1.00  0.00     0.031 C 
HETATM   21  N   UNL     1      27.024  49.071  39.905  1.00  0.00    -0.256 NA
HETATM   22  C   UNL     1      25.096  49.569  38.508  1.00  0.00     0.070 C 
HETATM   23  C   UNL     1      28.263  49.373  40.374  1.00  0.00     0.058 C 
HETATM   24  C   UNL     1      28.763  48.425  41.429  1.00  0.00     0.073 C 
ENDBRANCH   1  16
TORSDOF 3
ENDMDL
