MODEL 1
REMARK VINA RESULT:      -9.8      0.000      0.000
REMARK  9 active torsions:
REMARK  status: ('A' for Active; 'I' for Inactive)
REMARK    1  A    between atoms: C_6  and  N_7 
REMARK    2  A    between atoms: C_6  and  C_31 
REMARK       I    between atoms: N_7  and  C_8 
REMARK    3  A    between atoms: N_7  and  C_23 
REMARK    4  A    between atoms: C_8  and  C_9 
REMARK    5  A    between atoms: C_9  and  N_10 
REMARK    6  A    between atoms: C_14  and  C_15 
REMARK    7  A    between atoms: C_23  and  C_24 
REMARK       I    between atoms: C_31  and  N_32 
REMARK    8  A    between atoms: N_32  and  C_33 
REMARK    9  A    between atoms: C_36  and  O_37 
ROOT
HETATM    1  N   UNL     1      24.887  45.674  51.157  1.00  0.00    -0.328 N 
HETATM    2  C   UNL     1      25.127  45.422  52.522  1.00  0.00     0.239 C 
HETATM    3  O   UNL     1      25.143  44.270  52.966  1.00  0.00    -0.271 OA
ENDROOT
BRANCH   1   4
HETATM    4  C   UNL     1      24.711  44.502  50.199  1.00  0.00     0.120 C 
HETATM    5  C   UNL     1      23.566  43.560  50.670  1.00  0.00     0.069 C 
HETATM    6  C   UNL     1      23.269  42.460  49.662  1.00  0.00     0.237 C 
HETATM    7  N   UNL     1      22.894  43.085  48.348  1.00  0.00    -0.075 N 
HETATM    8  C   UNL     1      22.440  42.042  47.358  1.00  0.00     0.269 C 
HETATM    9  H   UNL     1      22.083  43.702  48.512  1.00  0.00     0.279 HD
HETATM   10  C   UNL     1      23.999  43.939  47.777  1.00  0.00     0.237 C 
HETATM   11  C   UNL     1      24.385  45.033  48.771  1.00  0.00     0.069 C 
BRANCH   4  12
HETATM   12  C   UNL     1      26.019  43.619  50.085  1.00  0.00     0.251 C 
HETATM   13  N   UNL     1      26.004  42.443  50.807  1.00  0.00    -0.325 N 
HETATM   14  H   UNL     1      25.194  42.243  51.383  1.00  0.00     0.169 HD
HETATM   15  O   UNL     1      26.926  43.958  49.327  1.00  0.00    -0.270 OA
BRANCH  13  16
HETATM   16  C   UNL     1      27.076  41.543  51.000  1.00  0.00     0.035 A 
HETATM   17  C   UNL     1      27.895  41.531  52.131  1.00  0.00     0.032 A 
HETATM   18  C   UNL     1      28.863  40.532  52.297  1.00  0.00     0.039 A 
HETATM   19  C   UNL     1      29.026  39.544  51.327  1.00  0.00     0.068 A 
HETATM   20  C   UNL     1      28.251  39.586  50.171  1.00  0.00     0.039 A 
HETATM   21  C   UNL     1      27.271  40.567  50.015  1.00  0.00     0.032 A 
BRANCH  19  22
HETATM   22  O   UNL     1      29.926  38.520  51.398  1.00  0.00    -0.356 OA
HETATM   23  C   UNL     1      29.995  37.701  50.234  1.00  0.00     0.210 C 
ENDBRANCH  19  22
ENDBRANCH  13  16
ENDBRANCH   4  12
ENDBRANCH   1   4
BRANCH   1  24
HETATM   24  C   UNL     1      24.379  47.003  50.745  1.00  0.00     0.169 C 
BRANCH  24  25
HETATM   25  C   UNL     1      25.362  47.855  49.986  1.00  0.00    -0.002 A 
HETATM   26  C   UNL     1      24.856  48.875  49.169  1.00  0.00     0.124 A 
HETATM   27  F   UNL     1      23.530  49.041  49.066  1.00  0.00    -0.205 F 
HETATM   28  C   UNL     1      25.693  49.713  48.441  1.00  0.00     0.043 A 
HETATM   29  C   UNL     1      27.073  49.555  48.534  1.00  0.00     0.003 A 
HETATM   30  C   UNL     1      27.604  48.564  49.359  1.00  0.00     0.001 A 
HETATM   31  C   UNL     1      26.756  47.721  50.083  1.00  0.00     0.012 A 
ENDBRANCH  24  25
ENDBRANCH   1  24
BRANCH   2  32
HETATM   32  C   UNL     1      25.406  46.597  53.481  1.00  0.00     0.228 C 
BRANCH  32  33
HETATM   33  N   UNL     1      26.658  46.544  54.227  1.00  0.00    -0.347 N 
HETATM   34  C   UNL     1      27.053  47.440  55.221  1.00  0.00     0.171 A 
HETATM   35  S   UNL     1      26.162  48.595  55.999  1.00  0.00    -0.041 SA
HETATM   36  N   UNL     1      28.386  47.223  55.497  1.00  0.00    -0.357 N 
HETATM   37  C   UNL     1      28.986  46.259  54.608  1.00  0.00     0.135 A 
HETATM   38  H   UNL     1      28.899  47.790  56.161  1.00  0.00     0.162 HD
HETATM   39  C   UNL     1      27.804  45.776  53.745  1.00  0.00     0.155 A 
BRANCH  37  40
HETATM   40  C   UNL     1      29.710  45.180  55.375  1.00  0.00    -0.034 A 
HETATM   41  C   UNL     1      29.842  43.878  54.864  1.00  0.00     0.009 A 
HETATM   42  C   UNL     1      30.490  42.885  55.602  1.00  0.00     0.001 A 
HETATM   43  C   UNL     1      31.012  43.180  56.858  1.00  0.00     0.000 A 
HETATM   44  C   UNL     1      30.888  44.465  57.380  1.00  0.00     0.001 A 
HETATM   45  C   UNL     1      30.241  45.459  56.644  1.00  0.00     0.009 A 
ENDBRANCH  37  40
ENDBRANCH  32  33
ENDBRANCH   2  32
TORSDOF 9
ENDMDL
MODEL 2
REMARK VINA RESULT:      -9.1      4.096      7.487
REMARK  9 active torsions:
REMARK  status: ('A' for Active; 'I' for Inactive)
REMARK    1  A    between atoms: C_6  and  N_7 
REMARK    2  A    between atoms: C_6  and  C_31 
REMARK       I    between atoms: N_7  and  C_8 
REMARK    3  A    between atoms: N_7  and  C_23 
REMARK    4  A    between atoms: C_8  and  C_9 
REMARK    5  A    between atoms: C_9  and  N_10 
REMARK    6  A    between atoms: C_14  and  C_15 
REMARK    7  A    between atoms: C_23  and  C_24 
REMARK       I    between atoms: C_31  and  N_32 
REMARK    8  A    between atoms: N_32  and  C_33 
REMARK    9  A    between atoms: C_36  and  O_37 
ROOT
HETATM    1  N   UNL     1      23.754  46.254  48.912  1.00  0.00    -0.328 N 
HETATM    2  C   UNL     1      24.538  45.085  48.923  1.00  0.00     0.239 C 
HETATM    3  O   UNL     1      24.085  44.007  48.524  1.00  0.00    -0.271 OA
ENDROOT
BRANCH   1   4
HETATM    4  C   UNL     1      22.345  46.206  48.333  1.00  0.00     0.120 C 
HETATM    5  C   UNL     1      22.358  45.666  46.873  1.00  0.00     0.069 C 
HETATM    6  C   UNL     1      20.956  45.471  46.316  1.00  0.00     0.237 C 
HETATM    7  N   UNL     1      20.205  44.513  47.197  1.00  0.00    -0.075 N 
HETATM    8  C   UNL     1      18.863  44.164  46.604  1.00  0.00     0.269 C 
HETATM    9  H   UNL     1      20.743  43.632  47.236  1.00  0.00     0.279 HD
HETATM   10  C   UNL     1      20.065  45.017  48.612  1.00  0.00     0.237 C 
HETATM   11  C   UNL     1      21.444  45.288  49.212  1.00  0.00     0.069 C 
BRANCH   4  12
HETATM   12  C   UNL     1      21.664  47.634  48.292  1.00  0.00     0.251 C 
HETATM   13  N   UNL     1      21.071  48.041  49.470  1.00  0.00    -0.325 N 
HETATM   14  H   UNL     1      21.073  47.401  50.255  1.00  0.00     0.169 HD
HETATM   15  O   UNL     1      21.755  48.329  47.282  1.00  0.00    -0.270 OA
BRANCH  13  16
HETATM   16  C   UNL     1      20.278  49.193  49.675  1.00  0.00     0.035 A 
HETATM   17  C   UNL     1      20.788  50.489  49.765  1.00  0.00     0.032 A 
HETATM   18  C   UNL     1      19.924  51.588  49.854  1.00  0.00     0.039 A 
HETATM   19  C   UNL     1      18.543  51.396  49.864  1.00  0.00     0.068 A 
HETATM   20  C   UNL     1      18.032  50.102  49.832  1.00  0.00     0.039 A 
HETATM   21  C   UNL     1      18.890  49.007  49.721  1.00  0.00     0.032 A 
BRANCH  19  22
HETATM   22  O   UNL     1      17.616  52.396  49.932  1.00  0.00    -0.356 OA
HETATM   23  C   UNL     1      16.291  52.011  49.573  1.00  0.00     0.210 C 
ENDBRANCH  19  22
ENDBRANCH  13  16
ENDBRANCH   4  12
ENDBRANCH   1   4
BRANCH   1  24
HETATM   24  C   UNL     1      24.102  47.368  49.823  1.00  0.00     0.169 C 
BRANCH  24  25
HETATM   25  C   UNL     1      25.240  48.241  49.360  1.00  0.00    -0.002 A 
HETATM   26  C   UNL     1      24.928  49.407  48.648  1.00  0.00     0.124 A 
HETATM   27  F   UNL     1      23.647  49.692  48.379  1.00  0.00    -0.205 F 
HETATM   28  C   UNL     1      25.917  50.272  48.191  1.00  0.00     0.043 A 
HETATM   29  C   UNL     1      27.253  49.990  48.460  1.00  0.00     0.003 A 
HETATM   30  C   UNL     1      27.590  48.850  49.187  1.00  0.00     0.001 A 
HETATM   31  C   UNL     1      26.591  47.981  49.638  1.00  0.00     0.012 A 
ENDBRANCH  24  25
ENDBRANCH   1  24
BRANCH   2  32
HETATM   32  C   UNL     1      25.999  45.146  49.414  1.00  0.00     0.228 C 
BRANCH  32  33
HETATM   33  N   UNL     1      26.261  44.601  50.741  1.00  0.00    -0.347 N 
HETATM   34  C   UNL     1      26.105  43.267  51.119  1.00  0.00     0.171 A 
HETATM   35  S   UNL     1      25.859  41.935  50.171  1.00  0.00    -0.041 SA
HETATM   36  N   UNL     1      26.190  43.191  52.493  1.00  0.00    -0.357 N 
HETATM   37  C   UNL     1      26.276  44.490  53.114  1.00  0.00     0.135 A 
HETATM   38  H   UNL     1      26.064  42.321  52.995  1.00  0.00     0.162 HD
HETATM   39  C   UNL     1      26.342  45.460  51.919  1.00  0.00     0.155 A 
BRANCH  37  40
HETATM   40  C   UNL     1      27.439  44.564  54.073  1.00  0.00    -0.034 A 
HETATM   41  C   UNL     1      27.558  45.609  55.004  1.00  0.00     0.009 A 
HETATM   42  C   UNL     1      28.657  45.677  55.863  1.00  0.00     0.001 A 
HETATM   43  C   UNL     1      29.650  44.703  55.802  1.00  0.00     0.000 A 
HETATM   44  C   UNL     1      29.548  43.661  54.883  1.00  0.00     0.001 A 
HETATM   45  C   UNL     1      28.450  43.591  54.024  1.00  0.00     0.009 A 
ENDBRANCH  37  40
ENDBRANCH  32  33
ENDBRANCH   2  32
TORSDOF 9
ENDMDL
MODEL 3
REMARK VINA RESULT:      -9.1      6.419      9.930
REMARK  9 active torsions:
REMARK  status: ('A' for Active; 'I' for Inactive)
REMARK    1  A    between atoms: C_6  and  N_7 
REMARK    2  A    between atoms: C_6  and  C_31 
REMARK       I    between atoms: N_7  and  C_8 
REMARK    3  A    between atoms: N_7  and  C_23 
REMARK    4  A    between atoms: C_8  and  C_9 
REMARK    5  A    between atoms: C_9  and  N_10 
REMARK    6  A    between atoms: C_14  and  C_15 
REMARK    7  A    between atoms: C_23  and  C_24 
REMARK       I    between atoms: C_31  and  N_32 
REMARK    8  A    between atoms: N_32  and  C_33 
REMARK    9  A    between atoms: C_36  and  O_37 
ROOT
HETATM    1  N   UNL     1      20.946  48.219  48.332  1.00  0.00    -0.328 N 
HETATM    2  C   UNL     1      22.323  48.013  48.124  1.00  0.00     0.239 C 
HETATM    3  O   UNL     1      22.730  47.117  47.378  1.00  0.00    -0.271 OA
ENDROOT
BRANCH   1   4
HETATM    4  C   UNL     1      19.937  47.368  47.571  1.00  0.00     0.120 C 
HETATM    5  C   UNL     1      20.468  47.005  46.153  1.00  0.00     0.069 C 
HETATM    6  C   UNL     1      19.549  46.038  45.421  1.00  0.00     0.237 C 
HETATM    7  N   UNL     1      19.403  44.784  46.237  1.00  0.00    -0.075 N 
HETATM    8  C   UNL     1      18.628  43.732  45.485  1.00  0.00     0.269 C 
HETATM    9  H   UNL     1      20.347  44.395  46.390  1.00  0.00     0.279 HD
HETATM   10  C   UNL     1      18.800  45.045  47.595  1.00  0.00     0.237 C 
HETATM   11  C   UNL     1      19.649  46.057  48.362  1.00  0.00     0.069 C 
BRANCH   4  12
HETATM   12  C   UNL     1      18.555  48.110  47.371  1.00  0.00     0.251 C 
HETATM   13  N   UNL     1      18.565  49.145  46.457  1.00  0.00    -0.325 N 
HETATM   14  H   UNL     1      19.444  49.385  46.012  1.00  0.00     0.169 HD
HETATM   15  O   UNL     1      17.549  47.704  47.950  1.00  0.00    -0.270 OA
BRANCH  13  16
HETATM   16  C   UNL     1      17.522  50.060  46.187  1.00  0.00     0.035 A 
HETATM   17  C   UNL     1      16.238  49.964  46.727  1.00  0.00     0.032 A 
HETATM   18  C   UNL     1      15.296  50.976  46.501  1.00  0.00     0.039 A 
HETATM   19  C   UNL     1      15.629  52.085  45.726  1.00  0.00     0.068 A 
HETATM   20  C   UNL     1      16.889  52.156  45.139  1.00  0.00     0.039 A 
HETATM   21  C   UNL     1      17.836  51.160  45.381  1.00  0.00     0.032 A 
BRANCH  19  22
HETATM   22  O   UNL     1      14.792  53.131  45.458  1.00  0.00    -0.356 OA
HETATM   23  C   UNL     1      14.309  53.821  46.607  1.00  0.00     0.210 C 
ENDBRANCH  19  22
ENDBRANCH  13  16
ENDBRANCH   4  12
ENDBRANCH   1   4
BRANCH   1  24
HETATM   24  C   UNL     1      20.496  48.914  49.560  1.00  0.00     0.169 C 
BRANCH  24  25
HETATM   25  C   UNL     1      19.769  50.213  49.329  1.00  0.00    -0.002 A 
HETATM   26  C   UNL     1      18.559  50.421  50.007  1.00  0.00     0.124 A 
HETATM   27  F   UNL     1      18.079  49.459  50.808  1.00  0.00    -0.205 F 
HETATM   28  C   UNL     1      17.829  51.594  49.857  1.00  0.00     0.043 A 
HETATM   29  C   UNL     1      18.311  52.603  49.029  1.00  0.00     0.003 A 
HETATM   30  C   UNL     1      19.523  52.432  48.361  1.00  0.00     0.001 A 
HETATM   31  C   UNL     1      20.250  51.247  48.511  1.00  0.00     0.012 A 
ENDBRANCH  24  25
ENDBRANCH   1  24
BRANCH   2  32
HETATM   32  C   UNL     1      23.350  48.935  48.813  1.00  0.00     0.228 C 
BRANCH  32  33
HETATM   33  N   UNL     1      24.471  48.279  49.475  1.00  0.00    -0.347 N 
HETATM   34  C   UNL     1      25.821  48.536  49.239  1.00  0.00     0.171 A 
HETATM   35  S   UNL     1      26.515  49.777  48.395  1.00  0.00    -0.041 SA
HETATM   36  N   UNL     1      26.566  47.549  49.848  1.00  0.00    -0.357 N 
HETATM   37  C   UNL     1      25.745  46.506  50.412  1.00  0.00     0.135 A 
HETATM   38  H   UNL     1      27.575  47.509  49.774  1.00  0.00     0.162 HD
HETATM   39  C   UNL     1      24.307  47.007  50.176  1.00  0.00     0.155 A 
BRANCH  37  40
HETATM   40  C   UNL     1      26.108  46.240  51.853  1.00  0.00    -0.034 A 
HETATM   41  C   UNL     1      25.882  47.196  52.856  1.00  0.00     0.009 A 
HETATM   42  C   UNL     1      26.252  46.942  54.179  1.00  0.00     0.001 A 
HETATM   43  C   UNL     1      26.852  45.732  54.515  1.00  0.00     0.000 A 
HETATM   44  C   UNL     1      27.085  44.774  53.532  1.00  0.00     0.001 A 
HETATM   45  C   UNL     1      26.716  45.025  52.209  1.00  0.00     0.009 A 
ENDBRANCH  37  40
ENDBRANCH  32  33
ENDBRANCH   2  32
TORSDOF 9
ENDMDL
MODEL 4
REMARK VINA RESULT:      -9.0      4.679      6.969
REMARK  9 active torsions:
REMARK  status: ('A' for Active; 'I' for Inactive)
REMARK    1  A    between atoms: C_6  and  N_7 
REMARK    2  A    between atoms: C_6  and  C_31 
REMARK       I    between atoms: N_7  and  C_8 
REMARK    3  A    between atoms: N_7  and  C_23 
REMARK    4  A    between atoms: C_8  and  C_9 
REMARK    5  A    between atoms: C_9  and  N_10 
REMARK    6  A    between atoms: C_14  and  C_15 
REMARK    7  A    between atoms: C_23  and  C_24 
REMARK       I    between atoms: C_31  and  N_32 
REMARK    8  A    between atoms: N_32  and  C_33 
REMARK    9  A    between atoms: C_36  and  O_37 
ROOT
HETATM    1  N   UNL     1      20.805  47.914  48.273  1.00  0.00    -0.328 N 
HETATM    2  C   UNL     1      22.192  47.786  48.067  1.00  0.00     0.239 C 
HETATM    3  O   UNL     1      22.650  46.905  47.332  1.00  0.00    -0.271 OA
ENDROOT
BRANCH   1   4
HETATM    4  C   UNL     1      19.847  46.996  47.523  1.00  0.00     0.120 C 
HETATM    5  C   UNL     1      18.381  47.205  48.002  1.00  0.00     0.069 C 
HETATM    6  C   UNL     1      17.383  46.408  47.175  1.00  0.00     0.237 C 
HETATM    7  N   UNL     1      17.501  46.815  45.734  1.00  0.00    -0.075 N 
HETATM    8  C   UNL     1      16.429  46.169  44.894  1.00  0.00     0.269 C 
HETATM    9  H   UNL     1      17.339  47.834  45.678  1.00  0.00     0.279 HD
HETATM   10  C   UNL     1      18.875  46.549  45.169  1.00  0.00     0.237 C 
HETATM   11  C   UNL     1      19.933  47.279  45.993  1.00  0.00     0.069 C 
BRANCH   4  12
HETATM   12  C   UNL     1      20.190  45.466  47.739  1.00  0.00     0.251 C 
HETATM   13  N   UNL     1      20.844  44.853  46.690  1.00  0.00    -0.325 N 
HETATM   14  H   UNL     1      21.024  45.394  45.852  1.00  0.00     0.169 HD
HETATM   15  O   UNL     1      19.944  44.928  48.816  1.00  0.00    -0.270 OA
BRANCH  13  16
HETATM   16  C   UNL     1      21.142  43.478  46.553  1.00  0.00     0.035 A 
HETATM   17  C   UNL     1      22.249  42.856  47.133  1.00  0.00     0.032 A 
HETATM   18  C   UNL     1      22.410  41.467  47.045  1.00  0.00     0.039 A 
HETATM   19  C   UNL     1      21.469  40.692  46.369  1.00  0.00     0.068 A 
HETATM   20  C   UNL     1      20.395  41.316  45.741  1.00  0.00     0.039 A 
HETATM   21  C   UNL     1      20.221  42.696  45.846  1.00  0.00     0.032 A 
BRANCH  19  22
HETATM   22  O   UNL     1      21.523  39.334  46.238  1.00  0.00    -0.356 OA
HETATM   23  C   UNL     1      20.595  38.617  47.048  1.00  0.00     0.210 C 
ENDBRANCH  19  22
ENDBRANCH  13  16
ENDBRANCH   4  12
ENDBRANCH   1   4
BRANCH   1  24
HETATM   24  C   UNL     1      20.314  48.598  49.492  1.00  0.00     0.169 C 
BRANCH  24  25
HETATM   25  C   UNL     1      19.723  49.964  49.265  1.00  0.00    -0.002 A 
HETATM   26  C   UNL     1      18.640  50.355  50.065  1.00  0.00     0.124 A 
HETATM   27  F   UNL     1      18.153  49.502  50.977  1.00  0.00    -0.205 F 
HETATM   28  C   UNL     1      18.040  51.602  49.927  1.00  0.00     0.043 A 
HETATM   29  C   UNL     1      18.532  52.500  48.984  1.00  0.00     0.003 A 
HETATM   30  C   UNL     1      19.622  52.146  48.191  1.00  0.00     0.001 A 
HETATM   31  C   UNL     1      20.218  50.888  48.331  1.00  0.00     0.012 A 
ENDBRANCH  24  25
ENDBRANCH   1  24
BRANCH   2  32
HETATM   32  C   UNL     1      23.162  48.775  48.743  1.00  0.00     0.228 C 
BRANCH  32  33
HETATM   33  N   UNL     1      24.324  48.194  49.407  1.00  0.00    -0.347 N 
HETATM   34  C   UNL     1      25.655  48.537  49.169  1.00  0.00     0.171 A 
HETATM   35  S   UNL     1      26.267  49.817  48.320  1.00  0.00    -0.041 SA
HETATM   36  N   UNL     1      26.461  47.601  49.780  1.00  0.00    -0.357 N 
HETATM   37  C   UNL     1      25.710  46.509  50.348  1.00  0.00     0.135 A 
HETATM   38  H   UNL     1      27.471  47.626  49.705  1.00  0.00     0.162 HD
HETATM   39  C   UNL     1      24.243  46.917  50.112  1.00  0.00     0.155 A 
BRANCH  37  40
HETATM   40  C   UNL     1      26.091  46.272  51.789  1.00  0.00    -0.034 A 
HETATM   41  C   UNL     1      26.700  45.075  52.201  1.00  0.00     0.009 A 
HETATM   42  C   UNL     1      27.018  44.862  53.544  1.00  0.00     0.001 A 
HETATM   43  C   UNL     1      26.731  45.840  54.492  1.00  0.00     0.000 A 
HETATM   44  C   UNL     1      26.125  47.032  54.101  1.00  0.00     0.001 A 
HETATM   45  C   UNL     1      25.807  47.247  52.758  1.00  0.00     0.009 A 
ENDBRANCH  37  40
ENDBRANCH  32  33
ENDBRANCH   2  32
TORSDOF 9
ENDMDL
MODEL 5
REMARK VINA RESULT:      -8.8      3.893      6.737
REMARK  9 active torsions:
REMARK  status: ('A' for Active; 'I' for Inactive)
REMARK    1  A    between atoms: C_6  and  N_7 
REMARK    2  A    between atoms: C_6  and  C_31 
REMARK       I    between atoms: N_7  and  C_8 
REMARK    3  A    between atoms: N_7  and  C_23 
REMARK    4  A    between atoms: C_8  and  C_9 
REMARK    5  A    between atoms: C_9  and  N_10 
REMARK    6  A    between atoms: C_14  and  C_15 
REMARK    7  A    between atoms: C_23  and  C_24 
REMARK       I    between atoms: C_31  and  N_32 
REMARK    8  A    between atoms: N_32  and  C_33 
REMARK    9  A    between atoms: C_36  and  O_37 
ROOT
HETATM    1  N   UNL     1      23.801  45.967  49.887  1.00  0.00    -0.328 N 
HETATM    2  C   UNL     1      24.232  45.198  50.985  1.00  0.00     0.239 C 
HETATM    3  O   UNL     1      23.949  43.998  51.076  1.00  0.00    -0.271 OA
ENDROOT
BRANCH   1   4
HETATM    4  C   UNL     1      23.032  45.294  48.756  1.00  0.00     0.120 C 
HETATM    5  C   UNL     1      23.944  45.072  47.515  1.00  0.00     0.069 C 
HETATM    6  C   UNL     1      23.248  44.276  46.421  1.00  0.00     0.237 C 
HETATM    7  N   UNL     1      22.825  42.945  46.975  1.00  0.00    -0.075 N 
HETATM    8  C   UNL     1      22.270  42.055  45.892  1.00  0.00     0.269 C 
HETATM    9  H   UNL     1      23.668  42.470  47.336  1.00  0.00     0.279 HD
HETATM   10  C   UNL     1      21.858  43.078  48.125  1.00  0.00     0.237 C 
HETATM   11  C   UNL     1      22.478  43.920  49.238  1.00  0.00     0.069 C 
BRANCH   4  12
HETATM   12  C   UNL     1      21.797  46.157  48.274  1.00  0.00     0.251 C 
HETATM   13  N   UNL     1      20.643  46.004  49.015  1.00  0.00    -0.325 N 
HETATM   14  H   UNL     1      20.645  45.336  49.778  1.00  0.00     0.169 HD
HETATM   15  O   UNL     1      21.929  46.957  47.350  1.00  0.00    -0.270 OA
BRANCH  13  16
HETATM   16  C   UNL     1      19.365  46.537  48.729  1.00  0.00     0.035 A 
HETATM   17  C   UNL     1      18.404  45.890  47.950  1.00  0.00     0.032 A 
HETATM   18  C   UNL     1      17.121  46.433  47.809  1.00  0.00     0.039 A 
HETATM   19  C   UNL     1      16.793  47.632  48.440  1.00  0.00     0.068 A 
HETATM   20  C   UNL     1      17.765  48.309  49.171  1.00  0.00     0.039 A 
HETATM   21  C   UNL     1      19.037  47.758  49.330  1.00  0.00     0.032 A 
BRANCH  19  22
HETATM   22  O   UNL     1      15.570  48.238  48.381  1.00  0.00    -0.356 OA
HETATM   23  C   UNL     1      15.590  49.584  47.914  1.00  0.00     0.210 C 
ENDBRANCH  19  22
ENDBRANCH  13  16
ENDBRANCH   4  12
ENDBRANCH   1   4
BRANCH   1  24
HETATM   24  C   UNL     1      23.701  47.438  50.029  1.00  0.00     0.169 C 
BRANCH  24  25
HETATM   25  C   UNL     1      24.846  48.216  49.434  1.00  0.00    -0.002 A 
HETATM   26  C   UNL     1      24.542  49.285  48.579  1.00  0.00     0.124 A 
HETATM   27  F   UNL     1      23.260  49.560  48.298  1.00  0.00    -0.205 F 
HETATM   28  C   UNL     1      25.536  50.060  47.994  1.00  0.00     0.043 A 
HETATM   29  C   UNL     1      26.873  49.788  48.274  1.00  0.00     0.003 A 
HETATM   30  C   UNL     1      27.202  48.746  49.139  1.00  0.00     0.001 A 
HETATM   31  C   UNL     1      26.197  47.966  49.720  1.00  0.00     0.012 A 
ENDBRANCH  24  25
ENDBRANCH   1  24
BRANCH   2  32
HETATM   32  C   UNL     1      25.096  45.847  52.085  1.00  0.00     0.228 C 
BRANCH  32  33
HETATM   33  N   UNL     1      26.291  45.114  52.489  1.00  0.00    -0.347 N 
HETATM   34  C   UNL     1      27.182  44.471  51.630  1.00  0.00     0.171 A 
HETATM   35  S   UNL     1      27.302  44.573  49.984  1.00  0.00    -0.041 SA
HETATM   36  N   UNL     1      28.019  43.678  52.384  1.00  0.00    -0.357 N 
HETATM   37  C   UNL     1      27.646  43.647  53.777  1.00  0.00     0.135 A 
HETATM   38  H   UNL     1      28.724  43.084  51.965  1.00  0.00     0.162 HD
HETATM   39  C   UNL     1      26.472  44.642  53.860  1.00  0.00     0.155 A 
BRANCH  37  40
HETATM   40  C   UNL     1      28.823  43.960  54.669  1.00  0.00    -0.034 A 
HETATM   41  C   UNL     1      29.866  43.040  54.858  1.00  0.00     0.009 A 
HETATM   42  C   UNL     1      30.933  43.336  55.710  1.00  0.00     0.001 A 
HETATM   43  C   UNL     1      30.968  44.554  56.384  1.00  0.00     0.000 A 
HETATM   44  C   UNL     1      29.940  45.477  56.209  1.00  0.00     0.001 A 
HETATM   45  C   UNL     1      28.874  45.183  55.356  1.00  0.00     0.009 A 
ENDBRANCH  37  40
ENDBRANCH  32  33
ENDBRANCH   2  32
TORSDOF 9
ENDMDL
MODEL 6
REMARK VINA RESULT:      -8.2      9.532     13.241
REMARK  9 active torsions:
REMARK  status: ('A' for Active; 'I' for Inactive)
REMARK    1  A    between atoms: C_6  and  N_7 
REMARK    2  A    between atoms: C_6  and  C_31 
REMARK       I    between atoms: N_7  and  C_8 
REMARK    3  A    between atoms: N_7  and  C_23 
REMARK    4  A    between atoms: C_8  and  C_9 
REMARK    5  A    between atoms: C_9  and  N_10 
REMARK    6  A    between atoms: C_14  and  C_15 
REMARK    7  A    between atoms: C_23  and  C_24 
REMARK       I    between atoms: C_31  and  N_32 
REMARK    8  A    between atoms: N_32  and  C_33 
REMARK    9  A    between atoms: C_36  and  O_37 
ROOT
HETATM    1  N   UNL     1      15.668  49.287  46.419  1.00  0.00    -0.328 N 
HETATM    2  C   UNL     1      15.894  47.904  46.289  1.00  0.00     0.239 C 
HETATM    3  O   UNL     1      15.456  47.272  45.322  1.00  0.00    -0.271 OA
ENDROOT
BRANCH   1   4
HETATM    4  C   UNL     1      14.930  50.033  45.314  1.00  0.00     0.120 C 
HETATM    5  C   UNL     1      13.547  49.381  45.026  1.00  0.00     0.069 C 
HETATM    6  C   UNL     1      12.724  50.184  44.029  1.00  0.00     0.237 C 
HETATM    7  N   UNL     1      12.520  51.573  44.566  1.00  0.00    -0.075 N 
HETATM    8  C   UNL     1      11.580  52.363  43.691  1.00  0.00     0.269 C 
HETATM    9  H   UNL     1      12.059  51.491  45.486  1.00  0.00     0.279 HD
HETATM   10  C   UNL     1      13.820  52.307  44.778  1.00  0.00     0.237 C 
HETATM   11  C   UNL     1      14.719  51.520  45.730  1.00  0.00     0.069 C 
BRANCH   4  12
HETATM   12  C   UNL     1      15.733  50.035  43.951  1.00  0.00     0.251 C 
HETATM   13  N   UNL     1      16.878  50.806  43.939  1.00  0.00    -0.325 N 
HETATM   14  H   UNL     1      17.106  51.342  44.769  1.00  0.00     0.169 HD
HETATM   15  O   UNL     1      15.368  49.318  43.021  1.00  0.00    -0.270 OA
BRANCH  13  16
HETATM   16  C   UNL     1      17.700  51.101  42.828  1.00  0.00     0.035 A 
HETATM   17  C   UNL     1      17.587  52.258  42.055  1.00  0.00     0.032 A 
HETATM   18  C   UNL     1      18.515  52.529  41.042  1.00  0.00     0.039 A 
HETATM   19  C   UNL     1      19.558  51.639  40.788  1.00  0.00     0.068 A 
HETATM   20  C   UNL     1      19.641  50.457  41.518  1.00  0.00     0.039 A 
HETATM   21  C   UNL     1      18.730  50.196  42.543  1.00  0.00     0.032 A 
BRANCH  19  22
HETATM   22  O   UNL     1      20.522  51.815  39.837  1.00  0.00    -0.356 OA
HETATM   23  C   UNL     1      21.838  51.454  40.245  1.00  0.00     0.210 C 
ENDBRANCH  19  22
ENDBRANCH  13  16
ENDBRANCH   4  12
ENDBRANCH   1   4
BRANCH   1  24
HETATM   24  C   UNL     1      15.740  49.910  47.761  1.00  0.00     0.169 C 
BRANCH  24  25
HETATM   25  C   UNL     1      16.913  50.831  47.976  1.00  0.00    -0.002 A 
HETATM   26  C   UNL     1      16.875  51.700  49.075  1.00  0.00     0.124 A 
HETATM   27  F   UNL     1      15.798  51.706  49.874  1.00  0.00    -0.205 F 
HETATM   28  C   UNL     1      17.918  52.577  49.351  1.00  0.00     0.043 A 
HETATM   29  C   UNL     1      19.043  52.585  48.531  1.00  0.00     0.003 A 
HETATM   30  C   UNL     1      19.117  51.714  47.446  1.00  0.00     0.001 A 
HETATM   31  C   UNL     1      18.062  50.839  47.170  1.00  0.00     0.012 A 
ENDBRANCH  24  25
ENDBRANCH   1  24
BRANCH   2  32
HETATM   32  C   UNL     1      16.727  47.160  47.353  1.00  0.00     0.228 C 
BRANCH  32  33
HETATM   33  N   UNL     1      18.158  47.441  47.371  1.00  0.00    -0.347 N 
HETATM   34  C   UNL     1      19.061  47.137  46.352  1.00  0.00     0.171 A 
HETATM   35  S   UNL     1      18.759  46.650  44.801  1.00  0.00    -0.041 SA
HETATM   36  N   UNL     1      20.339  47.309  46.838  1.00  0.00    -0.357 N 
HETATM   37  C   UNL     1      20.359  47.610  48.248  1.00  0.00     0.135 A 
HETATM   38  H   UNL     1      21.161  47.105  46.282  1.00  0.00     0.162 HD
HETATM   39  C   UNL     1      18.867  47.719  48.617  1.00  0.00     0.155 A 
BRANCH  37  40
HETATM   40  C   UNL     1      21.188  48.838  48.536  1.00  0.00    -0.034 A 
HETATM   41  C   UNL     1      20.989  49.603  49.697  1.00  0.00     0.009 A 
HETATM   42  C   UNL     1      21.746  50.753  49.932  1.00  0.00     0.001 A 
HETATM   43  C   UNL     1      22.710  51.153  49.010  1.00  0.00     0.000 A 
HETATM   44  C   UNL     1      22.918  50.406  47.853  1.00  0.00     0.001 A 
HETATM   45  C   UNL     1      22.163  49.256  47.617  1.00  0.00     0.009 A 
ENDBRANCH  37  40
ENDBRANCH  32  33
ENDBRANCH   2  32
TORSDOF 9
ENDMDL
MODEL 7
REMARK VINA RESULT:      -8.2      9.144     13.247
REMARK  9 active torsions:
REMARK  status: ('A' for Active; 'I' for Inactive)
REMARK    1  A    between atoms: C_6  and  N_7 
REMARK    2  A    between atoms: C_6  and  C_31 
REMARK       I    between atoms: N_7  and  C_8 
REMARK    3  A    between atoms: N_7  and  C_23 
REMARK    4  A    between atoms: C_8  and  C_9 
REMARK    5  A    between atoms: C_9  and  N_10 
REMARK    6  A    between atoms: C_14  and  C_15 
REMARK    7  A    between atoms: C_23  and  C_24 
REMARK       I    between atoms: C_31  and  N_32 
REMARK    8  A    between atoms: N_32  and  C_33 
REMARK    9  A    between atoms: C_36  and  O_37 
ROOT
HETATM    1  N   UNL     1      17.787  49.145  45.874  1.00  0.00    -0.328 N 
HETATM    2  C   UNL     1      18.599  48.002  46.009  1.00  0.00     0.239 C 
HETATM    3  O   UNL     1      19.070  47.432  45.019  1.00  0.00    -0.271 OA
ENDROOT
BRANCH   1   4
HETATM    4  C   UNL     1      17.541  49.730  44.489  1.00  0.00     0.120 C 
HETATM    5  C   UNL     1      18.766  50.559  44.006  1.00  0.00     0.069 C 
HETATM    6  C   UNL     1      18.611  51.038  42.570  1.00  0.00     0.237 C 
HETATM    7  N   UNL     1      18.426  49.848  41.671  1.00  0.00    -0.075 N 
HETATM    8  C   UNL     1      18.423  50.255  40.220  1.00  0.00     0.269 C 
HETATM    9  H   UNL     1      19.241  49.227  41.797  1.00  0.00     0.279 HD
HETATM   10  C   UNL     1      17.195  49.047  42.019  1.00  0.00     0.237 C 
HETATM   11  C   UNL     1      17.264  48.582  43.473  1.00  0.00     0.069 C 
BRANCH   4  12
HETATM   12  C   UNL     1      16.289  50.697  44.460  1.00  0.00     0.251 C 
HETATM   13  N   UNL     1      16.554  52.018  44.759  1.00  0.00    -0.325 N 
HETATM   14  H   UNL     1      17.502  52.273  45.011  1.00  0.00     0.169 HD
HETATM   15  O   UNL     1      15.191  50.270  44.110  1.00  0.00    -0.270 OA
BRANCH  13  16
HETATM   16  C   UNL     1      15.616  53.059  44.943  1.00  0.00     0.035 A 
HETATM   17  C   UNL     1      14.919  53.282  46.132  1.00  0.00     0.032 A 
HETATM   18  C   UNL     1      14.092  54.405  46.270  1.00  0.00     0.039 A 
HETATM   19  C   UNL     1      13.950  55.307  45.217  1.00  0.00     0.068 A 
HETATM   20  C   UNL     1      14.599  55.057  44.011  1.00  0.00     0.039 A 
HETATM   21  C   UNL     1      15.440  53.951  43.878  1.00  0.00     0.032 A 
BRANCH  19  22
HETATM   22  O   UNL     1      13.185  56.437  45.252  1.00  0.00    -0.356 OA
HETATM   23  C   UNL     1      13.902  57.638  45.522  1.00  0.00     0.210 C 
ENDBRANCH  19  22
ENDBRANCH  13  16
ENDBRANCH   4  12
ENDBRANCH   1   4
BRANCH   1  24
HETATM   24  C   UNL     1      16.850  49.499  46.965  1.00  0.00     0.169 C 
BRANCH  24  25
HETATM   25  C   UNL     1      17.272  50.670  47.815  1.00  0.00    -0.002 A 
HETATM   26  C   UNL     1      16.385  51.120  48.802  1.00  0.00     0.124 A 
HETATM   27  F   UNL     1      15.193  50.522  48.941  1.00  0.00    -0.205 F 
HETATM   28  C   UNL     1      16.698  52.188  49.635  1.00  0.00     0.043 A 
HETATM   29  C   UNL     1      17.930  52.822  49.505  1.00  0.00     0.003 A 
HETATM   30  C   UNL     1      18.840  52.380  48.547  1.00  0.00     0.001 A 
HETATM   31  C   UNL     1      18.517  51.309  47.708  1.00  0.00     0.012 A 
ENDBRANCH  24  25
ENDBRANCH   1  24
BRANCH   2  32
HETATM   32  C   UNL     1      18.936  47.462  47.414  1.00  0.00     0.228 C 
BRANCH  32  33
HETATM   33  N   UNL     1      20.029  48.123  48.118  1.00  0.00    -0.347 N 
HETATM   34  C   UNL     1      19.960  48.669  49.400  1.00  0.00     0.171 A 
HETATM   35  S   UNL     1      18.779  48.500  50.544  1.00  0.00    -0.041 SA
HETATM   36  N   UNL     1      21.092  49.427  49.611  1.00  0.00    -0.357 N 
HETATM   37  C   UNL     1      21.914  49.534  48.432  1.00  0.00     0.135 A 
HETATM   38  H   UNL     1      21.237  49.955  50.463  1.00  0.00     0.162 HD
HETATM   39  C   UNL     1      21.202  48.629  47.409  1.00  0.00     0.155 A 
BRANCH  37  40
HETATM   40  C   UNL     1      23.349  49.171  48.728  1.00  0.00    -0.034 A 
HETATM   41  C   UNL     1      23.676  48.074  49.542  1.00  0.00     0.009 A 
HETATM   42  C   UNL     1      25.009  47.771  49.828  1.00  0.00     0.001 A 
HETATM   43  C   UNL     1      26.031  48.560  49.306  1.00  0.00     0.000 A 
HETATM   44  C   UNL     1      25.723  49.653  48.499  1.00  0.00     0.001 A 
HETATM   45  C   UNL     1      24.391  49.956  48.211  1.00  0.00     0.009 A 
ENDBRANCH  37  40
ENDBRANCH  32  33
ENDBRANCH   2  32
TORSDOF 9
ENDMDL
MODEL 8
REMARK VINA RESULT:      -8.1      3.262      7.518
REMARK  9 active torsions:
REMARK  status: ('A' for Active; 'I' for Inactive)
REMARK    1  A    between atoms: C_6  and  N_7 
REMARK    2  A    between atoms: C_6  and  C_31 
REMARK       I    between atoms: N_7  and  C_8 
REMARK    3  A    between atoms: N_7  and  C_23 
REMARK    4  A    between atoms: C_8  and  C_9 
REMARK    5  A    between atoms: C_9  and  N_10 
REMARK    6  A    between atoms: C_14  and  C_15 
REMARK    7  A    between atoms: C_23  and  C_24 
REMARK       I    between atoms: C_31  and  N_32 
REMARK    8  A    between atoms: N_32  and  C_33 
REMARK    9  A    between atoms: C_36  and  O_37 
ROOT
HETATM    1  N   UNL     1      24.695  43.562  50.074  1.00  0.00    -0.328 N 
HETATM    2  C   UNL     1      23.422  43.147  49.640  1.00  0.00     0.239 C 
HETATM    3  O   UNL     1      23.256  42.042  49.112  1.00  0.00    -0.271 OA
ENDROOT
BRANCH   1   4
HETATM    4  C   UNL     1      25.877  42.608  49.955  1.00  0.00     0.120 C 
HETATM    5  C   UNL     1      25.530  41.212  50.550  1.00  0.00     0.069 C 
HETATM    6  C   UNL     1      26.637  40.193  50.319  1.00  0.00     0.237 C 
HETATM    7  N   UNL     1      26.884  40.061  48.843  1.00  0.00    -0.075 N 
HETATM    8  C   UNL     1      27.862  38.952  48.550  1.00  0.00     0.269 C 
HETATM    9  H   UNL     1      25.994  39.788  48.397  1.00  0.00     0.279 HD
HETATM   10  C   UNL     1      27.322  41.359  48.211  1.00  0.00     0.237 C 
HETATM   11  C   UNL     1      26.274  42.443  48.458  1.00  0.00     0.069 C 
BRANCH   4  12
HETATM   12  C   UNL     1      27.154  43.134  50.726  1.00  0.00     0.251 C 
HETATM   13  N   UNL     1      27.373  42.568  51.966  1.00  0.00    -0.325 N 
HETATM   14  H   UNL     1      26.698  41.896  52.314  1.00  0.00     0.169 HD
HETATM   15  O   UNL     1      27.914  43.933  50.183  1.00  0.00    -0.270 OA
BRANCH  13  16
HETATM   16  C   UNL     1      28.344  42.946  52.920  1.00  0.00     0.035 A 
HETATM   17  C   UNL     1      28.095  43.807  53.991  1.00  0.00     0.032 A 
HETATM   18  C   UNL     1      29.082  44.041  54.958  1.00  0.00     0.039 A 
HETATM   19  C   UNL     1      30.326  43.422  54.856  1.00  0.00     0.068 A 
HETATM   20  C   UNL     1      30.598  42.608  53.759  1.00  0.00     0.039 A 
HETATM   21  C   UNL     1      29.609  42.357  52.807  1.00  0.00     0.032 A 
BRANCH  19  22
HETATM   22  O   UNL     1      31.348  43.569  55.750  1.00  0.00    -0.356 OA
HETATM   23  C   UNL     1      31.049  44.393  56.873  1.00  0.00     0.210 C 
ENDBRANCH  19  22
ENDBRANCH  13  16
ENDBRANCH   4  12
ENDBRANCH   1   4
BRANCH   1  24
HETATM   24  C   UNL     1      24.972  45.010  50.222  1.00  0.00     0.169 C 
BRANCH  24  25
HETATM   25  C   UNL     1      25.242  45.468  51.632  1.00  0.00    -0.002 A 
HETATM   26  C   UNL     1      25.927  46.678  51.812  1.00  0.00     0.124 A 
HETATM   27  F   UNL     1      26.341  47.367  50.739  1.00  0.00    -0.205 F 
HETATM   28  C   UNL     1      26.210  47.178  53.078  1.00  0.00     0.043 A 
HETATM   29  C   UNL     1      25.789  46.475  54.204  1.00  0.00     0.003 A 
HETATM   30  C   UNL     1      25.085  45.281  54.053  1.00  0.00     0.001 A 
HETATM   31  C   UNL     1      24.809  44.781  52.777  1.00  0.00     0.012 A 
ENDBRANCH  24  25
ENDBRANCH   1  24
BRANCH   2  32
HETATM   32  C   UNL     1      22.202  44.067  49.848  1.00  0.00     0.228 C 
BRANCH  32  33
HETATM   33  N   UNL     1      22.005  45.117  48.856  1.00  0.00    -0.347 N 
HETATM   34  C   UNL     1      21.707  44.919  47.507  1.00  0.00     0.171 A 
HETATM   35  S   UNL     1      21.243  43.532  46.734  1.00  0.00    -0.041 SA
HETATM   36  N   UNL     1      21.857  46.119  46.847  1.00  0.00    -0.357 N 
HETATM   37  C   UNL     1      22.392  47.154  47.696  1.00  0.00     0.135 A 
HETATM   38  H   UNL     1      21.733  46.204  45.845  1.00  0.00     0.162 HD
HETATM   39  C   UNL     1      22.480  46.480  49.079  1.00  0.00     0.155 A 
BRANCH  37  40
HETATM   40  C   UNL     1      21.547  48.403  47.638  1.00  0.00    -0.034 A 
HETATM   41  C   UNL     1      22.046  49.648  48.055  1.00  0.00     0.009 A 
HETATM   42  C   UNL     1      21.239  50.788  48.021  1.00  0.00     0.001 A 
HETATM   43  C   UNL     1      19.925  50.697  47.571  1.00  0.00     0.000 A 
HETATM   44  C   UNL     1      19.414  49.470  47.155  1.00  0.00     0.001 A 
HETATM   45  C   UNL     1      20.220  48.330  47.187  1.00  0.00     0.009 A 
ENDBRANCH  37  40
ENDBRANCH  32  33
ENDBRANCH   2  32
TORSDOF 9
ENDMDL
MODEL 9
REMARK VINA RESULT:      -8.1      3.960      8.157
REMARK  9 active torsions:
REMARK  status: ('A' for Active; 'I' for Inactive)
REMARK    1  A    between atoms: C_6  and  N_7 
REMARK    2  A    between atoms: C_6  and  C_31 
REMARK       I    between atoms: N_7  and  C_8 
REMARK    3  A    between atoms: N_7  and  C_23 
REMARK    4  A    between atoms: C_8  and  C_9 
REMARK    5  A    between atoms: C_9  and  N_10 
REMARK    6  A    between atoms: C_14  and  C_15 
REMARK    7  A    between atoms: C_23  and  C_24 
REMARK       I    between atoms: C_31  and  N_32 
REMARK    8  A    between atoms: N_32  and  C_33 
REMARK    9  A    between atoms: C_36  and  O_37 
ROOT
HETATM    1  N   UNL     1      23.539  46.306  49.542  1.00  0.00    -0.328 N 
HETATM    2  C   UNL     1      23.946  45.120  50.181  1.00  0.00     0.239 C 
HETATM    3  O   UNL     1      23.333  44.061  50.013  1.00  0.00    -0.271 OA
ENDROOT
BRANCH   1   4
HETATM    4  C   UNL     1      22.365  46.270  48.571  1.00  0.00     0.120 C 
HETATM    5  C   UNL     1      22.796  45.689  47.193  1.00  0.00     0.069 C 
HETATM    6  C   UNL     1      21.618  45.506  46.248  1.00  0.00     0.237 C 
HETATM    7  N   UNL     1      20.613  44.588  46.885  1.00  0.00    -0.075 N 
HETATM    8  C   UNL     1      19.499  44.249  45.928  1.00  0.00     0.269 C 
HETATM    9  H   UNL     1      21.090  43.698  47.102  1.00  0.00     0.279 HD
HETATM   10  C   UNL     1      20.073  45.135  48.184  1.00  0.00     0.237 C 
HETATM   11  C   UNL     1      21.218  45.395  49.161  1.00  0.00     0.069 C 
BRANCH   4  12
HETATM   12  C   UNL     1      21.766  47.709  48.298  1.00  0.00     0.251 C 
HETATM   13  N   UNL     1      21.158  48.312  49.381  1.00  0.00    -0.325 N 
HETATM   14  H   UNL     1      21.097  47.793  50.249  1.00  0.00     0.169 HD
HETATM   15  O   UNL     1      21.930  48.246  47.204  1.00  0.00    -0.270 OA
BRANCH  13  16
HETATM   16  C   UNL     1      20.423  49.520  49.387  1.00  0.00     0.035 A 
HETATM   17  C   UNL     1      20.860  50.704  48.792  1.00  0.00     0.032 A 
HETATM   18  C   UNL     1      20.022  51.826  48.743  1.00  0.00     0.039 A 
HETATM   19  C   UNL     1      18.744  51.772  49.297  1.00  0.00     0.068 A 
HETATM   20  C   UNL     1      18.327  50.611  49.942  1.00  0.00     0.039 A 
HETATM   21  C   UNL     1      19.152  49.486  49.973  1.00  0.00     0.032 A 
BRANCH  19  22
HETATM   22  O   UNL     1      17.845  52.799  49.290  1.00  0.00    -0.356 OA
HETATM   23  C   UNL     1      16.614  52.524  49.953  1.00  0.00     0.210 C 
ENDBRANCH  19  22
ENDBRANCH  13  16
ENDBRANCH   4  12
ENDBRANCH   1   4
BRANCH   1  24
HETATM   24  C   UNL     1      23.934  47.612  50.118  1.00  0.00     0.169 C 
BRANCH  24  25
HETATM   25  C   UNL     1      25.203  48.201  49.557  1.00  0.00    -0.002 A 
HETATM   26  C   UNL     1      25.109  49.396  48.831  1.00  0.00     0.124 A 
HETATM   27  F   UNL     1      23.908  49.957  48.637  1.00  0.00    -0.205 F 
HETATM   28  C   UNL     1      26.231  50.011  48.286  1.00  0.00     0.043 A 
HETATM   29  C   UNL     1      27.487  49.442  48.477  1.00  0.00     0.003 A 
HETATM   30  C   UNL     1      27.611  48.266  49.214  1.00  0.00     0.001 A 
HETATM   31  C   UNL     1      26.478  47.649  49.755  1.00  0.00     0.012 A 
ENDBRANCH  24  25
ENDBRANCH   1  24
BRANCH   2  32
HETATM   32  C   UNL     1      25.194  45.126  51.087  1.00  0.00     0.228 C 
BRANCH  32  33
HETATM   33  N   UNL     1      26.058  43.954  51.009  1.00  0.00    -0.347 N 
HETATM   34  C   UNL     1      26.752  43.381  52.076  1.00  0.00     0.171 A 
HETATM   35  S   UNL     1      26.597  43.670  53.697  1.00  0.00    -0.041 SA
HETATM   36  N   UNL     1      27.654  42.471  51.569  1.00  0.00    -0.357 N 
HETATM   37  C   UNL     1      27.702  42.483  50.128  1.00  0.00     0.135 A 
HETATM   38  H   UNL     1      28.298  41.962  52.162  1.00  0.00     0.162 HD
HETATM   39  C   UNL     1      26.599  43.485  49.736  1.00  0.00     0.155 A 
BRANCH  37  40
HETATM   40  C   UNL     1      27.544  41.093  49.562  1.00  0.00    -0.034 A 
HETATM   41  C   UNL     1      28.233  40.688  48.407  1.00  0.00     0.009 A 
HETATM   42  C   UNL     1      28.051  39.406  47.880  1.00  0.00     0.001 A 
HETATM   43  C   UNL     1      27.179  38.516  48.501  1.00  0.00     0.000 A 
HETATM   44  C   UNL     1      26.487  38.903  49.646  1.00  0.00     0.001 A 
HETATM   45  C   UNL     1      26.668  40.183  50.174  1.00  0.00     0.009 A 
ENDBRANCH  37  40
ENDBRANCH  32  33
ENDBRANCH   2  32
TORSDOF 9
ENDMDL
MODEL 10
REMARK VINA RESULT:      -8.1      2.548      3.198
REMARK  9 active torsions:
REMARK  status: ('A' for Active; 'I' for Inactive)
REMARK    1  A    between atoms: C_6  and  N_7 
REMARK    2  A    between atoms: C_6  and  C_31 
REMARK       I    between atoms: N_7  and  C_8 
REMARK    3  A    between atoms: N_7  and  C_23 
REMARK    4  A    between atoms: C_8  and  C_9 
REMARK    5  A    between atoms: C_9  and  N_10 
REMARK    6  A    between atoms: C_14  and  C_15 
REMARK    7  A    between atoms: C_23  and  C_24 
REMARK       I    between atoms: C_31  and  N_32 
REMARK    8  A    between atoms: N_32  and  C_33 
REMARK    9  A    between atoms: C_36  and  O_37 
ROOT
HETATM    1  N   UNL     1      23.686  45.766  49.840  1.00  0.00    -0.328 N 
HETATM    2  C   UNL     1      24.154  45.032  50.946  1.00  0.00     0.239 C 
HETATM    3  O   UNL     1      23.906  43.827  51.066  1.00  0.00    -0.271 OA
ENDROOT
BRANCH   1   4
HETATM    4  C   UNL     1      22.918  45.050  48.736  1.00  0.00     0.120 C 
HETATM    5  C   UNL     1      21.382  45.191  48.940  1.00  0.00     0.069 C 
HETATM    6  C   UNL     1      20.588  44.610  47.779  1.00  0.00     0.237 C 
HETATM    7  N   UNL     1      20.990  45.308  46.510  1.00  0.00    -0.075 N 
HETATM    8  C   UNL     1      20.123  44.879  45.354  1.00  0.00     0.269 C 
HETATM    9  H   UNL     1      20.824  46.319  46.639  1.00  0.00     0.279 HD
HETATM   10  C   UNL     1      22.454  45.132  46.192  1.00  0.00     0.237 C 
HETATM   11  C   UNL     1      23.309  45.645  47.350  1.00  0.00     0.069 C 
BRANCH   4  12
HETATM   12  C   UNL     1      23.238  43.501  48.689  1.00  0.00     0.251 C 
HETATM   13  N   UNL     1      24.517  43.172  48.288  1.00  0.00    -0.325 N 
HETATM   14  H   UNL     1      25.144  43.921  48.016  1.00  0.00     0.169 HD
HETATM   15  O   UNL     1      22.399  42.688  49.073  1.00  0.00    -0.270 OA
BRANCH  13  16
HETATM   16  C   UNL     1      25.026  41.881  48.023  1.00  0.00     0.035 A 
HETATM   17  C   UNL     1      25.770  41.130  48.934  1.00  0.00     0.032 A 
HETATM   18  C   UNL     1      26.139  39.812  48.635  1.00  0.00     0.039 A 
HETATM   19  C   UNL     1      25.774  39.239  47.418  1.00  0.00     0.068 A 
HETATM   20  C   UNL     1      25.082  40.004  46.483  1.00  0.00     0.039 A 
HETATM   21  C   UNL     1      24.694  41.309  46.788  1.00  0.00     0.032 A 
BRANCH  19  22
HETATM   22  O   UNL     1      26.068  37.962  47.036  1.00  0.00    -0.356 OA
HETATM   23  C   UNL     1      27.091  37.328  47.799  1.00  0.00     0.210 C 
ENDBRANCH  19  22
ENDBRANCH  13  16
ENDBRANCH   4  12
ENDBRANCH   1   4
BRANCH   1  24
HETATM   24  C   UNL     1      23.547  47.236  49.954  1.00  0.00     0.169 C 
BRANCH  24  25
HETATM   25  C   UNL     1      24.714  48.031  49.426  1.00  0.00    -0.002 A 
HETATM   26  C   UNL     1      24.445  49.093  48.551  1.00  0.00     0.124 A 
HETATM   27  F   UNL     1      23.179  49.348  48.194  1.00  0.00    -0.205 F 
HETATM   28  C   UNL     1      25.461  49.882  48.024  1.00  0.00     0.043 A 
HETATM   29  C   UNL     1      26.782  49.630  48.383  1.00  0.00     0.003 A 
HETATM   30  C   UNL     1      27.075  48.595  49.270  1.00  0.00     0.001 A 
HETATM   31  C   UNL     1      26.049  47.801  49.791  1.00  0.00     0.012 A 
ENDBRANCH  24  25
ENDBRANCH   1  24
BRANCH   2  32
HETATM   32  C   UNL     1      25.017  45.727  52.019  1.00  0.00     0.228 C 
BRANCH  32  33
HETATM   33  N   UNL     1      26.237  45.034  52.420  1.00  0.00    -0.347 N 
HETATM   34  C   UNL     1      27.167  44.455  51.557  1.00  0.00     0.171 A 
HETATM   35  S   UNL     1      27.305  44.609  49.916  1.00  0.00    -0.041 SA
HETATM   36  N   UNL     1      28.027  43.677  52.301  1.00  0.00    -0.357 N 
HETATM   37  C   UNL     1      27.635  43.590  53.687  1.00  0.00     0.135 A 
HETATM   38  H   UNL     1      28.762  43.125  51.876  1.00  0.00     0.162 HD
HETATM   39  C   UNL     1      26.419  44.531  53.780  1.00  0.00     0.155 A 
BRANCH  37  40
HETATM   40  C   UNL     1      28.785  43.927  54.604  1.00  0.00    -0.034 A 
HETATM   41  C   UNL     1      29.840  43.025  54.822  1.00  0.00     0.009 A 
HETATM   42  C   UNL     1      30.881  43.343  55.698  1.00  0.00     0.001 A 
HETATM   43  C   UNL     1      30.879  44.564  56.367  1.00  0.00     0.000 A 
HETATM   44  C   UNL     1      29.840  45.469  56.164  1.00  0.00     0.001 A 
HETATM   45  C   UNL     1      28.799  45.153  55.288  1.00  0.00     0.009 A 
ENDBRANCH  37  40
ENDBRANCH  32  33
ENDBRANCH   2  32
TORSDOF 9
ENDMDL
