MODEL 1
REMARK VINA RESULT:      -9.2      0.000      0.000
REMARK  6 active torsions:
REMARK  status: ('A' for Active; 'I' for Inactive)
REMARK    1  A    between atoms: C_4  and  C_5 
REMARK    2  A    between atoms: C_5  and  C_6 
REMARK    3  A    between atoms: C_6  and  C_7 
REMARK    4  A    between atoms: C_7  and  C_8 
REMARK       I    between atoms: C_8  and  N_9 
REMARK    5  A    between atoms: N_9  and  C_10 
REMARK    6  A    between atoms: C_12  and  C_13 
ROOT
HETATM    1  C   UNL     1      25.673  44.342  52.585  1.00  0.00     0.222 C 
HETATM    2  N   UNL     1      26.420  43.458  53.302  1.00  0.00    -0.327 N 
HETATM    3  O   UNL     1      24.465  44.101  52.493  1.00  0.00    -0.273 OA
HETATM    4  H   UNL     1      25.816  42.724  53.658  1.00  0.00     0.169 HD
ENDROOT
BRANCH   2   5
HETATM    5  C   UNL     1      27.787  43.318  53.613  1.00  0.00     0.035 A 
HETATM    6  C   UNL     1      28.414  43.741  54.786  1.00  0.00     0.042 A 
HETATM    7  C   UNL     1      29.801  43.577  54.971  1.00  0.00    -0.021 A 
HETATM    8  C   UNL     1      30.560  42.973  53.964  1.00  0.00     0.012 A 
HETATM    9  C   UNL     1      29.947  42.535  52.794  1.00  0.00     0.003 A 
HETATM   10  C   UNL     1      28.573  42.706  52.623  1.00  0.00     0.029 A 
BRANCH   7  11
HETATM   11  C   UNL     1      30.454  44.045  56.181  1.00  0.00     0.010 A 
HETATM   12  C   UNL     1      31.446  43.439  56.987  1.00  0.00     0.152 A 
HETATM   13  N   UNL     1      31.786  44.188  58.040  1.00  0.00    -0.187 NA
HETATM   14  N   UNL     1      31.010  45.275  57.915  1.00  0.00    -0.289 N 
HETATM   15  H   UNL     1      31.085  46.003  58.618  1.00  0.00     0.188 HD
HETATM   16  C   UNL     1      30.195  45.239  56.819  1.00  0.00     0.123 A 
ENDBRANCH   7  11
ENDBRANCH   2   5
BRANCH   1  17
HETATM   17  C   UNL     1      26.286  45.562  51.935  1.00  0.00     0.103 C 
BRANCH  17  18
HETATM   18  C   UNL     1      25.332  46.758  51.855  1.00  0.00     0.014 C 
BRANCH  18  19
HETATM   19  C   UNL     1      24.704  46.940  50.468  1.00  0.00     0.039 C 
BRANCH  19  20
HETATM   20  C   UNL     1      25.385  48.047  49.699  1.00  0.00    -0.058 A 
HETATM   21  C   UNL     1      24.626  48.944  48.934  1.00  0.00     0.007 A 
HETATM   22  C   UNL     1      25.251  49.955  48.202  1.00  0.00     0.001 A 
HETATM   23  C   UNL     1      26.637  50.079  48.228  1.00  0.00     0.000 A 
HETATM   24  C   UNL     1      27.402  49.194  48.986  1.00  0.00     0.001 A 
HETATM   25  C   UNL     1      26.779  48.181  49.718  1.00  0.00     0.007 A 
ENDBRANCH  19  20
ENDBRANCH  18  19
ENDBRANCH  17  18
ENDBRANCH   1  17
TORSDOF 6
ENDMDL
MODEL 2
REMARK VINA RESULT:      -9.1      2.785      8.006
REMARK  6 active torsions:
REMARK  status: ('A' for Active; 'I' for Inactive)
REMARK    1  A    between atoms: C_4  and  C_5 
REMARK    2  A    between atoms: C_5  and  C_6 
REMARK    3  A    between atoms: C_6  and  C_7 
REMARK    4  A    between atoms: C_7  and  C_8 
REMARK       I    between atoms: C_8  and  N_9 
REMARK    5  A    between atoms: N_9  and  C_10 
REMARK    6  A    between atoms: C_12  and  C_13 
ROOT
HETATM    1  C   UNL     1      28.224  42.403  51.901  1.00  0.00     0.222 C 
HETATM    2  N   UNL     1      27.133  43.153  51.585  1.00  0.00    -0.327 N 
HETATM    3  O   UNL     1      28.183  41.207  51.595  1.00  0.00    -0.273 OA
HETATM    4  H   UNL     1      26.448  42.564  51.121  1.00  0.00     0.169 HD
ENDROOT
BRANCH   2   5
HETATM    5  C   UNL     1      26.743  44.492  51.782  1.00  0.00     0.035 A 
HETATM    6  C   UNL     1      26.606  45.466  50.792  1.00  0.00     0.042 A 
HETATM    7  C   UNL     1      26.240  46.788  51.116  1.00  0.00    -0.021 A 
HETATM    8  C   UNL     1      26.006  47.127  52.452  1.00  0.00     0.012 A 
HETATM    9  C   UNL     1      26.126  46.163  53.448  1.00  0.00     0.003 A 
HETATM   10  C   UNL     1      26.491  44.859  53.114  1.00  0.00     0.029 A 
BRANCH   7  11
HETATM   11  C   UNL     1      26.127  47.806  50.085  1.00  0.00     0.010 A 
HETATM   12  C   UNL     1      27.117  48.596  49.456  1.00  0.00     0.152 A 
HETATM   13  N   UNL     1      26.609  49.442  48.556  1.00  0.00    -0.187 NA
HETATM   14  N   UNL     1      25.290  49.200  48.607  1.00  0.00    -0.289 N 
HETATM   15  H   UNL     1      24.679  49.738  48.002  1.00  0.00     0.188 HD
HETATM   16  C   UNL     1      24.949  48.229  49.506  1.00  0.00     0.123 A 
ENDBRANCH   7  11
ENDBRANCH   2   5
BRANCH   1  17
HETATM   17  C   UNL     1      29.431  43.000  52.591  1.00  0.00     0.103 C 
BRANCH  17  18
HETATM   18  C   UNL     1      29.436  42.789  54.108  1.00  0.00     0.014 C 
BRANCH  18  19
HETATM   19  C   UNL     1      30.751  43.215  54.774  1.00  0.00     0.039 C 
BRANCH  19  20
HETATM   20  C   UNL     1      30.500  44.165  55.920  1.00  0.00    -0.058 A 
HETATM   21  C   UNL     1      31.236  44.045  57.108  1.00  0.00     0.007 A 
HETATM   22  C   UNL     1      30.993  44.903  58.182  1.00  0.00     0.001 A 
HETATM   23  C   UNL     1      30.015  45.889  58.078  1.00  0.00     0.000 A 
HETATM   24  C   UNL     1      29.279  46.019  56.901  1.00  0.00     0.001 A 
HETATM   25  C   UNL     1      29.518  45.159  55.827  1.00  0.00     0.007 A 
ENDBRANCH  19  20
ENDBRANCH  18  19
ENDBRANCH  17  18
ENDBRANCH   1  17
TORSDOF 6
ENDMDL
MODEL 3
REMARK VINA RESULT:      -8.9      2.746      8.231
REMARK  6 active torsions:
REMARK  status: ('A' for Active; 'I' for Inactive)
REMARK    1  A    between atoms: C_4  and  C_5 
REMARK    2  A    between atoms: C_5  and  C_6 
REMARK    3  A    between atoms: C_6  and  C_7 
REMARK    4  A    between atoms: C_7  and  C_8 
REMARK       I    between atoms: C_8  and  N_9 
REMARK    5  A    between atoms: N_9  and  C_10 
REMARK    6  A    between atoms: C_12  and  C_13 
ROOT
HETATM    1  C   UNL     1      26.735  44.589  53.946  1.00  0.00     0.222 C 
HETATM    2  N   UNL     1      25.754  45.325  53.355  1.00  0.00    -0.327 N 
HETATM    3  O   UNL     1      26.672  44.462  55.173  1.00  0.00    -0.273 OA
HETATM    4  H   UNL     1      25.107  45.648  54.068  1.00  0.00     0.169 HD
ENDROOT
BRANCH   2   5
HETATM    5  C   UNL     1      25.469  45.752  52.044  1.00  0.00     0.035 A 
HETATM    6  C   UNL     1      26.051  46.837  51.386  1.00  0.00     0.042 A 
HETATM    7  C   UNL     1      25.660  47.192  50.080  1.00  0.00    -0.021 A 
HETATM    8  C   UNL     1      24.676  46.440  49.430  1.00  0.00     0.012 A 
HETATM    9  C   UNL     1      24.096  45.349  50.070  1.00  0.00     0.003 A 
HETATM   10  C   UNL     1      24.491  45.010  51.364  1.00  0.00     0.029 A 
BRANCH   7  11
HETATM   11  C   UNL     1      26.247  48.339  49.409  1.00  0.00     0.010 A 
HETATM   12  C   UNL     1      25.653  49.346  48.612  1.00  0.00     0.152 A 
HETATM   13  N   UNL     1      26.540  50.234  48.155  1.00  0.00    -0.187 NA
HETATM   14  N   UNL     1      27.707  49.798  48.654  1.00  0.00    -0.289 N 
HETATM   15  H   UNL     1      28.549  50.320  48.434  1.00  0.00     0.188 HD
HETATM   16  C   UNL     1      27.587  48.668  49.412  1.00  0.00     0.123 A 
ENDBRANCH   7  11
ENDBRANCH   2   5
BRANCH   1  17
HETATM   17  C   UNL     1      27.848  43.952  53.143  1.00  0.00     0.103 C 
BRANCH  17  18
HETATM   18  C   UNL     1      28.675  42.938  53.939  1.00  0.00     0.014 C 
BRANCH  18  19
HETATM   19  C   UNL     1      30.147  43.344  54.091  1.00  0.00     0.039 C 
BRANCH  19  20
HETATM   20  C   UNL     1      30.422  43.896  55.469  1.00  0.00    -0.058 A 
HETATM   21  C   UNL     1      29.887  45.135  55.851  1.00  0.00     0.007 A 
HETATM   22  C   UNL     1      30.158  45.664  57.114  1.00  0.00     0.001 A 
HETATM   23  C   UNL     1      30.963  44.961  58.006  1.00  0.00     0.000 A 
HETATM   24  C   UNL     1      31.498  43.727  57.638  1.00  0.00     0.001 A 
HETATM   25  C   UNL     1      31.231  43.198  56.374  1.00  0.00     0.007 A 
ENDBRANCH  19  20
ENDBRANCH  18  19
ENDBRANCH  17  18
ENDBRANCH   1  17
TORSDOF 6
ENDMDL
MODEL 4
REMARK VINA RESULT:      -8.8     12.879     15.157
REMARK  6 active torsions:
REMARK  status: ('A' for Active; 'I' for Inactive)
REMARK    1  A    between atoms: C_4  and  C_5 
REMARK    2  A    between atoms: C_5  and  C_6 
REMARK    3  A    between atoms: C_6  and  C_7 
REMARK    4  A    between atoms: C_7  and  C_8 
REMARK       I    between atoms: C_8  and  N_9 
REMARK    5  A    between atoms: N_9  and  C_10 
REMARK    6  A    between atoms: C_12  and  C_13 
ROOT
HETATM    1  C   UNL     1      32.400  48.086  41.224  1.00  0.00     0.222 C 
HETATM    2  N   UNL     1      31.945  48.311  39.961  1.00  0.00    -0.327 N 
HETATM    3  O   UNL     1      33.176  47.136  41.374  1.00  0.00    -0.273 OA
HETATM    4  H   UNL     1      32.354  47.625  39.334  1.00  0.00     0.169 HD
ENDROOT
BRANCH   2   5
HETATM    5  C   UNL     1      31.045  49.214  39.363  1.00  0.00     0.035 A 
HETATM    6  C   UNL     1      29.652  49.138  39.402  1.00  0.00     0.042 A 
HETATM    7  C   UNL     1      28.852  50.086  38.734  1.00  0.00    -0.021 A 
HETATM    8  C   UNL     1      29.465  51.123  38.024  1.00  0.00     0.012 A 
HETATM    9  C   UNL     1      30.853  51.218  37.987  1.00  0.00     0.003 A 
HETATM   10  C   UNL     1      31.633  50.272  38.651  1.00  0.00     0.029 A 
BRANCH   7  11
HETATM   11  C   UNL     1      27.403  49.987  38.753  1.00  0.00     0.010 A 
HETATM   12  C   UNL     1      26.540  49.237  39.587  1.00  0.00     0.152 A 
HETATM   13  N   UNL     1      25.251  49.401  39.279  1.00  0.00    -0.187 NA
HETATM   14  N   UNL     1      25.282  50.256  38.245  1.00  0.00    -0.289 N 
HETATM   15  H   UNL     1      24.401  50.534  37.825  1.00  0.00     0.188 HD
HETATM   16  C   UNL     1      26.545  50.637  37.891  1.00  0.00     0.123 A 
ENDBRANCH   7  11
ENDBRANCH   2   5
BRANCH   1  17
HETATM   17  C   UNL     1      31.983  48.955  42.389  1.00  0.00     0.103 C 
BRANCH  17  18
HETATM   18  C   UNL     1      32.550  50.377  42.327  1.00  0.00     0.014 C 
BRANCH  18  19
HETATM   19  C   UNL     1      31.685  51.407  43.065  1.00  0.00     0.039 C 
BRANCH  19  20
HETATM   20  C   UNL     1      30.793  52.159  42.107  1.00  0.00    -0.058 A 
HETATM   21  C   UNL     1      31.328  53.157  41.282  1.00  0.00     0.007 A 
HETATM   22  C   UNL     1      30.505  53.874  40.412  1.00  0.00     0.001 A 
HETATM   23  C   UNL     1      29.141  53.598  40.357  1.00  0.00     0.000 A 
HETATM   24  C   UNL     1      28.598  52.606  41.172  1.00  0.00     0.001 A 
HETATM   25  C   UNL     1      29.420  51.890  42.045  1.00  0.00     0.007 A 
ENDBRANCH  19  20
ENDBRANCH  18  19
ENDBRANCH  17  18
ENDBRANCH   1  17
TORSDOF 6
ENDMDL
MODEL 5
REMARK VINA RESULT:      -8.7      1.456      2.161
REMARK  6 active torsions:
REMARK  status: ('A' for Active; 'I' for Inactive)
REMARK    1  A    between atoms: C_4  and  C_5 
REMARK    2  A    between atoms: C_5  and  C_6 
REMARK    3  A    between atoms: C_6  and  C_7 
REMARK    4  A    between atoms: C_7  and  C_8 
REMARK       I    between atoms: C_8  and  N_9 
REMARK    5  A    between atoms: N_9  and  C_10 
REMARK    6  A    between atoms: C_12  and  C_13 
ROOT
HETATM    1  C   UNL     1      25.322  44.268  52.074  1.00  0.00     0.222 C 
HETATM    2  N   UNL     1      25.589  44.691  53.340  1.00  0.00    -0.327 N 
HETATM    3  O   UNL     1      24.259  43.662  51.903  1.00  0.00    -0.273 OA
HETATM    4  H   UNL     1      24.821  44.425  53.948  1.00  0.00     0.169 HD
ENDROOT
BRANCH   2   5
HETATM    5  C   UNL     1      26.660  45.349  53.975  1.00  0.00     0.035 A 
HETATM    6  C   UNL     1      27.728  44.739  54.636  1.00  0.00     0.042 A 
HETATM    7  C   UNL     1      28.728  45.505  55.267  1.00  0.00    -0.021 A 
HETATM    8  C   UNL     1      28.652  46.901  55.223  1.00  0.00     0.012 A 
HETATM    9  C   UNL     1      27.601  47.523  54.557  1.00  0.00     0.003 A 
HETATM   10  C   UNL     1      26.616  46.752  53.939  1.00  0.00     0.029 A 
BRANCH   7  11
HETATM   11  C   UNL     1      29.821  44.866  55.978  1.00  0.00     0.010 A 
HETATM   12  C   UNL     1      30.576  43.711  55.666  1.00  0.00     0.152 A 
HETATM   13  N   UNL     1      31.499  43.431  56.589  1.00  0.00    -0.187 NA
HETATM   14  N   UNL     1      31.338  44.404  57.499  1.00  0.00    -0.289 N 
HETATM   15  H   UNL     1      31.938  44.400  58.318  1.00  0.00     0.188 HD
HETATM   16  C   UNL     1      30.348  45.288  57.181  1.00  0.00     0.123 A 
ENDBRANCH   7  11
ENDBRANCH   2   5
BRANCH   1  17
HETATM   17  C   UNL     1      26.275  44.527  50.929  1.00  0.00     0.103 C 
BRANCH  17  18
HETATM   18  C   UNL     1      25.695  45.439  49.843  1.00  0.00     0.014 C 
BRANCH  18  19
HETATM   19  C   UNL     1      25.103  46.741  50.399  1.00  0.00     0.039 C 
BRANCH  19  20
HETATM   20  C   UNL     1      25.669  47.946  49.687  1.00  0.00    -0.058 A 
HETATM   21  C   UNL     1      24.820  48.812  48.983  1.00  0.00     0.007 A 
HETATM   22  C   UNL     1      25.338  49.914  48.302  1.00  0.00     0.001 A 
HETATM   23  C   UNL     1      26.708  50.163  48.319  1.00  0.00     0.000 A 
HETATM   24  C   UNL     1      27.562  49.310  49.018  1.00  0.00     0.001 A 
HETATM   25  C   UNL     1      27.045  48.205  49.697  1.00  0.00     0.007 A 
ENDBRANCH  19  20
ENDBRANCH  18  19
ENDBRANCH  17  18
ENDBRANCH   1  17
TORSDOF 6
ENDMDL
MODEL 6
REMARK VINA RESULT:      -8.7      2.905      4.790
REMARK  6 active torsions:
REMARK  status: ('A' for Active; 'I' for Inactive)
REMARK    1  A    between atoms: C_4  and  C_5 
REMARK    2  A    between atoms: C_5  and  C_6 
REMARK    3  A    between atoms: C_6  and  C_7 
REMARK    4  A    between atoms: C_7  and  C_8 
REMARK       I    between atoms: C_8  and  N_9 
REMARK    5  A    between atoms: N_9  and  C_10 
REMARK    6  A    between atoms: C_12  and  C_13 
ROOT
HETATM    1  C   UNL     1      26.869  47.781  55.540  1.00  0.00     0.222 C 
HETATM    2  N   UNL     1      27.628  46.880  56.223  1.00  0.00    -0.327 N 
HETATM    3  O   UNL     1      26.146  48.521  56.214  1.00  0.00    -0.273 OA
HETATM    4  H   UNL     1      27.459  46.990  57.217  1.00  0.00     0.169 HD
ENDROOT
BRANCH   2   5
HETATM    5  C   UNL     1      28.523  45.850  55.873  1.00  0.00     0.035 A 
HETATM    6  C   UNL     1      28.288  44.833  54.946  1.00  0.00     0.042 A 
HETATM    7  C   UNL     1      29.250  43.833  54.702  1.00  0.00    -0.021 A 
HETATM    8  C   UNL     1      30.462  43.863  55.398  1.00  0.00     0.012 A 
HETATM    9  C   UNL     1      30.715  44.878  56.316  1.00  0.00     0.003 A 
HETATM   10  C   UNL     1      29.753  45.861  56.549  1.00  0.00     0.029 A 
BRANCH   7  11
HETATM   11  C   UNL     1      28.990  42.760  53.758  1.00  0.00     0.010 A 
HETATM   12  C   UNL     1      27.858  41.928  53.596  1.00  0.00     0.152 A 
HETATM   13  N   UNL     1      28.007  41.036  52.612  1.00  0.00    -0.187 NA
HETATM   14  N   UNL     1      29.238  41.292  52.141  1.00  0.00    -0.289 N 
HETATM   15  H   UNL     1      29.586  40.726  51.375  1.00  0.00     0.188 HD
HETATM   16  C   UNL     1      29.868  42.314  52.792  1.00  0.00     0.123 A 
ENDBRANCH   7  11
ENDBRANCH   2   5
BRANCH   1  17
HETATM   17  C   UNL     1      26.909  47.877  54.031  1.00  0.00     0.103 C 
BRANCH  17  18
HETATM   18  C   UNL     1      25.811  47.066  53.336  1.00  0.00     0.014 C 
BRANCH  18  19
HETATM   19  C   UNL     1      26.016  46.942  51.821  1.00  0.00     0.039 C 
BRANCH  19  20
HETATM   20  C   UNL     1      25.986  45.498  51.381  1.00  0.00    -0.058 A 
HETATM   21  C   UNL     1      26.877  45.042  50.399  1.00  0.00     0.007 A 
HETATM   22  C   UNL     1      26.838  43.715  49.968  1.00  0.00     0.001 A 
HETATM   23  C   UNL     1      25.911  42.832  50.516  1.00  0.00     0.000 A 
HETATM   24  C   UNL     1      25.021  43.274  51.494  1.00  0.00     0.001 A 
HETATM   25  C   UNL     1      25.057  44.602  51.924  1.00  0.00     0.007 A 
ENDBRANCH  19  20
ENDBRANCH  18  19
ENDBRANCH  17  18
ENDBRANCH   1  17
TORSDOF 6
ENDMDL
MODEL 7
REMARK VINA RESULT:      -8.6      3.878      7.247
REMARK  6 active torsions:
REMARK  status: ('A' for Active; 'I' for Inactive)
REMARK    1  A    between atoms: C_4  and  C_5 
REMARK    2  A    between atoms: C_5  and  C_6 
REMARK    3  A    between atoms: C_6  and  C_7 
REMARK    4  A    between atoms: C_7  and  C_8 
REMARK       I    between atoms: C_8  and  N_9 
REMARK    5  A    between atoms: N_9  and  C_10 
REMARK    6  A    between atoms: C_12  and  C_13 
ROOT
HETATM    1  C   UNL     1      25.800  46.497  53.234  1.00  0.00     0.222 C 
HETATM    2  N   UNL     1      25.368  45.914  52.082  1.00  0.00    -0.327 N 
HETATM    3  O   UNL     1      25.733  47.729  53.292  1.00  0.00    -0.273 OA
HETATM    4  H   UNL     1      25.043  46.635  51.447  1.00  0.00     0.169 HD
ENDROOT
BRANCH   2   5
HETATM    5  C   UNL     1      25.310  44.598  51.582  1.00  0.00     0.035 A 
HETATM    6  C   UNL     1      26.329  43.646  51.646  1.00  0.00     0.042 A 
HETATM    7  C   UNL     1      26.168  42.367  51.077  1.00  0.00    -0.021 A 
HETATM    8  C   UNL     1      24.963  42.045  50.443  1.00  0.00     0.012 A 
HETATM    9  C   UNL     1      23.934  42.980  50.384  1.00  0.00     0.003 A 
HETATM   10  C   UNL     1      24.109  44.244  50.949  1.00  0.00     0.029 A 
BRANCH   7  11
HETATM   11  C   UNL     1      27.241  41.390  51.120  1.00  0.00     0.010 A 
HETATM   12  C   UNL     1      27.668  40.445  50.157  1.00  0.00     0.152 A 
HETATM   13  N   UNL     1      28.695  39.703  50.580  1.00  0.00    -0.187 NA
HETATM   14  N   UNL     1      28.929  40.167  51.817  1.00  0.00    -0.289 N 
HETATM   15  H   UNL     1      29.678  39.744  52.355  1.00  0.00     0.188 HD
HETATM   16  C   UNL     1      28.087  41.176  52.188  1.00  0.00     0.123 A 
ENDBRANCH   7  11
ENDBRANCH   2   5
BRANCH   1  17
HETATM   17  C   UNL     1      26.334  45.681  54.390  1.00  0.00     0.103 C 
BRANCH  17  18
HETATM   18  C   UNL     1      27.787  46.006  54.750  1.00  0.00     0.014 C 
BRANCH  18  19
HETATM   19  C   UNL     1      28.755  44.852  54.464  1.00  0.00     0.039 C 
BRANCH  19  20
HETATM   20  C   UNL     1      29.708  44.638  55.616  1.00  0.00    -0.058 A 
HETATM   21  C   UNL     1      30.558  43.523  55.630  1.00  0.00     0.007 A 
HETATM   22  C   UNL     1      31.422  43.305  56.703  1.00  0.00     0.001 A 
HETATM   23  C   UNL     1      31.447  44.199  57.771  1.00  0.00     0.000 A 
HETATM   24  C   UNL     1      30.608  45.312  57.767  1.00  0.00     0.001 A 
HETATM   25  C   UNL     1      29.740  45.530  56.695  1.00  0.00     0.007 A 
ENDBRANCH  19  20
ENDBRANCH  18  19
ENDBRANCH  17  18
ENDBRANCH   1  17
TORSDOF 6
ENDMDL
MODEL 8
REMARK VINA RESULT:      -8.5     12.542     13.679
REMARK  6 active torsions:
REMARK  status: ('A' for Active; 'I' for Inactive)
REMARK    1  A    between atoms: C_4  and  C_5 
REMARK    2  A    between atoms: C_5  and  C_6 
REMARK    3  A    between atoms: C_6  and  C_7 
REMARK    4  A    between atoms: C_7  and  C_8 
REMARK       I    between atoms: C_8  and  N_9 
REMARK    5  A    between atoms: N_9  and  C_10 
REMARK    6  A    between atoms: C_12  and  C_13 
ROOT
HETATM    1  C   UNL     1      29.658  46.817  39.944  1.00  0.00     0.222 C 
HETATM    2  N   UNL     1      30.871  47.416  39.791  1.00  0.00    -0.327 N 
HETATM    3  O   UNL     1      29.585  45.624  39.635  1.00  0.00    -0.273 OA
HETATM    4  H   UNL     1      31.535  46.734  39.439  1.00  0.00     0.169 HD
ENDROOT
BRANCH   2   5
HETATM    5  C   UNL     1      31.378  48.718  39.966  1.00  0.00     0.035 A 
HETATM    6  C   UNL     1      31.917  49.242  41.143  1.00  0.00     0.042 A 
HETATM    7  C   UNL     1      32.364  50.577  41.208  1.00  0.00    -0.021 A 
HETATM    8  C   UNL     1      32.270  51.388  40.072  1.00  0.00     0.012 A 
HETATM    9  C   UNL     1      31.747  50.875  38.889  1.00  0.00     0.003 A 
HETATM   10  C   UNL     1      31.306  49.552  38.839  1.00  0.00     0.029 A 
BRANCH   7  11
HETATM   11  C   UNL     1      32.897  51.127  42.442  1.00  0.00     0.010 A 
HETATM   12  C   UNL     1      32.243  51.538  43.627  1.00  0.00     0.152 A 
HETATM   13  N   UNL     1      33.089  52.011  44.547  1.00  0.00    -0.187 NA
HETATM   14  N   UNL     1      34.288  51.907  43.954  1.00  0.00    -0.289 N 
HETATM   15  H   UNL     1      35.107  52.216  44.468  1.00  0.00     0.188 HD
HETATM   16  C   UNL     1      34.228  51.384  42.694  1.00  0.00     0.123 A 
ENDBRANCH   7  11
ENDBRANCH   2   5
BRANCH   1  17
HETATM   17  C   UNL     1      28.457  47.571  40.470  1.00  0.00     0.103 C 
BRANCH  17  18
HETATM   18  C   UNL     1      27.771  48.444  39.415  1.00  0.00     0.014 C 
BRANCH  18  19
HETATM   19  C   UNL     1      26.950  49.591  40.019  1.00  0.00     0.039 C 
BRANCH  19  20
HETATM   20  C   UNL     1      27.766  50.857  40.114  1.00  0.00    -0.058 A 
HETATM   21  C   UNL     1      28.232  51.303  41.360  1.00  0.00     0.007 A 
HETATM   22  C   UNL     1      28.966  52.486  41.460  1.00  0.00     0.001 A 
HETATM   23  C   UNL     1      29.243  53.232  40.317  1.00  0.00     0.000 A 
HETATM   24  C   UNL     1      28.787  52.798  39.073  1.00  0.00     0.001 A 
HETATM   25  C   UNL     1      28.050  51.616  38.972  1.00  0.00     0.007 A 
ENDBRANCH  19  20
ENDBRANCH  18  19
ENDBRANCH  17  18
ENDBRANCH   1  17
TORSDOF 6
ENDMDL
MODEL 9
REMARK VINA RESULT:      -8.5      3.489      7.389
REMARK  6 active torsions:
REMARK  status: ('A' for Active; 'I' for Inactive)
REMARK    1  A    between atoms: C_4  and  C_5 
REMARK    2  A    between atoms: C_5  and  C_6 
REMARK    3  A    between atoms: C_6  and  C_7 
REMARK    4  A    between atoms: C_7  and  C_8 
REMARK       I    between atoms: C_8  and  N_9 
REMARK    5  A    between atoms: N_9  and  C_10 
REMARK    6  A    between atoms: C_12  and  C_13 
ROOT
HETATM    1  C   UNL     1      28.641  40.586  52.207  1.00  0.00     0.222 C 
HETATM    2  N   UNL     1      27.708  40.948  51.284  1.00  0.00    -0.327 N 
HETATM    3  O   UNL     1      29.355  39.619  51.926  1.00  0.00    -0.273 OA
HETATM    4  H   UNL     1      27.777  40.328  50.483  1.00  0.00     0.169 HD
ENDROOT
BRANCH   2   5
HETATM    5  C   UNL     1      26.690  41.918  51.211  1.00  0.00     0.035 A 
HETATM    6  C   UNL     1      26.699  43.171  51.826  1.00  0.00     0.042 A 
HETATM    7  C   UNL     1      25.602  44.048  51.708  1.00  0.00    -0.021 A 
HETATM    8  C   UNL     1      24.489  43.657  50.957  1.00  0.00     0.012 A 
HETATM    9  C   UNL     1      24.472  42.416  50.328  1.00  0.00     0.003 A 
HETATM   10  C   UNL     1      25.564  41.557  50.455  1.00  0.00     0.029 A 
BRANCH   7  11
HETATM   11  C   UNL     1      25.603  45.339  52.374  1.00  0.00     0.010 A 
HETATM   12  C   UNL     1      25.199  46.614  51.914  1.00  0.00     0.152 A 
HETATM   13  N   UNL     1      25.369  47.573  52.829  1.00  0.00    -0.187 NA
HETATM   14  N   UNL     1      25.886  46.915  53.879  1.00  0.00    -0.289 N 
HETATM   15  H   UNL     1      26.111  47.445  54.715  1.00  0.00     0.188 HD
HETATM   16  C   UNL     1      26.045  45.577  53.658  1.00  0.00     0.123 A 
ENDBRANCH   7  11
ENDBRANCH   2   5
BRANCH   1  17
HETATM   17  C   UNL     1      28.801  41.332  53.514  1.00  0.00     0.103 C 
BRANCH  17  18
HETATM   18  C   UNL     1      29.916  42.382  53.487  1.00  0.00     0.014 C 
BRANCH  18  19
HETATM   19  C   UNL     1      29.465  43.757  53.995  1.00  0.00     0.039 C 
BRANCH  19  20
HETATM   20  C   UNL     1      30.042  44.054  55.358  1.00  0.00    -0.058 A 
HETATM   21  C   UNL     1      30.919  43.144  55.965  1.00  0.00     0.007 A 
HETATM   22  C   UNL     1      31.436  43.399  57.236  1.00  0.00     0.001 A 
HETATM   23  C   UNL     1      31.084  44.565  57.911  1.00  0.00     0.000 A 
HETATM   24  C   UNL     1      30.214  45.478  57.316  1.00  0.00     0.001 A 
HETATM   25  C   UNL     1      29.693  45.223  56.046  1.00  0.00     0.007 A 
ENDBRANCH  19  20
ENDBRANCH  18  19
ENDBRANCH  17  18
ENDBRANCH   1  17
TORSDOF 6
ENDMDL
MODEL 10
REMARK VINA RESULT:      -8.4      2.251      3.908
REMARK  6 active torsions:
REMARK  status: ('A' for Active; 'I' for Inactive)
REMARK    1  A    between atoms: C_4  and  C_5 
REMARK    2  A    between atoms: C_5  and  C_6 
REMARK    3  A    between atoms: C_6  and  C_7 
REMARK    4  A    between atoms: C_7  and  C_8 
REMARK       I    between atoms: C_8  and  N_9 
REMARK    5  A    between atoms: N_9  and  C_10 
REMARK    6  A    between atoms: C_12  and  C_13 
ROOT
HETATM    1  C   UNL     1      26.431  47.015  54.566  1.00  0.00     0.222 C 
HETATM    2  N   UNL     1      27.621  46.528  55.014  1.00  0.00    -0.327 N 
HETATM    3  O   UNL     1      26.043  48.077  55.063  1.00  0.00    -0.273 OA
HETATM    4  H   UNL     1      27.999  47.164  55.709  1.00  0.00     0.169 HD
ENDROOT
BRANCH   2   5
HETATM    5  C   UNL     1      28.389  45.373  54.771  1.00  0.00     0.035 A 
HETATM    6  C   UNL     1      28.146  44.412  53.789  1.00  0.00     0.042 A 
HETATM    7  C   UNL     1      28.969  43.275  53.663  1.00  0.00    -0.021 A 
HETATM    8  C   UNL     1      30.051  43.111  54.534  1.00  0.00     0.012 A 
HETATM    9  C   UNL     1      30.313  44.068  55.509  1.00  0.00     0.003 A 
HETATM   10  C   UNL     1      29.489  45.188  55.624  1.00  0.00     0.029 A 
BRANCH   7  11
HETATM   11  C   UNL     1      28.695  42.262  52.658  1.00  0.00     0.010 A 
HETATM   12  C   UNL     1      29.021  40.886  52.623  1.00  0.00     0.152 A 
HETATM   13  N   UNL     1      28.603  40.283  51.506  1.00  0.00    -0.187 NA
HETATM   14  N   UNL     1      28.010  41.272  50.820  1.00  0.00    -0.289 N 
HETATM   15  H   UNL     1      27.610  41.055  49.912  1.00  0.00     0.188 HD
HETATM   16  C   UNL     1      28.037  42.476  51.465  1.00  0.00     0.123 A 
ENDBRANCH   7  11
ENDBRANCH   2   5
BRANCH   1  17
HETATM   17  C   UNL     1      25.623  46.297  53.508  1.00  0.00     0.103 C 
BRANCH  17  18
HETATM   18  C   UNL     1      25.310  47.162  52.283  1.00  0.00     0.014 C 
BRANCH  18  19
HETATM   19  C   UNL     1      26.234  46.880  51.091  1.00  0.00     0.039 C 
BRANCH  19  20
HETATM   20  C   UNL     1      26.099  47.946  50.031  1.00  0.00    -0.058 A 
HETATM   21  C   UNL     1      27.234  48.626  49.566  1.00  0.00     0.007 A 
HETATM   22  C   UNL     1      27.115  49.630  48.604  1.00  0.00     0.001 A 
HETATM   23  C   UNL     1      25.861  49.962  48.096  1.00  0.00     0.000 A 
HETATM   24  C   UNL     1      24.726  49.291  48.549  1.00  0.00     0.001 A 
HETATM   25  C   UNL     1      24.844  48.289  49.514  1.00  0.00     0.007 A 
ENDBRANCH  19  20
ENDBRANCH  18  19
ENDBRANCH  17  18
ENDBRANCH   1  17
TORSDOF 6
ENDMDL
