MODEL 1
REMARK VINA RESULT:      -8.1      0.000      0.000
REMARK  3 active torsions:
REMARK  status: ('A' for Active; 'I' for Inactive)
REMARK       I    between atoms: C_2  and  N_3 
REMARK    1  A    between atoms: C_2  and  C_16 
REMARK    2  A    between atoms: N_3  and  C_4 
REMARK    3  A    between atoms: C_7  and  C_10 
ROOT
HETATM    1  O   UNL     1      25.030  44.251  53.815  1.00  0.00    -0.270 OA
HETATM    2  C   UNL     1      25.194  44.915  52.803  1.00  0.00     0.255 C 
HETATM    3  N   UNL     1      26.282  45.827  52.765  1.00  0.00    -0.305 N 
HETATM    4  H   UNL     1      26.504  46.368  51.940  1.00  0.00     0.171 HD
ENDROOT
BRANCH   3   5
HETATM    5  C   UNL     1      27.000  46.110  53.835  1.00  0.00     0.151 A 
HETATM    6  N   UNL     1      28.025  45.397  54.303  1.00  0.00    -0.335 N 
HETATM    7  H   UNL     1      28.319  44.562  53.791  1.00  0.00     0.168 HD
HETATM    8  C   UNL     1      28.553  45.869  55.491  1.00  0.00     0.051 A 
HETATM    9  C   UNL     1      27.930  47.032  55.899  1.00  0.00     0.083 A 
HETATM   10  S   UNL     1      26.660  47.483  54.823  1.00  0.00    -0.063 SA
BRANCH   8  11
HETATM   11  C   UNL     1      29.626  45.194  56.212  1.00  0.00    -0.006 A 
HETATM   12  C   UNL     1      30.285  44.101  55.638  1.00  0.00     0.033 A 
HETATM   13  C   UNL     1      31.274  43.461  56.367  1.00  0.00     0.117 A 
HETATM   14  N   UNL     1      31.645  43.835  57.606  1.00  0.00    -0.273 NA
HETATM   15  C   UNL     1      31.008  44.891  58.147  1.00  0.00     0.117 A 
HETATM   16  C   UNL     1      30.005  45.593  57.500  1.00  0.00     0.033 A 
ENDBRANCH   8  11
ENDBRANCH   3   5
BRANCH   2  17
HETATM   17  C   UNL     1      24.367  44.846  51.524  1.00  0.00     0.245 C 
HETATM   18  C   UNL     1      25.102  45.502  50.367  1.00  0.00     0.218 C 
HETATM   19  O   UNL     1      26.337  44.826  50.108  1.00  0.00    -0.345 OA
HETATM   20  C   UNL     1      26.172  43.468  50.062  1.00  0.00     0.102 A 
HETATM   21  C   UNL     1      27.205  42.731  49.491  1.00  0.00     0.039 A 
HETATM   22  C   UNL     1      25.049  42.819  50.586  1.00  0.00     0.103 A 
HETATM   23  C   UNL     1      27.103  41.341  49.415  1.00  0.00     0.003 A 
HETATM   24  C   UNL     1      25.969  40.695  49.909  1.00  0.00     0.003 A 
HETATM   25  C   UNL     1      24.938  41.434  50.495  1.00  0.00     0.040 A 
HETATM   26  O   UNL     1      24.034  43.479  51.234  1.00  0.00    -0.331 OA
ENDBRANCH   2  17
TORSDOF 3
ENDMDL
MODEL 2
REMARK VINA RESULT:      -7.9      1.738      2.965
REMARK  3 active torsions:
REMARK  status: ('A' for Active; 'I' for Inactive)
REMARK       I    between atoms: C_2  and  N_3 
REMARK    1  A    between atoms: C_2  and  C_16 
REMARK    2  A    between atoms: N_3  and  C_4 
REMARK    3  A    between atoms: C_7  and  C_10 
ROOT
HETATM    1  O   UNL     1      27.632  41.691  52.377  1.00  0.00    -0.270 OA
HETATM    2  C   UNL     1      27.636  42.486  51.449  1.00  0.00     0.255 C 
HETATM    3  N   UNL     1      27.964  43.840  51.724  1.00  0.00    -0.305 N 
HETATM    4  H   UNL     1      28.036  44.537  50.995  1.00  0.00     0.171 HD
ENDROOT
BRANCH   3   5
HETATM    5  C   UNL     1      28.084  44.299  52.955  1.00  0.00     0.151 A 
HETATM    6  N   UNL     1      29.138  44.134  53.755  1.00  0.00    -0.335 N 
HETATM    7  H   UNL     1      29.953  43.630  53.399  1.00  0.00     0.168 HD
HETATM    8  C   UNL     1      28.972  44.645  55.030  1.00  0.00     0.051 A 
HETATM    9  C   UNL     1      27.755  45.280  55.169  1.00  0.00     0.083 A 
HETATM   10  S   UNL     1      26.816  45.179  53.727  1.00  0.00    -0.063 SA
BRANCH   8  11
HETATM   11  C   UNL     1      29.972  44.503  56.083  1.00  0.00    -0.006 A 
HETATM   12  C   UNL     1      30.902  43.458  56.038  1.00  0.00     0.033 A 
HETATM   13  C   UNL     1      31.813  43.333  57.074  1.00  0.00     0.117 A 
HETATM   14  N   UNL     1      31.858  44.167  58.130  1.00  0.00    -0.273 NA
HETATM   15  C   UNL     1      30.962  45.172  58.161  1.00  0.00     0.117 A 
HETATM   16  C   UNL     1      30.010  45.378  57.176  1.00  0.00     0.033 A 
ENDBRANCH   8  11
ENDBRANCH   3   5
BRANCH   2  17
HETATM   17  C   UNL     1      27.362  42.176  49.982  1.00  0.00     0.245 C 
HETATM   18  C   UNL     1      26.385  41.019  49.846  1.00  0.00     0.218 C 
HETATM   19  O   UNL     1      25.130  41.348  50.450  1.00  0.00    -0.345 OA
HETATM   20  C   UNL     1      24.694  42.590  50.072  1.00  0.00     0.102 A 
HETATM   21  C   UNL     1      23.355  42.882  50.310  1.00  0.00     0.039 A 
HETATM   22  C   UNL     1      25.536  43.551  49.504  1.00  0.00     0.103 A 
HETATM   23  C   UNL     1      22.846  44.132  49.952  1.00  0.00     0.003 A 
HETATM   24  C   UNL     1      23.678  45.081  49.356  1.00  0.00     0.003 A 
HETATM   25  C   UNL     1      25.025  44.792  49.129  1.00  0.00     0.040 A 
HETATM   26  O   UNL     1      26.882  43.355  49.317  1.00  0.00    -0.331 OA
ENDBRANCH   2  17
TORSDOF 3
ENDMDL
MODEL 3
REMARK VINA RESULT:      -7.9      4.484      6.714
REMARK  3 active torsions:
REMARK  status: ('A' for Active; 'I' for Inactive)
REMARK       I    between atoms: C_2  and  N_3 
REMARK    1  A    between atoms: C_2  and  C_16 
REMARK    2  A    between atoms: N_3  and  C_4 
REMARK    3  A    between atoms: C_7  and  C_10 
ROOT
HETATM    1  O   UNL     1      24.146  48.486  50.225  1.00  0.00    -0.270 OA
HETATM    2  C   UNL     1      23.609  47.778  49.385  1.00  0.00     0.255 C 
HETATM    3  N   UNL     1      23.581  46.375  49.607  1.00  0.00    -0.305 N 
HETATM    4  H   UNL     1      23.108  45.740  48.978  1.00  0.00     0.171 HD
ENDROOT
BRANCH   3   5
HETATM    5  C   UNL     1      24.262  45.803  50.580  1.00  0.00     0.151 A 
HETATM    6  N   UNL     1      24.898  46.432  51.569  1.00  0.00    -0.335 N 
HETATM    7  H   UNL     1      24.850  47.452  51.615  1.00  0.00     0.168 HD
HETATM    8  C   UNL     1      25.607  45.597  52.413  1.00  0.00     0.051 A 
HETATM    9  C   UNL     1      25.440  44.269  52.075  1.00  0.00     0.083 A 
HETATM   10  S   UNL     1      24.448  44.090  50.676  1.00  0.00    -0.063 SA
BRANCH   8  11
HETATM   11  C   UNL     1      26.434  46.087  53.511  1.00  0.00    -0.006 A 
HETATM   12  C   UNL     1      27.441  45.280  54.051  1.00  0.00     0.033 A 
HETATM   13  C   UNL     1      28.183  45.765  55.117  1.00  0.00     0.117 A 
HETATM   14  N   UNL     1      27.991  46.978  55.666  1.00  0.00    -0.273 NA
HETATM   15  C   UNL     1      27.022  47.749  55.135  1.00  0.00     0.117 A 
HETATM   16  C   UNL     1      26.226  47.353  54.073  1.00  0.00     0.033 A 
ENDBRANCH   8  11
ENDBRANCH   3   5
BRANCH   2  17
HETATM   17  C   UNL     1      22.911  48.244  48.112  1.00  0.00     0.245 C 
HETATM   18  C   UNL     1      21.748  47.329  47.766  1.00  0.00     0.218 C 
HETATM   19  O   UNL     1      20.771  47.341  48.812  1.00  0.00    -0.345 OA
HETATM   20  C   UNL     1      20.474  48.616  49.215  1.00  0.00     0.102 A 
HETATM   21  C   UNL     1      19.315  48.781  49.968  1.00  0.00     0.039 A 
HETATM   22  C   UNL     1      21.291  49.714  48.930  1.00  0.00     0.103 A 
HETATM   23  C   UNL     1      18.956  50.053  50.413  1.00  0.00     0.003 A 
HETATM   24  C   UNL     1      19.754  51.155  50.103  1.00  0.00     0.003 A 
HETATM   25  C   UNL     1      20.924  50.987  49.358  1.00  0.00     0.040 A 
HETATM   26  O   UNL     1      22.487  49.608  48.263  1.00  0.00    -0.331 OA
ENDBRANCH   2  17
TORSDOF 3
ENDMDL
MODEL 4
REMARK VINA RESULT:      -7.9      1.954      2.358
REMARK  3 active torsions:
REMARK  status: ('A' for Active; 'I' for Inactive)
REMARK       I    between atoms: C_2  and  N_3 
REMARK    1  A    between atoms: C_2  and  C_16 
REMARK    2  A    between atoms: N_3  and  C_4 
REMARK    3  A    between atoms: C_7  and  C_10 
ROOT
HETATM    1  O   UNL     1      25.487  44.089  53.331  1.00  0.00    -0.270 OA
HETATM    2  C   UNL     1      25.868  44.655  52.317  1.00  0.00     0.255 C 
HETATM    3  N   UNL     1      27.235  44.538  51.954  1.00  0.00    -0.305 N 
HETATM    4  H   UNL     1      27.603  44.938  51.102  1.00  0.00     0.171 HD
ENDROOT
BRANCH   3   5
HETATM    5  C   UNL     1      28.132  43.999  52.757  1.00  0.00     0.151 A 
HETATM    6  N   UNL     1      28.538  44.495  53.927  1.00  0.00    -0.335 N 
HETATM    7  H   UNL     1      28.114  45.360  54.269  1.00  0.00     0.168 HD
HETATM    8  C   UNL     1      29.552  43.775  54.531  1.00  0.00     0.051 A 
HETATM    9  C   UNL     1      29.878  42.647  53.805  1.00  0.00     0.083 A 
HETATM   10  S   UNL     1      28.952  42.535  52.354  1.00  0.00    -0.063 SA
BRANCH   8  11
HETATM   11  C   UNL     1      30.193  44.187  55.775  1.00  0.00    -0.006 A 
HETATM   12  C   UNL     1      31.141  43.362  56.389  1.00  0.00     0.033 A 
HETATM   13  C   UNL     1      31.702  43.770  57.589  1.00  0.00     0.117 A 
HETATM   14  N   UNL     1      31.386  44.925  58.203  1.00  0.00    -0.273 NA
HETATM   15  C   UNL     1      30.476  45.715  57.600  1.00  0.00     0.117 A 
HETATM   16  C   UNL     1      29.858  45.394  56.403  1.00  0.00     0.033 A 
ENDBRANCH   8  11
ENDBRANCH   3   5
BRANCH   2  17
HETATM   17  C   UNL     1      25.011  45.462  51.348  1.00  0.00     0.245 C 
HETATM   18  C   UNL     1      25.764  45.735  50.056  1.00  0.00     0.218 C 
HETATM   19  O   UNL     1      26.100  44.507  49.402  1.00  0.00    -0.345 OA
HETATM   20  C   UNL     1      25.030  43.655  49.341  1.00  0.00     0.102 A 
HETATM   21  C   UNL     1      25.126  42.593  48.447  1.00  0.00     0.039 A 
HETATM   22  C   UNL     1      23.897  43.797  50.147  1.00  0.00     0.103 A 
HETATM   23  C   UNL     1      24.072  41.685  48.337  1.00  0.00     0.003 A 
HETATM   24  C   UNL     1      22.927  41.844  49.119  1.00  0.00     0.003 A 
HETATM   25  C   UNL     1      22.836  42.902  50.025  1.00  0.00     0.040 A 
HETATM   26  O   UNL     1      23.774  44.774  51.105  1.00  0.00    -0.331 OA
ENDBRANCH   2  17
TORSDOF 3
ENDMDL
MODEL 5
REMARK VINA RESULT:      -7.7      5.142      8.970
REMARK  3 active torsions:
REMARK  status: ('A' for Active; 'I' for Inactive)
REMARK       I    between atoms: C_2  and  N_3 
REMARK    1  A    between atoms: C_2  and  C_16 
REMARK    2  A    between atoms: N_3  and  C_4 
REMARK    3  A    between atoms: C_7  and  C_10 
ROOT
HETATM    1  O   UNL     1      23.070  46.279  49.340  1.00  0.00    -0.270 OA
HETATM    2  C   UNL     1      24.264  46.533  49.390  1.00  0.00     0.255 C 
HETATM    3  N   UNL     1      24.665  47.895  49.374  1.00  0.00    -0.305 N 
HETATM    4  H   UNL     1      25.632  48.174  49.466  1.00  0.00     0.171 HD
ENDROOT
BRANCH   3   5
HETATM    5  C   UNL     1      23.816  48.874  49.128  1.00  0.00     0.151 A 
HETATM    6  N   UNL     1      22.596  49.005  49.649  1.00  0.00    -0.335 N 
HETATM    7  H   UNL     1      22.270  48.310  50.324  1.00  0.00     0.168 HD
HETATM    8  C   UNL     1      21.879  50.082  49.158  1.00  0.00     0.051 A 
HETATM    9  C   UNL     1      22.626  50.830  48.271  1.00  0.00     0.083 A 
HETATM   10  S   UNL     1      24.189  50.145  48.022  1.00  0.00    -0.063 SA
BRANCH   8  11
HETATM   11  C   UNL     1      20.498  50.360  49.537  1.00  0.00    -0.006 A 
HETATM   12  C   UNL     1      19.690  49.345  50.062  1.00  0.00     0.033 A 
HETATM   13  C   UNL     1      18.373  49.638  50.377  1.00  0.00     0.117 A 
HETATM   14  N   UNL     1      17.820  50.853  50.208  1.00  0.00    -0.273 NA
HETATM   15  C   UNL     1      18.608  51.825  49.708  1.00  0.00     0.117 A 
HETATM   16  C   UNL     1      19.934  51.631  49.360  1.00  0.00     0.033 A 
ENDBRANCH   8  11
ENDBRANCH   3   5
BRANCH   2  17
HETATM   17  C   UNL     1      25.405  45.528  49.512  1.00  0.00     0.245 C 
HETATM   18  C   UNL     1      26.728  46.236  49.750  1.00  0.00     0.218 C 
HETATM   19  O   UNL     1      26.688  46.980  50.972  1.00  0.00    -0.345 OA
HETATM   20  C   UNL     1      26.176  46.236  52.002  1.00  0.00     0.102 A 
HETATM   21  C   UNL     1      26.396  46.716  53.289  1.00  0.00     0.039 A 
HETATM   22  C   UNL     1      25.434  45.068  51.802  1.00  0.00     0.103 A 
HETATM   23  C   UNL     1      25.899  46.009  54.385  1.00  0.00     0.003 A 
HETATM   24  C   UNL     1      25.185  44.825  54.188  1.00  0.00     0.003 A 
HETATM   25  C   UNL     1      24.953  44.351  52.895  1.00  0.00     0.040 A 
HETATM   26  O   UNL     1      25.113  44.586  50.557  1.00  0.00    -0.331 OA
ENDBRANCH   2  17
TORSDOF 3
ENDMDL
MODEL 6
REMARK VINA RESULT:      -7.5      2.133      2.929
REMARK  3 active torsions:
REMARK  status: ('A' for Active; 'I' for Inactive)
REMARK       I    between atoms: C_2  and  N_3 
REMARK    1  A    between atoms: C_2  and  C_16 
REMARK    2  A    between atoms: N_3  and  C_4 
REMARK    3  A    between atoms: C_7  and  C_10 
ROOT
HETATM    1  O   UNL     1      26.889  41.696  52.208  1.00  0.00    -0.270 OA
HETATM    2  C   UNL     1      26.362  42.330  51.305  1.00  0.00     0.255 C 
HETATM    3  N   UNL     1      26.460  43.746  51.331  1.00  0.00    -0.305 N 
HETATM    4  H   UNL     1      26.092  44.326  50.589  1.00  0.00     0.171 HD
ENDROOT
BRANCH   3   5
HETATM    5  C   UNL     1      26.934  44.400  52.374  1.00  0.00     0.151 A 
HETATM    6  N   UNL     1      27.990  44.048  53.107  1.00  0.00    -0.335 N 
HETATM    7  H   UNL     1      28.515  43.211  52.845  1.00  0.00     0.168 HD
HETATM    8  C   UNL     1      28.225  44.864  54.199  1.00  0.00     0.051 A 
HETATM    9  C   UNL     1      27.334  45.918  54.247  1.00  0.00     0.083 A 
HETATM   10  S   UNL     1      26.186  45.839  52.963  1.00  0.00    -0.063 SA
BRANCH   8  11
HETATM   11  C   UNL     1      29.281  44.611  55.172  1.00  0.00    -0.006 A 
HETATM   12  C   UNL     1      29.533  45.531  56.196  1.00  0.00     0.033 A 
HETATM   13  C   UNL     1      30.569  45.276  57.081  1.00  0.00     0.117 A 
HETATM   14  N   UNL     1      31.351  44.182  57.015  1.00  0.00    -0.273 NA
HETATM   15  C   UNL     1      31.096  43.301  56.029  1.00  0.00     0.117 A 
HETATM   16  C   UNL     1      30.088  43.468  55.095  1.00  0.00     0.033 A 
ENDBRANCH   8  11
ENDBRANCH   3   5
BRANCH   2  17
HETATM   17  C   UNL     1      25.627  41.757  50.099  1.00  0.00     0.245 C 
HETATM   18  C   UNL     1      26.193  42.315  48.803  1.00  0.00     0.218 C 
HETATM   19  O   UNL     1      27.573  41.963  48.664  1.00  0.00    -0.345 OA
HETATM   20  C   UNL     1      27.786  40.636  48.925  1.00  0.00     0.102 A 
HETATM   21  C   UNL     1      28.999  40.102  48.501  1.00  0.00     0.039 A 
HETATM   22  C   UNL     1      26.867  39.838  49.613  1.00  0.00     0.103 A 
HETATM   23  C   UNL     1      29.283  38.756  48.738  1.00  0.00     0.003 A 
HETATM   24  C   UNL     1      28.352  37.951  49.396  1.00  0.00     0.003 A 
HETATM   25  C   UNL     1      27.141  38.490  49.834  1.00  0.00     0.040 A 
HETATM   26  O   UNL     1      25.690  40.322  50.129  1.00  0.00    -0.331 OA
ENDBRANCH   2  17
TORSDOF 3
ENDMDL
MODEL 7
REMARK VINA RESULT:      -7.3      5.361      7.842
REMARK  3 active torsions:
REMARK  status: ('A' for Active; 'I' for Inactive)
REMARK       I    between atoms: C_2  and  N_3 
REMARK    1  A    between atoms: C_2  and  C_16 
REMARK    2  A    between atoms: N_3  and  C_4 
REMARK    3  A    between atoms: C_7  and  C_10 
ROOT
HETATM    1  O   UNL     1      22.719  47.653  47.785  1.00  0.00    -0.270 OA
HETATM    2  C   UNL     1      21.719  46.971  47.953  1.00  0.00     0.255 C 
HETATM    3  N   UNL     1      21.818  45.826  48.786  1.00  0.00    -0.305 N 
HETATM    4  H   UNL     1      21.017  45.249  49.007  1.00  0.00     0.171 HD
ENDROOT
BRANCH   3   5
HETATM    5  C   UNL     1      22.976  45.377  49.231  1.00  0.00     0.151 A 
HETATM    6  N   UNL     1      23.566  45.727  50.374  1.00  0.00    -0.335 N 
HETATM    7  H   UNL     1      23.088  46.384  50.995  1.00  0.00     0.168 HD
HETATM    8  C   UNL     1      24.819  45.172  50.563  1.00  0.00     0.051 A 
HETATM    9  C   UNL     1      25.155  44.313  49.536  1.00  0.00     0.083 A 
HETATM   10  S   UNL     1      23.927  44.257  48.327  1.00  0.00    -0.063 SA
BRANCH   8  11
HETATM   11  C   UNL     1      25.667  45.485  51.708  1.00  0.00    -0.006 A 
HETATM   12  C   UNL     1      26.534  44.518  52.230  1.00  0.00     0.033 A 
HETATM   13  C   UNL     1      27.297  44.839  53.341  1.00  0.00     0.117 A 
HETATM   14  N   UNL     1      27.255  46.038  53.952  1.00  0.00    -0.273 NA
HETATM   15  C   UNL     1      26.422  46.963  53.437  1.00  0.00     0.117 A 
HETATM   16  C   UNL     1      25.616  46.737  52.333  1.00  0.00     0.033 A 
ENDBRANCH   8  11
ENDBRANCH   3   5
BRANCH   2  17
HETATM   17  C   UNL     1      20.329  47.238  47.387  1.00  0.00     0.245 C 
HETATM   18  C   UNL     1      19.255  46.913  48.412  1.00  0.00     0.218 C 
HETATM   19  O   UNL     1      19.404  47.736  49.574  1.00  0.00    -0.345 OA
HETATM   20  C   UNL     1      19.584  49.052  49.244  1.00  0.00     0.102 A 
HETATM   21  C   UNL     1      19.401  49.983  50.263  1.00  0.00     0.039 A 
HETATM   22  C   UNL     1      19.966  49.472  47.966  1.00  0.00     0.103 A 
HETATM   23  C   UNL     1      19.572  51.342  49.996  1.00  0.00     0.003 A 
HETATM   24  C   UNL     1      19.923  51.764  48.712  1.00  0.00     0.003 A 
HETATM   25  C   UNL     1      20.119  50.829  47.694  1.00  0.00     0.040 A 
HETATM   26  O   UNL     1      20.240  48.601  46.941  1.00  0.00    -0.331 OA
ENDBRANCH   2  17
TORSDOF 3
ENDMDL
MODEL 8
REMARK VINA RESULT:      -7.2     16.765     18.720
REMARK  3 active torsions:
REMARK  status: ('A' for Active; 'I' for Inactive)
REMARK       I    between atoms: C_2  and  N_3 
REMARK    1  A    between atoms: C_2  and  C_16 
REMARK    2  A    between atoms: N_3  and  C_4 
REMARK    3  A    between atoms: C_7  and  C_10 
ROOT
HETATM    1  O   UNL     1      33.489  52.121  38.425  1.00  0.00    -0.270 OA
HETATM    2  C   UNL     1      33.761  51.840  39.583  1.00  0.00     0.255 C 
HETATM    3  N   UNL     1      34.730  52.630  40.258  1.00  0.00    -0.305 N 
HETATM    4  H   UNL     1      34.962  52.483  41.231  1.00  0.00     0.171 HD
ENDROOT
BRANCH   3   5
HETATM    5  C   UNL     1      35.466  53.526  39.631  1.00  0.00     0.151 A 
HETATM    6  N   UNL     1      35.164  54.814  39.466  1.00  0.00    -0.335 N 
HETATM    7  H   UNL     1      34.299  55.174  39.874  1.00  0.00     0.168 HD
HETATM    8  C   UNL     1      36.072  55.519  38.696  1.00  0.00     0.051 A 
HETATM    9  C   UNL     1      37.140  54.731  38.318  1.00  0.00     0.083 A 
HETATM   10  S   UNL     1      36.965  53.111  38.882  1.00  0.00    -0.063 SA
BRANCH   8  11
HETATM   11  C   UNL     1      35.890  56.919  38.330  1.00  0.00    -0.006 A 
HETATM   12  C   UNL     1      36.862  57.584  37.573  1.00  0.00     0.033 A 
HETATM   13  C   UNL     1      36.672  58.924  37.276  1.00  0.00     0.117 A 
HETATM   14  N   UNL     1      35.597  59.630  37.673  1.00  0.00    -0.273 NA
HETATM   15  C   UNL     1      34.665  58.979  38.396  1.00  0.00     0.117 A 
HETATM   16  C   UNL     1      34.765  57.643  38.747  1.00  0.00     0.033 A 
ENDBRANCH   8  11
ENDBRANCH   3   5
BRANCH   2  17
HETATM   17  C   UNL     1      33.133  50.734  40.424  1.00  0.00     0.245 C 
HETATM   18  C   UNL     1      32.972  51.177  41.869  1.00  0.00     0.218 C 
HETATM   19  O   UNL     1      32.108  52.314  41.954  1.00  0.00    -0.345 OA
HETATM   20  C   UNL     1      30.967  52.141  41.216  1.00  0.00     0.102 A 
HETATM   21  C   UNL     1      29.912  53.008  41.482  1.00  0.00     0.039 A 
HETATM   22  C   UNL     1      30.848  51.172  40.215  1.00  0.00     0.103 A 
HETATM   23  C   UNL     1      28.721  52.889  40.764  1.00  0.00     0.003 A 
HETATM   24  C   UNL     1      28.590  51.902  39.786  1.00  0.00     0.003 A 
HETATM   25  C   UNL     1      29.654  51.040  39.510  1.00  0.00     0.040 A 
HETATM   26  O   UNL     1      31.877  50.340  39.848  1.00  0.00    -0.331 OA
ENDBRANCH   2  17
TORSDOF 3
ENDMDL
MODEL 9
REMARK VINA RESULT:      -7.1     13.020     15.642
REMARK  3 active torsions:
REMARK  status: ('A' for Active; 'I' for Inactive)
REMARK       I    between atoms: C_2  and  N_3 
REMARK    1  A    between atoms: C_2  and  C_16 
REMARK    2  A    between atoms: N_3  and  C_4 
REMARK    3  A    between atoms: C_7  and  C_10 
ROOT
HETATM    1  O   UNL     1      15.042  52.061  49.923  1.00  0.00    -0.270 OA
HETATM    2  C   UNL     1      15.373  52.154  48.750  1.00  0.00     0.255 C 
HETATM    3  N   UNL     1      15.336  53.436  48.140  1.00  0.00    -0.305 N 
HETATM    4  H   UNL     1      15.646  53.590  47.190  1.00  0.00     0.171 HD
ENDROOT
BRANCH   3   5
HETATM    5  C   UNL     1      14.793  54.481  48.733  1.00  0.00     0.151 A 
HETATM    6  N   UNL     1      15.286  55.130  49.788  1.00  0.00    -0.335 N 
HETATM    7  H   UNL     1      16.179  54.825  50.181  1.00  0.00     0.168 HD
HETATM    8  C   UNL     1      14.474  56.143  50.266  1.00  0.00     0.051 A 
HETATM    9  C   UNL     1      13.344  56.300  49.487  1.00  0.00     0.083 A 
HETATM   10  S   UNL     1      13.289  55.145  48.208  1.00  0.00    -0.063 SA
BRANCH   8  11
HETATM   11  C   UNL     1      14.788  56.924  51.457  1.00  0.00    -0.006 A 
HETATM   12  C   UNL     1      14.780  58.322  51.408  1.00  0.00     0.033 A 
HETATM   13  C   UNL     1      15.120  59.031  52.549  1.00  0.00     0.117 A 
HETATM   14  N   UNL     1      15.458  58.447  53.714  1.00  0.00    -0.273 NA
HETATM   15  C   UNL     1      15.457  57.100  53.752  1.00  0.00     0.117 A 
HETATM   16  C   UNL     1      15.136  56.305  52.665  1.00  0.00     0.033 A 
ENDBRANCH   8  11
ENDBRANCH   3   5
BRANCH   2  17
HETATM   17  C   UNL     1      15.873  51.028  47.853  1.00  0.00     0.245 C 
HETATM   18  C   UNL     1      16.719  51.576  46.715  1.00  0.00     0.218 C 
HETATM   19  O   UNL     1      17.872  52.253  47.227  1.00  0.00    -0.345 OA
HETATM   20  C   UNL     1      18.509  51.514  48.188  1.00  0.00     0.102 A 
HETATM   21  C   UNL     1      19.807  51.897  48.513  1.00  0.00     0.039 A 
HETATM   22  C   UNL     1      17.902  50.445  48.853  1.00  0.00     0.103 A 
HETATM   23  C   UNL     1      20.513  51.189  49.487  1.00  0.00     0.003 A 
HETATM   24  C   UNL     1      19.919  50.102  50.129  1.00  0.00     0.003 A 
HETATM   25  C   UNL     1      18.612  49.726  49.812  1.00  0.00     0.040 A 
HETATM   26  O   UNL     1      16.599  50.068  48.637  1.00  0.00    -0.331 OA
ENDBRANCH   2  17
TORSDOF 3
ENDMDL
MODEL 10
REMARK VINA RESULT:      -7.0      7.265      9.692
REMARK  3 active torsions:
REMARK  status: ('A' for Active; 'I' for Inactive)
REMARK       I    between atoms: C_2  and  N_3 
REMARK    1  A    between atoms: C_2  and  C_16 
REMARK    2  A    between atoms: N_3  and  C_4 
REMARK    3  A    between atoms: C_7  and  C_10 
ROOT
HETATM    1  O   UNL     1      19.962  48.494  49.476  1.00  0.00    -0.270 OA
HETATM    2  C   UNL     1      19.981  49.692  49.718  1.00  0.00     0.255 C 
HETATM    3  N   UNL     1      21.205  50.392  49.556  1.00  0.00    -0.305 N 
HETATM    4  H   UNL     1      21.276  51.392  49.689  1.00  0.00     0.171 HD
ENDROOT
BRANCH   3   5
HETATM    5  C   UNL     1      22.347  49.771  49.334  1.00  0.00     0.151 A 
HETATM    6  N   UNL     1      22.738  48.624  49.891  1.00  0.00    -0.335 N 
HETATM    7  H   UNL     1      22.104  48.148  50.536  1.00  0.00     0.168 HD
HETATM    8  C   UNL     1      24.020  48.232  49.548  1.00  0.00     0.051 A 
HETATM    9  C   UNL     1      24.592  49.099  48.638  1.00  0.00     0.083 A 
HETATM   10  S   UNL     1      23.543  50.417  48.271  1.00  0.00    -0.063 SA
BRANCH   8  11
HETATM   11  C   UNL     1      24.669  47.051  50.106  1.00  0.00    -0.006 A 
HETATM   12  C   UNL     1      25.348  47.128  51.327  1.00  0.00     0.033 A 
HETATM   13  C   UNL     1      25.984  45.995  51.808  1.00  0.00     0.117 A 
HETATM   14  N   UNL     1      25.984  44.812  51.166  1.00  0.00    -0.273 NA
HETATM   15  C   UNL     1      25.322  44.747  49.994  1.00  0.00     0.117 A 
HETATM   16  C   UNL     1      24.660  45.824  49.429  1.00  0.00     0.033 A 
ENDBRANCH   8  11
ENDBRANCH   3   5
BRANCH   2  17
HETATM   17  C   UNL     1      18.797  50.553  50.146  1.00  0.00     0.245 C 
HETATM   18  C   UNL     1      19.003  52.001  49.733  1.00  0.00     0.218 C 
HETATM   19  O   UNL     1      19.111  52.108  48.310  1.00  0.00    -0.345 OA
HETATM   20  C   UNL     1      18.125  51.404  47.672  1.00  0.00     0.102 A 
HETATM   21  C   UNL     1      17.915  51.698  46.329  1.00  0.00     0.039 A 
HETATM   22  C   UNL     1      17.371  50.408  48.302  1.00  0.00     0.103 A 
HETATM   23  C   UNL     1      16.927  51.015  45.617  1.00  0.00     0.003 A 
HETATM   24  C   UNL     1      16.153  50.044  46.253  1.00  0.00     0.003 A 
HETATM   25  C   UNL     1      16.372  49.739  47.598  1.00  0.00     0.040 A 
HETATM   26  O   UNL     1      17.583  50.014  49.600  1.00  0.00    -0.331 OA
ENDBRANCH   2  17
TORSDOF 3
ENDMDL
