MODEL 1
REMARK VINA RESULT:      -7.5      0.000      0.000
REMARK  9 active torsions:
REMARK  status: ('A' for Active; 'I' for Inactive)
REMARK    1  A    between atoms: C_2  and  N_3 
REMARK       I    between atoms: N_3  and  C_4 
REMARK    2  A    between atoms: C_4  and  C_5 
REMARK    3  A    between atoms: C_5  and  S_6 
REMARK    4  A    between atoms: S_6  and  C_7 
REMARK    5  A    between atoms: N_8  and  C_9 
REMARK    6  A    between atoms: C_9  and  C_10 
REMARK    7  A    between atoms: C_10  and  C_11 
REMARK    8  A    between atoms: C_17  and  C_18 
REMARK    9  A    between atoms: C_21  and  O_22 
ROOT
HETATM    1  C   UNL     1      22.962  48.822  49.373  1.00  0.00     0.192 A 
HETATM    2  N   UNL     1      21.598  48.914  49.265  1.00  0.00    -0.307 N 
HETATM    3  C   UNL     1      21.302  50.250  49.471  1.00  0.00     0.164 A 
HETATM    4  N   UNL     1      22.435  50.883  49.736  1.00  0.00    -0.128 NA
HETATM    5  N   UNL     1      23.462  49.987  49.703  1.00  0.00    -0.122 NA
ENDROOT
BRANCH   1   6
HETATM    6  S   UNL     1      23.878  47.384  49.081  1.00  0.00    -0.081 SA
BRANCH   6   7
HETATM    7  C   UNL     1      25.473  47.818  49.833  1.00  0.00     0.185 C 
BRANCH   7   8
HETATM    8  C   UNL     1      25.716  47.027  51.107  1.00  0.00     0.227 C 
HETATM    9  N   UNL     1      26.263  45.776  50.907  1.00  0.00    -0.357 N 
HETATM   10  H   UNL     1      26.141  45.373  49.976  1.00  0.00     0.162 HD
HETATM   11  O   UNL     1      25.462  47.484  52.219  1.00  0.00    -0.273 OA
BRANCH   9  12
HETATM   12  C   UNL     1      26.496  44.845  52.000  1.00  0.00     0.076 C 
HETATM   13  C   UNL     1      27.701  43.967  51.681  1.00  0.00     0.032 C 
HETATM   14  C   UNL     1      25.259  43.988  52.263  1.00  0.00     0.032 C 
ENDBRANCH   9  12
ENDBRANCH   7   8
ENDBRANCH   6   7
ENDBRANCH   1   6
BRANCH   2  15
HETATM   15  C   UNL     1      20.682  47.833  48.950  1.00  0.00     0.137 C 
BRANCH  15  16
HETATM   16  C   UNL     1      20.074  47.996  47.552  1.00  0.00     0.059 C 
BRANCH  16  17
HETATM   17  C   UNL     1      18.587  48.245  47.570  1.00  0.00    -0.057 A 
HETATM   18  C   UNL     1      17.747  47.525  48.432  1.00  0.00     0.007 A 
HETATM   19  C   UNL     1      16.375  47.785  48.466  1.00  0.00     0.001 A 
HETATM   20  C   UNL     1      15.831  48.773  47.648  1.00  0.00     0.000 A 
HETATM   21  C   UNL     1      16.657  49.501  46.795  1.00  0.00     0.001 A 
HETATM   22  C   UNL     1      18.028  49.240  46.756  1.00  0.00     0.007 A 
ENDBRANCH  16  17
ENDBRANCH  15  16
ENDBRANCH   2  15
BRANCH   3  23
HETATM   23  C   UNL     1      20.008  50.922  49.349  1.00  0.00     0.012 A 
HETATM   24  C   UNL     1      18.907  50.625  50.157  1.00  0.00     0.018 A 
HETATM   25  C   UNL     1      17.704  51.325  50.002  1.00  0.00     0.037 A 
HETATM   26  C   UNL     1      17.585  52.349  49.060  1.00  0.00     0.068 A 
HETATM   27  C   UNL     1      18.680  52.663  48.260  1.00  0.00     0.037 A 
HETATM   28  C   UNL     1      19.880  51.957  48.408  1.00  0.00     0.018 A 
BRANCH  26  29
HETATM   29  O   UNL     1      16.363  52.959  49.021  1.00  0.00    -0.356 OA
HETATM   30  C   UNL     1      15.368  52.456  49.905  1.00  0.00     0.210 C 
ENDBRANCH  26  29
ENDBRANCH   3  23
TORSDOF 9
ENDMDL
MODEL 2
REMARK VINA RESULT:      -7.5      3.166      9.437
REMARK  9 active torsions:
REMARK  status: ('A' for Active; 'I' for Inactive)
REMARK    1  A    between atoms: C_2  and  N_3 
REMARK       I    between atoms: N_3  and  C_4 
REMARK    2  A    between atoms: C_4  and  C_5 
REMARK    3  A    between atoms: C_5  and  S_6 
REMARK    4  A    between atoms: S_6  and  C_7 
REMARK    5  A    between atoms: N_8  and  C_9 
REMARK    6  A    between atoms: C_9  and  C_10 
REMARK    7  A    between atoms: C_10  and  C_11 
REMARK    8  A    between atoms: C_17  and  C_18 
REMARK    9  A    between atoms: C_21  and  O_22 
ROOT
HETATM    1  C   UNL     1      24.388  44.483  50.231  1.00  0.00     0.192 A 
HETATM    2  N   UNL     1      25.546  45.004  50.749  1.00  0.00    -0.307 N 
HETATM    3  C   UNL     1      25.610  44.534  52.049  1.00  0.00     0.164 A 
HETATM    4  N   UNL     1      24.517  43.822  52.281  1.00  0.00    -0.128 NA
HETATM    5  N   UNL     1      23.745  43.817  51.158  1.00  0.00    -0.122 NA
ENDROOT
BRANCH   1   6
HETATM    6  S   UNL     1      23.880  44.659  48.588  1.00  0.00    -0.081 SA
BRANCH   6   7
HETATM    7  C   UNL     1      22.114  45.030  48.798  1.00  0.00     0.185 C 
BRANCH   7   8
HETATM    8  C   UNL     1      21.742  46.340  48.123  1.00  0.00     0.227 C 
HETATM    9  N   UNL     1      20.943  47.168  48.884  1.00  0.00    -0.357 N 
HETATM   10  H   UNL     1      20.415  46.720  49.636  1.00  0.00     0.162 HD
HETATM   11  O   UNL     1      22.145  46.635  47.000  1.00  0.00    -0.273 OA
BRANCH   9  12
HETATM   12  C   UNL     1      20.424  48.429  48.378  1.00  0.00     0.076 C 
HETATM   13  C   UNL     1      20.361  49.452  49.508  1.00  0.00     0.032 C 
HETATM   14  C   UNL     1      19.047  48.240  47.745  1.00  0.00     0.032 C 
ENDBRANCH   9  12
ENDBRANCH   7   8
ENDBRANCH   6   7
ENDBRANCH   1   6
BRANCH   2  15
HETATM   15  C   UNL     1      26.511  45.829  50.047  1.00  0.00     0.137 C 
BRANCH  15  16
HETATM   16  C   UNL     1      26.503  47.272  50.565  1.00  0.00     0.059 C 
BRANCH  16  17
HETATM   17  C   UNL     1      25.928  48.260  49.580  1.00  0.00    -0.057 A 
HETATM   18  C   UNL     1      24.542  48.370  49.397  1.00  0.00     0.007 A 
HETATM   19  C   UNL     1      24.017  49.310  48.508  1.00  0.00     0.001 A 
HETATM   20  C   UNL     1      24.869  50.156  47.801  1.00  0.00     0.000 A 
HETATM   21  C   UNL     1      26.247  50.063  47.982  1.00  0.00     0.001 A 
HETATM   22  C   UNL     1      26.775  49.121  48.867  1.00  0.00     0.007 A 
ENDBRANCH  16  17
ENDBRANCH  15  16
ENDBRANCH   2  15
BRANCH   3  23
HETATM   23  C   UNL     1      26.699  44.686  53.017  1.00  0.00     0.012 A 
HETATM   24  C   UNL     1      27.844  43.885  53.019  1.00  0.00     0.018 A 
HETATM   25  C   UNL     1      28.859  44.102  53.960  1.00  0.00     0.037 A 
HETATM   26  C   UNL     1      28.762  45.134  54.895  1.00  0.00     0.068 A 
HETATM   27  C   UNL     1      27.632  45.948  54.892  1.00  0.00     0.037 A 
HETATM   28  C   UNL     1      26.613  45.725  53.958  1.00  0.00     0.018 A 
BRANCH  26  29
HETATM   29  O   UNL     1      29.827  45.245  55.745  1.00  0.00    -0.356 OA
HETATM   30  C   UNL     1      29.588  45.893  56.989  1.00  0.00     0.210 C 
ENDBRANCH  26  29
ENDBRANCH   3  23
TORSDOF 9
ENDMDL
MODEL 3
REMARK VINA RESULT:      -7.5     11.564     14.957
REMARK  9 active torsions:
REMARK  status: ('A' for Active; 'I' for Inactive)
REMARK    1  A    between atoms: C_2  and  N_3 
REMARK       I    between atoms: N_3  and  C_4 
REMARK    2  A    between atoms: C_4  and  C_5 
REMARK    3  A    between atoms: C_5  and  S_6 
REMARK    4  A    between atoms: S_6  and  C_7 
REMARK    5  A    between atoms: N_8  and  C_9 
REMARK    6  A    between atoms: C_9  and  C_10 
REMARK    7  A    between atoms: C_10  and  C_11 
REMARK    8  A    between atoms: C_17  and  C_18 
REMARK    9  A    between atoms: C_21  and  O_22 
ROOT
HETATM    1  C   UNL     1      27.383  49.274  38.225  1.00  0.00     0.192 A 
HETATM    2  N   UNL     1      28.705  49.326  38.585  1.00  0.00    -0.307 N 
HETATM    3  C   UNL     1      29.064  50.658  38.473  1.00  0.00     0.164 A 
HETATM    4  N   UNL     1      28.015  51.328  38.021  1.00  0.00    -0.128 NA
HETATM    5  N   UNL     1      26.979  50.459  37.839  1.00  0.00    -0.122 NA
ENDROOT
BRANCH   1   6
HETATM    6  S   UNL     1      26.397  47.856  38.303  1.00  0.00    -0.081 SA
BRANCH   6   7
HETATM    7  C   UNL     1      25.254  48.289  39.647  1.00  0.00     0.185 C 
BRANCH   7   8
HETATM    8  C   UNL     1      23.975  48.904  39.106  1.00  0.00     0.227 C 
HETATM    9  N   UNL     1      23.150  49.447  40.070  1.00  0.00    -0.357 N 
HETATM   10  H   UNL     1      23.284  49.106  41.024  1.00  0.00     0.162 HD
HETATM   11  O   UNL     1      23.717  48.928  37.904  1.00  0.00    -0.273 OA
BRANCH   9  12
HETATM   12  C   UNL     1      21.849  50.013  39.752  1.00  0.00     0.076 C 
HETATM   13  C   UNL     1      21.768  51.445  40.271  1.00  0.00     0.032 C 
HETATM   14  C   UNL     1      20.724  49.163  40.339  1.00  0.00     0.032 C 
ENDBRANCH   9  12
ENDBRANCH   7   8
ENDBRANCH   6   7
ENDBRANCH   1   6
BRANCH   2  15
HETATM   15  C   UNL     1      29.522  48.214  39.034  1.00  0.00     0.137 C 
BRANCH  15  16
HETATM   16  C   UNL     1      29.516  48.088  40.562  1.00  0.00     0.059 C 
BRANCH  16  17
HETATM   17  C   UNL     1      30.728  48.700  41.219  1.00  0.00    -0.057 A 
HETATM   18  C   UNL     1      32.014  48.477  40.707  1.00  0.00     0.007 A 
HETATM   19  C   UNL     1      33.128  49.074  41.302  1.00  0.00     0.001 A 
HETATM   20  C   UNL     1      32.967  49.907  42.407  1.00  0.00     0.000 A 
HETATM   21  C   UNL     1      31.693  50.144  42.919  1.00  0.00     0.001 A 
HETATM   22  C   UNL     1      30.579  49.545  42.328  1.00  0.00     0.007 A 
ENDBRANCH  16  17
ENDBRANCH  15  16
ENDBRANCH   2  15
BRANCH   3  23
HETATM   23  C   UNL     1      30.329  51.292  38.851  1.00  0.00     0.012 A 
HETATM   24  C   UNL     1      30.455  52.179  39.924  1.00  0.00     0.018 A 
HETATM   25  C   UNL     1      31.702  52.730  40.244  1.00  0.00     0.037 A 
HETATM   26  C   UNL     1      32.846  52.389  39.520  1.00  0.00     0.068 A 
HETATM   27  C   UNL     1      32.734  51.495  38.459  1.00  0.00     0.037 A 
HETATM   28  C   UNL     1      31.486  50.950  38.132  1.00  0.00     0.018 A 
BRANCH  26  29
HETATM   29  O   UNL     1      33.999  52.987  39.946  1.00  0.00    -0.356 OA
HETATM   30  C   UNL     1      35.181  52.197  39.910  1.00  0.00     0.210 C 
ENDBRANCH  26  29
ENDBRANCH   3  23
TORSDOF 9
ENDMDL
MODEL 4
REMARK VINA RESULT:      -7.5      2.101      4.067
REMARK  9 active torsions:
REMARK  status: ('A' for Active; 'I' for Inactive)
REMARK    1  A    between atoms: C_2  and  N_3 
REMARK       I    between atoms: N_3  and  C_4 
REMARK    2  A    between atoms: C_4  and  C_5 
REMARK    3  A    between atoms: C_5  and  S_6 
REMARK    4  A    between atoms: S_6  and  C_7 
REMARK    5  A    between atoms: N_8  and  C_9 
REMARK    6  A    between atoms: C_9  and  C_10 
REMARK    7  A    between atoms: C_10  and  C_11 
REMARK    8  A    between atoms: C_17  and  C_18 
REMARK    9  A    between atoms: C_21  and  O_22 
ROOT
HETATM    1  C   UNL     1      22.377  45.339  48.732  1.00  0.00     0.192 A 
HETATM    2  N   UNL     1      21.681  46.448  48.322  1.00  0.00    -0.307 N 
HETATM    3  C   UNL     1      20.345  46.104  48.430  1.00  0.00     0.164 A 
HETATM    4  N   UNL     1      20.279  44.844  48.832  1.00  0.00    -0.128 NA
HETATM    5  N   UNL     1      21.545  44.362  48.991  1.00  0.00    -0.122 NA
ENDROOT
BRANCH   1   6
HETATM    6  S   UNL     1      24.095  45.266  48.909  1.00  0.00    -0.081 SA
BRANCH   6   7
HETATM    7  C   UNL     1      24.299  45.787  50.637  1.00  0.00     0.185 C 
BRANCH   7   8
HETATM    8  C   UNL     1      25.119  47.062  50.735  1.00  0.00     0.227 C 
HETATM    9  N   UNL     1      25.497  47.593  49.520  1.00  0.00    -0.357 N 
HETATM   10  H   UNL     1      25.501  46.949  48.726  1.00  0.00     0.162 HD
HETATM   11  O   UNL     1      25.396  47.580  51.815  1.00  0.00    -0.273 OA
BRANCH   9  12
HETATM   12  C   UNL     1      26.348  48.768  49.414  1.00  0.00     0.076 C 
HETATM   13  C   UNL     1      25.782  49.723  48.367  1.00  0.00     0.032 C 
HETATM   14  C   UNL     1      27.783  48.377  49.067  1.00  0.00     0.032 C 
ENDBRANCH   9  12
ENDBRANCH   7   8
ENDBRANCH   6   7
ENDBRANCH   1   6
BRANCH   2  15
HETATM   15  C   UNL     1      22.248  47.720  47.913  1.00  0.00     0.137 C 
BRANCH  15  16
HETATM   16  C   UNL     1      22.239  48.738  49.059  1.00  0.00     0.059 C 
BRANCH  16  17
HETATM   17  C   UNL     1      21.197  49.816  48.896  1.00  0.00    -0.057 A 
HETATM   18  C   UNL     1      20.723  50.533  50.004  1.00  0.00     0.007 A 
HETATM   19  C   UNL     1      19.783  51.553  49.840  1.00  0.00     0.001 A 
HETATM   20  C   UNL     1      19.315  51.873  48.568  1.00  0.00     0.000 A 
HETATM   21  C   UNL     1      19.785  51.175  47.459  1.00  0.00     0.001 A 
HETATM   22  C   UNL     1      20.722  50.152  47.620  1.00  0.00     0.007 A 
ENDBRANCH  16  17
ENDBRANCH  15  16
ENDBRANCH   2  15
BRANCH   3  23
HETATM   23  C   UNL     1      19.170  46.955  48.234  1.00  0.00     0.012 A 
HETATM   24  C   UNL     1      18.508  47.606  49.280  1.00  0.00     0.018 A 
HETATM   25  C   UNL     1      17.403  48.425  49.018  1.00  0.00     0.037 A 
HETATM   26  C   UNL     1      16.956  48.632  47.711  1.00  0.00     0.068 A 
HETATM   27  C   UNL     1      17.618  48.001  46.661  1.00  0.00     0.037 A 
HETATM   28  C   UNL     1      18.717  47.174  46.923  1.00  0.00     0.018 A 
BRANCH  26  29
HETATM   29  O   UNL     1      15.879  49.465  47.595  1.00  0.00    -0.356 OA
HETATM   30  C   UNL     1      15.889  50.642  48.394  1.00  0.00     0.210 C 
ENDBRANCH  26  29
ENDBRANCH   3  23
TORSDOF 9
ENDMDL
MODEL 5
REMARK VINA RESULT:      -7.4      7.087     11.076
REMARK  9 active torsions:
REMARK  status: ('A' for Active; 'I' for Inactive)
REMARK    1  A    between atoms: C_2  and  N_3 
REMARK       I    between atoms: N_3  and  C_4 
REMARK    2  A    between atoms: C_4  and  C_5 
REMARK    3  A    between atoms: C_5  and  S_6 
REMARK    4  A    between atoms: S_6  and  C_7 
REMARK    5  A    between atoms: N_8  and  C_9 
REMARK    6  A    between atoms: C_9  and  C_10 
REMARK    7  A    between atoms: C_10  and  C_11 
REMARK    8  A    between atoms: C_17  and  C_18 
REMARK    9  A    between atoms: C_21  and  O_22 
ROOT
HETATM    1  C   UNL     1      27.731  41.770  51.406  1.00  0.00     0.192 A 
HETATM    2  N   UNL     1      27.915  42.975  52.035  1.00  0.00    -0.307 N 
HETATM    3  C   UNL     1      28.516  42.670  53.243  1.00  0.00     0.164 A 
HETATM    4  N   UNL     1      28.622  41.353  53.326  1.00  0.00    -0.128 NA
HETATM    5  N   UNL     1      28.106  40.794  52.194  1.00  0.00    -0.122 NA
ENDROOT
BRANCH   1   6
HETATM    6  S   UNL     1      27.122  41.583  49.798  1.00  0.00    -0.081 SA
BRANCH   6   7
HETATM    7  C   UNL     1      26.213  40.017  49.941  1.00  0.00     0.185 C 
BRANCH   7   8
HETATM    8  C   UNL     1      27.067  38.841  49.496  1.00  0.00     0.227 C 
HETATM    9  N   UNL     1      28.199  38.636  50.258  1.00  0.00    -0.357 N 
HETATM   10  H   UNL     1      28.532  39.438  50.796  1.00  0.00     0.162 HD
HETATM   11  O   UNL     1      26.753  38.127  48.546  1.00  0.00    -0.273 OA
BRANCH   9  12
HETATM   12  C   UNL     1      29.176  37.608  49.939  1.00  0.00     0.076 C 
HETATM   13  C   UNL     1      29.735  37.010  51.227  1.00  0.00     0.032 C 
HETATM   14  C   UNL     1      30.301  38.170  49.073  1.00  0.00     0.032 C 
ENDBRANCH   9  12
ENDBRANCH   7   8
ENDBRANCH   6   7
ENDBRANCH   1   6
BRANCH   2  15
HETATM   15  C   UNL     1      27.588  44.285  51.503  1.00  0.00     0.137 C 
BRANCH  15  16
HETATM   16  C   UNL     1      26.131  44.665  51.792  1.00  0.00     0.059 C 
BRANCH  16  17
HETATM   17  C   UNL     1      25.621  45.791  50.927  1.00  0.00    -0.057 A 
HETATM   18  C   UNL     1      24.348  45.731  50.343  1.00  0.00     0.007 A 
HETATM   19  C   UNL     1      23.871  46.792  49.571  1.00  0.00     0.001 A 
HETATM   20  C   UNL     1      24.656  47.928  49.384  1.00  0.00     0.000 A 
HETATM   21  C   UNL     1      25.918  48.004  49.967  1.00  0.00     0.001 A 
HETATM   22  C   UNL     1      26.399  46.942  50.735  1.00  0.00     0.007 A 
ENDBRANCH  16  17
ENDBRANCH  15  16
ENDBRANCH   2  15
BRANCH   3  23
HETATM   23  C   UNL     1      29.041  43.591  54.254  1.00  0.00     0.012 A 
HETATM   24  C   UNL     1      28.319  44.678  54.753  1.00  0.00     0.018 A 
HETATM   25  C   UNL     1      28.873  45.505  55.738  1.00  0.00     0.037 A 
HETATM   26  C   UNL     1      30.142  45.248  56.260  1.00  0.00     0.068 A 
HETATM   27  C   UNL     1      30.864  44.158  55.780  1.00  0.00     0.037 A 
HETATM   28  C   UNL     1      30.314  43.337  54.789  1.00  0.00     0.018 A 
BRANCH  26  29
HETATM   29  O   UNL     1      30.558  46.122  57.225  1.00  0.00    -0.356 OA
HETATM   30  C   UNL     1      30.413  45.702  58.576  1.00  0.00     0.210 C 
ENDBRANCH  26  29
ENDBRANCH   3  23
TORSDOF 9
ENDMDL
MODEL 6
REMARK VINA RESULT:      -7.3      1.528      3.449
REMARK  9 active torsions:
REMARK  status: ('A' for Active; 'I' for Inactive)
REMARK    1  A    between atoms: C_2  and  N_3 
REMARK       I    between atoms: N_3  and  C_4 
REMARK    2  A    between atoms: C_4  and  C_5 
REMARK    3  A    between atoms: C_5  and  S_6 
REMARK    4  A    between atoms: S_6  and  C_7 
REMARK    5  A    between atoms: N_8  and  C_9 
REMARK    6  A    between atoms: C_9  and  C_10 
REMARK    7  A    between atoms: C_10  and  C_11 
REMARK    8  A    between atoms: C_17  and  C_18 
REMARK    9  A    between atoms: C_21  and  O_22 
ROOT
HETATM    1  C   UNL     1      23.014  47.482  48.967  1.00  0.00     0.192 A 
HETATM    2  N   UNL     1      22.024  48.361  48.608  1.00  0.00    -0.307 N 
HETATM    3  C   UNL     1      20.929  47.575  48.298  1.00  0.00     0.164 A 
HETATM    4  N   UNL     1      21.289  46.306  48.422  1.00  0.00    -0.128 NA
HETATM    5  N   UNL     1      22.595  46.251  48.810  1.00  0.00    -0.122 NA
ENDROOT
BRANCH   1   6
HETATM    6  S   UNL     1      24.568  47.943  49.568  1.00  0.00    -0.081 SA
BRANCH   6   7
HETATM    7  C   UNL     1      25.176  46.366  50.234  1.00  0.00     0.185 C 
BRANCH   7   8
HETATM    8  C   UNL     1      25.488  46.478  51.717  1.00  0.00     0.227 C 
HETATM    9  N   UNL     1      26.106  45.369  52.256  1.00  0.00    -0.357 N 
HETATM   10  H   UNL     1      25.994  44.493  51.741  1.00  0.00     0.162 HD
HETATM   11  O   UNL     1      25.225  47.488  52.367  1.00  0.00    -0.273 OA
BRANCH   9  12
HETATM   12  C   UNL     1      26.414  45.261  53.673  1.00  0.00     0.076 C 
HETATM   13  C   UNL     1      27.799  44.648  53.855  1.00  0.00     0.032 C 
HETATM   14  C   UNL     1      25.358  44.431  54.402  1.00  0.00     0.032 C 
ENDBRANCH   9  12
ENDBRANCH   7   8
ENDBRANCH   6   7
ENDBRANCH   1   6
BRANCH   2  15
HETATM   15  C   UNL     1      22.114  49.810  48.610  1.00  0.00     0.137 C 
BRANCH  15  16
HETATM   16  C   UNL     1      21.426  50.417  49.838  1.00  0.00     0.059 C 
BRANCH  16  17
HETATM   17  C   UNL     1      20.126  51.113  49.515  1.00  0.00    -0.057 A 
HETATM   18  C   UNL     1      20.033  51.996  48.430  1.00  0.00     0.007 A 
HETATM   19  C   UNL     1      18.817  52.609  48.118  1.00  0.00     0.001 A 
HETATM   20  C   UNL     1      17.683  52.339  48.879  1.00  0.00     0.000 A 
HETATM   21  C   UNL     1      17.761  51.457  49.954  1.00  0.00     0.001 A 
HETATM   22  C   UNL     1      18.976  50.845  50.270  1.00  0.00     0.007 A 
ENDBRANCH  16  17
ENDBRANCH  15  16
ENDBRANCH   2  15
BRANCH   3  23
HETATM   23  C   UNL     1      19.568  48.002  47.968  1.00  0.00     0.012 A 
HETATM   24  C   UNL     1      19.245  48.716  46.811  1.00  0.00     0.018 A 
HETATM   25  C   UNL     1      17.917  49.073  46.546  1.00  0.00     0.037 A 
HETATM   26  C   UNL     1      16.887  48.703  47.413  1.00  0.00     0.068 A 
HETATM   27  C   UNL     1      17.196  47.979  48.561  1.00  0.00     0.037 A 
HETATM   28  C   UNL     1      18.525  47.630  48.832  1.00  0.00     0.018 A 
BRANCH  26  29
HETATM   29  O   UNL     1      15.638  49.102  47.029  1.00  0.00    -0.356 OA
HETATM   30  C   UNL     1      15.495  50.457  46.622  1.00  0.00     0.210 C 
ENDBRANCH  26  29
ENDBRANCH   3  23
TORSDOF 9
ENDMDL
MODEL 7
REMARK VINA RESULT:      -7.2     11.682     14.531
REMARK  9 active torsions:
REMARK  status: ('A' for Active; 'I' for Inactive)
REMARK    1  A    between atoms: C_2  and  N_3 
REMARK       I    between atoms: N_3  and  C_4 
REMARK    2  A    between atoms: C_4  and  C_5 
REMARK    3  A    between atoms: C_5  and  S_6 
REMARK    4  A    between atoms: S_6  and  C_7 
REMARK    5  A    between atoms: N_8  and  C_9 
REMARK    6  A    between atoms: C_9  and  C_10 
REMARK    7  A    between atoms: C_10  and  C_11 
REMARK    8  A    between atoms: C_17  and  C_18 
REMARK    9  A    between atoms: C_21  and  O_22 
ROOT
HETATM    1  C   UNL     1      27.258  49.602  38.172  1.00  0.00     0.192 A 
HETATM    2  N   UNL     1      28.591  49.522  38.485  1.00  0.00    -0.307 N 
HETATM    3  C   UNL     1      29.050  50.827  38.475  1.00  0.00     0.164 A 
HETATM    4  N   UNL     1      28.043  51.611  38.122  1.00  0.00    -0.128 NA
HETATM    5  N   UNL     1      26.937  50.843  37.906  1.00  0.00    -0.122 NA
ENDROOT
BRANCH   1   6
HETATM    6  S   UNL     1      26.167  48.261  38.166  1.00  0.00    -0.081 SA
BRANCH   6   7
HETATM    7  C   UNL     1      25.492  48.341  39.850  1.00  0.00     0.185 C 
BRANCH   7   8
HETATM    8  C   UNL     1      25.390  46.958  40.470  1.00  0.00     0.227 C 
HETATM    9  N   UNL     1      26.244  46.022  39.923  1.00  0.00    -0.357 N 
HETATM   10  H   UNL     1      26.596  46.225  38.985  1.00  0.00     0.162 HD
HETATM   11  O   UNL     1      24.620  46.711  41.396  1.00  0.00    -0.273 OA
BRANCH   9  12
HETATM   12  C   UNL     1      26.237  44.628  40.334  1.00  0.00     0.076 C 
HETATM   13  C   UNL     1      27.668  44.103  40.403  1.00  0.00     0.032 C 
HETATM   14  C   UNL     1      25.398  43.779  39.381  1.00  0.00     0.032 C 
ENDBRANCH   9  12
ENDBRANCH   7   8
ENDBRANCH   6   7
ENDBRANCH   1   6
BRANCH   2  15
HETATM   15  C   UNL     1      29.331  48.315  38.805  1.00  0.00     0.137 C 
BRANCH  15  16
HETATM   16  C   UNL     1      29.320  48.027  40.311  1.00  0.00     0.059 C 
BRANCH  16  17
HETATM   17  C   UNL     1      30.522  48.578  41.037  1.00  0.00    -0.057 A 
HETATM   18  C   UNL     1      31.821  48.311  40.582  1.00  0.00     0.007 A 
HETATM   19  C   UNL     1      32.928  48.853  41.241  1.00  0.00     0.001 A 
HETATM   20  C   UNL     1      32.746  49.673  42.352  1.00  0.00     0.000 A 
HETATM   21  C   UNL     1      31.460  49.953  42.806  1.00  0.00     0.001 A 
HETATM   22  C   UNL     1      30.353  49.410  42.152  1.00  0.00     0.007 A 
ENDBRANCH  16  17
ENDBRANCH  15  16
ENDBRANCH   2  15
BRANCH   3  23
HETATM   23  C   UNL     1      30.372  51.327  38.856  1.00  0.00     0.012 A 
HETATM   24  C   UNL     1      31.546  51.000  38.171  1.00  0.00     0.018 A 
HETATM   25  C   UNL     1      32.775  51.535  38.577  1.00  0.00     0.037 A 
HETATM   26  C   UNL     1      32.852  52.423  39.652  1.00  0.00     0.068 A 
HETATM   27  C   UNL     1      31.687  52.767  40.332  1.00  0.00     0.037 A 
HETATM   28  C   UNL     1      30.459  52.225  39.933  1.00  0.00     0.018 A 
BRANCH  26  29
HETATM   29  O   UNL     1      34.109  52.880  39.934  1.00  0.00    -0.356 OA
HETATM   30  C   UNL     1      35.071  51.909  40.329  1.00  0.00     0.210 C 
ENDBRANCH  26  29
ENDBRANCH   3  23
TORSDOF 9
ENDMDL
MODEL 8
REMARK VINA RESULT:      -7.1     12.931     15.201
REMARK  9 active torsions:
REMARK  status: ('A' for Active; 'I' for Inactive)
REMARK    1  A    between atoms: C_2  and  N_3 
REMARK       I    between atoms: N_3  and  C_4 
REMARK    2  A    between atoms: C_4  and  C_5 
REMARK    3  A    between atoms: C_5  and  S_6 
REMARK    4  A    between atoms: S_6  and  C_7 
REMARK    5  A    between atoms: N_8  and  C_9 
REMARK    6  A    between atoms: C_9  and  C_10 
REMARK    7  A    between atoms: C_10  and  C_11 
REMARK    8  A    between atoms: C_17  and  C_18 
REMARK    9  A    between atoms: C_21  and  O_22 
ROOT
HETATM    1  C   UNL     1      35.012  51.833  41.421  1.00  0.00     0.192 A 
HETATM    2  N   UNL     1      33.714  51.392  41.391  1.00  0.00    -0.307 N 
HETATM    3  C   UNL     1      33.133  52.033  40.310  1.00  0.00     0.164 A 
HETATM    4  N   UNL     1      34.039  52.840  39.779  1.00  0.00    -0.128 NA
HETATM    5  N   UNL     1      35.198  52.736  40.490  1.00  0.00    -0.122 NA
ENDROOT
BRANCH   1   6
HETATM    6  S   UNL     1      36.224  51.252  42.509  1.00  0.00    -0.081 SA
BRANCH   6   7
HETATM    7  C   UNL     1      36.040  52.408  43.898  1.00  0.00     0.185 C 
BRANCH   7   8
HETATM    8  C   UNL     1      37.310  52.478  44.729  1.00  0.00     0.227 C 
HETATM    9  N   UNL     1      37.489  53.670  45.401  1.00  0.00    -0.357 N 
HETATM   10  H   UNL     1      36.977  54.476  45.036  1.00  0.00     0.162 HD
HETATM   11  O   UNL     1      38.096  51.535  44.804  1.00  0.00    -0.273 OA
BRANCH   9  12
HETATM   12  C   UNL     1      38.681  53.950  46.185  1.00  0.00     0.076 C 
HETATM   13  C   UNL     1      38.398  53.697  47.663  1.00  0.00     0.032 C 
HETATM   14  C   UNL     1      39.156  55.385  45.966  1.00  0.00     0.032 C 
ENDBRANCH   9  12
ENDBRANCH   7   8
ENDBRANCH   6   7
ENDBRANCH   1   6
BRANCH   2  15
HETATM   15  C   UNL     1      33.112  50.420  42.284  1.00  0.00     0.137 C 
BRANCH  15  16
HETATM   16  C   UNL     1      32.980  49.046  41.618  1.00  0.00     0.059 C 
BRANCH  16  17
HETATM   17  C   UNL     1      31.554  48.660  41.312  1.00  0.00    -0.057 A 
HETATM   18  C   UNL     1      31.245  47.874  40.193  1.00  0.00     0.007 A 
HETATM   19  C   UNL     1      29.926  47.494  39.936  1.00  0.00     0.001 A 
HETATM   20  C   UNL     1      28.905  47.887  40.799  1.00  0.00     0.000 A 
HETATM   21  C   UNL     1      29.201  48.660  41.919  1.00  0.00     0.001 A 
HETATM   22  C   UNL     1      30.518  49.045  42.175  1.00  0.00     0.007 A 
ENDBRANCH  16  17
ENDBRANCH  15  16
ENDBRANCH   2  15
BRANCH   3  23
HETATM   23  C   UNL     1      31.795  51.836  39.750  1.00  0.00     0.012 A 
HETATM   24  C   UNL     1      30.630  52.318  40.353  1.00  0.00     0.018 A 
HETATM   25  C   UNL     1      29.383  52.114  39.748  1.00  0.00     0.037 A 
HETATM   26  C   UNL     1      29.278  51.452  38.524  1.00  0.00     0.068 A 
HETATM   27  C   UNL     1      30.434  50.981  37.907  1.00  0.00     0.037 A 
HETATM   28  C   UNL     1      31.680  51.176  38.516  1.00  0.00     0.018 A 
BRANCH  26  29
HETATM   29  O   UNL     1      28.006  51.333  38.039  1.00  0.00    -0.356 OA
HETATM   30  C   UNL     1      27.341  50.099  38.280  1.00  0.00     0.210 C 
ENDBRANCH  26  29
ENDBRANCH   3  23
TORSDOF 9
ENDMDL
MODEL 9
REMARK VINA RESULT:      -7.1      7.797     10.509
REMARK  9 active torsions:
REMARK  status: ('A' for Active; 'I' for Inactive)
REMARK    1  A    between atoms: C_2  and  N_3 
REMARK       I    between atoms: N_3  and  C_4 
REMARK    2  A    between atoms: C_4  and  C_5 
REMARK    3  A    between atoms: C_5  and  S_6 
REMARK    4  A    between atoms: S_6  and  C_7 
REMARK    5  A    between atoms: N_8  and  C_9 
REMARK    6  A    between atoms: C_9  and  C_10 
REMARK    7  A    between atoms: C_10  and  C_11 
REMARK    8  A    between atoms: C_17  and  C_18 
REMARK    9  A    between atoms: C_21  and  O_22 
ROOT
HETATM    1  C   UNL     1      24.324  43.633  49.679  1.00  0.00     0.192 A 
HETATM    2  N   UNL     1      25.444  44.067  50.342  1.00  0.00    -0.307 N 
HETATM    3  C   UNL     1      24.984  44.581  51.542  1.00  0.00     0.164 A 
HETATM    4  N   UNL     1      23.662  44.495  51.543  1.00  0.00    -0.128 NA
HETATM    5  N   UNL     1      23.253  43.932  50.370  1.00  0.00    -0.122 NA
ENDROOT
BRANCH   1   6
HETATM    6  S   UNL     1      24.340  42.791  48.169  1.00  0.00    -0.081 SA
BRANCH   6   7
HETATM    7  C   UNL     1      24.214  41.065  48.722  1.00  0.00     0.185 C 
BRANCH   7   8
HETATM    8  C   UNL     1      25.355  40.225  48.172  1.00  0.00     0.227 C 
HETATM    9  N   UNL     1      25.922  39.363  49.088  1.00  0.00    -0.357 N 
HETATM   10  H   UNL     1      25.779  39.592  50.073  1.00  0.00     0.162 HD
HETATM   11  O   UNL     1      25.719  40.303  47.001  1.00  0.00    -0.273 OA
BRANCH   9  12
HETATM   12  C   UNL     1      27.073  38.534  48.767  1.00  0.00     0.076 C 
HETATM   13  C   UNL     1      26.819  37.100  49.218  1.00  0.00     0.032 C 
HETATM   14  C   UNL     1      28.343  39.085  49.414  1.00  0.00     0.032 C 
ENDBRANCH   9  12
ENDBRANCH   7   8
ENDBRANCH   6   7
ENDBRANCH   1   6
BRANCH   2  15
HETATM   15  C   UNL     1      26.816  43.953  49.885  1.00  0.00     0.137 C 
BRANCH  15  16
HETATM   16  C   UNL     1      27.390  42.558  50.160  1.00  0.00     0.059 C 
BRANCH  16  17
HETATM   17  C   UNL     1      28.084  42.447  51.495  1.00  0.00    -0.057 A 
HETATM   18  C   UNL     1      28.953  43.454  51.940  1.00  0.00     0.007 A 
HETATM   19  C   UNL     1      29.565  43.359  53.192  1.00  0.00     0.001 A 
HETATM   20  C   UNL     1      29.307  42.265  54.015  1.00  0.00     0.000 A 
HETATM   21  C   UNL     1      28.438  41.264  53.588  1.00  0.00     0.001 A 
HETATM   22  C   UNL     1      27.828  41.354  52.335  1.00  0.00     0.007 A 
ENDBRANCH  16  17
ENDBRANCH  15  16
ENDBRANCH   2  15
BRANCH   3  23
HETATM   23  C   UNL     1      25.765  45.068  52.680  1.00  0.00     0.012 A 
HETATM   24  C   UNL     1      26.310  46.354  52.746  1.00  0.00     0.018 A 
HETATM   25  C   UNL     1      27.027  46.762  53.877  1.00  0.00     0.037 A 
HETATM   26  C   UNL     1      27.192  45.909  54.970  1.00  0.00     0.068 A 
HETATM   27  C   UNL     1      26.641  44.631  54.920  1.00  0.00     0.037 A 
HETATM   28  C   UNL     1      25.931  44.219  53.786  1.00  0.00     0.018 A 
BRANCH  26  29
HETATM   29  O   UNL     1      27.900  46.437  56.013  1.00  0.00    -0.356 OA
HETATM   30  C   UNL     1      29.122  45.792  56.349  1.00  0.00     0.210 C 
ENDBRANCH  26  29
ENDBRANCH   3  23
TORSDOF 9
ENDMDL
MODEL 10
REMARK VINA RESULT:      -7.0     13.879     16.521
REMARK  9 active torsions:
REMARK  status: ('A' for Active; 'I' for Inactive)
REMARK    1  A    between atoms: C_2  and  N_3 
REMARK       I    between atoms: N_3  and  C_4 
REMARK    2  A    between atoms: C_4  and  C_5 
REMARK    3  A    between atoms: C_5  and  S_6 
REMARK    4  A    between atoms: S_6  and  C_7 
REMARK    5  A    between atoms: N_8  and  C_9 
REMARK    6  A    between atoms: C_9  and  C_10 
REMARK    7  A    between atoms: C_10  and  C_11 
REMARK    8  A    between atoms: C_17  and  C_18 
REMARK    9  A    between atoms: C_21  and  O_22 
ROOT
HETATM    1  C   UNL     1      36.321  53.062  39.289  1.00  0.00     0.192 A 
HETATM    2  N   UNL     1      35.338  52.153  39.592  1.00  0.00    -0.307 N 
HETATM    3  C   UNL     1      34.144  52.821  39.384  1.00  0.00     0.164 A 
HETATM    4  N   UNL     1      34.429  54.066  39.031  1.00  0.00    -0.128 NA
HETATM    5  N   UNL     1      35.783  54.221  39.002  1.00  0.00    -0.122 NA
ENDROOT
BRANCH   1   6
HETATM    6  S   UNL     1      38.013  52.708  39.264  1.00  0.00    -0.081 SA
BRANCH   6   7
HETATM    7  C   UNL     1      38.621  53.774  40.604  1.00  0.00     0.185 C 
BRANCH   7   8
HETATM    8  C   UNL     1      38.434  53.115  41.960  1.00  0.00     0.227 C 
HETATM    9  N   UNL     1      37.713  53.866  42.865  1.00  0.00    -0.357 N 
HETATM   10  H   UNL     1      37.670  54.871  42.686  1.00  0.00     0.162 HD
HETATM   11  O   UNL     1      38.875  51.995  42.210  1.00  0.00    -0.273 OA
BRANCH   9  12
HETATM   12  C   UNL     1      37.496  53.434  44.237  1.00  0.00     0.076 C 
HETATM   13  C   UNL     1      36.095  52.849  44.378  1.00  0.00     0.032 C 
HETATM   14  C   UNL     1      37.699  54.590  45.214  1.00  0.00     0.032 C 
ENDBRANCH   9  12
ENDBRANCH   7   8
ENDBRANCH   6   7
ENDBRANCH   1   6
BRANCH   2  15
HETATM   15  C   UNL     1      35.534  50.773  39.994  1.00  0.00     0.137 C 
BRANCH  15  16
HETATM   16  C   UNL     1      35.414  50.603  41.512  1.00  0.00     0.059 C 
BRANCH  16  17
HETATM   17  C   UNL     1      34.045  50.155  41.961  1.00  0.00    -0.057 A 
HETATM   18  C   UNL     1      33.331  50.881  42.925  1.00  0.00     0.007 A 
HETATM   19  C   UNL     1      32.050  50.478  43.311  1.00  0.00     0.001 A 
HETATM   20  C   UNL     1      31.468  49.354  42.730  1.00  0.00     0.000 A 
HETATM   21  C   UNL     1      32.164  48.631  41.764  1.00  0.00     0.001 A 
HETATM   22  C   UNL     1      33.446  49.029  41.380  1.00  0.00     0.007 A 
ENDBRANCH  16  17
ENDBRANCH  15  16
ENDBRANCH   2  15
BRANCH   3  23
HETATM   23  C   UNL     1      32.783  52.286  39.442  1.00  0.00     0.012 A 
HETATM   24  C   UNL     1      32.349  51.202  38.674  1.00  0.00     0.018 A 
HETATM   25  C   UNL     1      31.037  50.725  38.798  1.00  0.00     0.037 A 
HETATM   26  C   UNL     1      30.147  51.302  39.705  1.00  0.00     0.068 A 
HETATM   27  C   UNL     1      30.574  52.373  40.486  1.00  0.00     0.037 A 
HETATM   28  C   UNL     1      31.882  52.856  40.356  1.00  0.00     0.018 A 
BRANCH  26  29
HETATM   29  O   UNL     1      28.905  50.733  39.736  1.00  0.00    -0.356 OA
HETATM   30  C   UNL     1      27.908  51.411  40.491  1.00  0.00     0.210 C 
ENDBRANCH  26  29
ENDBRANCH   3  23
TORSDOF 9
ENDMDL
