MODEL 1
REMARK VINA RESULT:     -10.0      0.000      0.000
REMARK  8 active torsions:
REMARK  status: ('A' for Active; 'I' for Inactive)
REMARK    1  A    between atoms: C_4  and  O_5 
REMARK    2  A    between atoms: O_5  and  C_6 
REMARK    3  A    between atoms: C_8  and  C_9 
REMARK    4  A    between atoms: C_9  and  N_10 
REMARK    5  A    between atoms: C_9  and  C_14 
REMARK       I    between atoms: N_10  and  C_11 
REMARK       I    between atoms: C_11  and  N_12 
REMARK    6  A    between atoms: C_14  and  C_15 
REMARK       I    between atoms: C_15  and  N_16 
REMARK    7  A    between atoms: N_16  and  N_17 
REMARK       I    between atoms: N_17  and  C_18 
REMARK    8  A    between atoms: C_18  and  C_19 
ROOT
HETATM    1  C   UNL     1      25.188  46.659  50.732  1.00  0.00     0.127 C 
ENDROOT
BRANCH   1   2
HETATM    2  C   UNL     1      25.506  45.901  52.009  1.00  0.00    -0.032 A 
HETATM    3  C   UNL     1      26.635  46.292  52.751  1.00  0.00     0.046 A 
HETATM    4  C   UNL     1      26.988  45.633  53.930  1.00  0.00     0.076 A 
HETATM    5  C   UNL     1      26.194  44.591  54.408  1.00  0.00     0.037 A 
HETATM    6  C   UNL     1      25.086  44.174  53.670  1.00  0.00     0.003 A 
HETATM    7  C   UNL     1      24.751  44.813  52.473  1.00  0.00     0.009 A 
BRANCH   4   8
HETATM    8  O   UNL     1      28.080  46.128  54.601  1.00  0.00    -0.311 OA
BRANCH   8   9
HETATM    9  C   UNL     1      29.014  45.245  55.093  1.00  0.00     0.076 A 
HETATM   10  C   UNL     1      29.375  44.062  54.445  1.00  0.00     0.037 A 
HETATM   11  C   UNL     1      30.365  43.244  54.995  1.00  0.00     0.003 A 
HETATM   12  C   UNL     1      31.008  43.620  56.175  1.00  0.00     0.000 A 
HETATM   13  C   UNL     1      30.667  44.818  56.805  1.00  0.00     0.003 A 
HETATM   14  C   UNL     1      29.674  45.632  56.260  1.00  0.00     0.037 A 
ENDBRANCH   8   9
ENDBRANCH   4   8
ENDBRANCH   1   2
BRANCH   1  15
HETATM   15  N   UNL     1      26.444  46.928  50.041  1.00  0.00    -0.339 N 
HETATM   16  C   UNL     1      26.662  48.106  49.398  1.00  0.00     0.292 C 
HETATM   17  N   UNL     1      27.861  48.137  48.767  1.00  0.00    -0.254 NA
HETATM   18  O   UNL     1      25.890  49.051  49.373  1.00  0.00    -0.254 OA
HETATM   19  H   UNL     1      28.630  47.680  49.235  1.00  0.00     0.128 HD
HETATM   20  H   UNL     1      28.084  49.047  48.385  1.00  0.00     0.128 HD
HETATM   21  H   UNL     1      26.979  46.135  49.718  1.00  0.00     0.164 HD
ENDBRANCH   1  15
BRANCH   1  22
HETATM   22  C   UNL     1      24.174  46.005  49.785  1.00  0.00     0.134 C 
BRANCH  22  23
HETATM   23  C   UNL     1      23.080  46.907  49.254  1.00  0.00     0.238 C 
HETATM   24  N   UNL     1      23.047  48.202  49.729  1.00  0.00    -0.267 N 
HETATM   25  H   UNL     1      23.416  48.445  50.647  1.00  0.00     0.190 HD
HETATM   26  O   UNL     1      22.315  46.520  48.366  1.00  0.00    -0.272 OA
BRANCH  24  27
HETATM   27  N   UNL     1      21.954  48.990  49.316  1.00  0.00    -0.262 N 
HETATM   28  C   UNL     1      21.976  50.346  49.594  1.00  0.00     0.293 C 
HETATM   29  O   UNL     1      23.007  50.918  49.948  1.00  0.00    -0.264 OA
HETATM   30  H   UNL     1      21.048  48.519  49.274  1.00  0.00     0.190 HD
BRANCH  28  31
HETATM   31  C   UNL     1      20.695  51.000  49.436  1.00  0.00     0.144 A 
HETATM   32  O   UNL     1      19.712  50.789  50.369  1.00  0.00    -0.317 OA
HETATM   33  C   UNL     1      18.625  51.502  49.978  1.00  0.00     0.143 A 
HETATM   34  C   UNL     1      18.888  52.179  48.811  1.00  0.00     0.027 A 
HETATM   35  C   UNL     1      20.221  51.858  48.460  1.00  0.00     0.045 A 
ENDBRANCH  28  31
ENDBRANCH  24  27
ENDBRANCH  22  23
ENDBRANCH   1  22
TORSDOF 8
ENDMDL
MODEL 2
REMARK VINA RESULT:      -9.6      2.281      9.677
REMARK  8 active torsions:
REMARK  status: ('A' for Active; 'I' for Inactive)
REMARK    1  A    between atoms: C_4  and  O_5 
REMARK    2  A    between atoms: O_5  and  C_6 
REMARK    3  A    between atoms: C_8  and  C_9 
REMARK    4  A    between atoms: C_9  and  N_10 
REMARK    5  A    between atoms: C_9  and  C_14 
REMARK       I    between atoms: N_10  and  C_11 
REMARK       I    between atoms: C_11  and  N_12 
REMARK    6  A    between atoms: C_14  and  C_15 
REMARK       I    between atoms: C_15  and  N_16 
REMARK    7  A    between atoms: N_16  and  N_17 
REMARK       I    between atoms: N_17  and  C_18 
REMARK    8  A    between atoms: C_18  and  C_19 
ROOT
HETATM    1  C   UNL     1      25.323  46.638  50.488  1.00  0.00     0.127 C 
ENDROOT
BRANCH   1   2
HETATM    2  C   UNL     1      25.763  47.859  49.701  1.00  0.00    -0.032 A 
HETATM    3  C   UNL     1      24.802  48.534  48.927  1.00  0.00     0.046 A 
HETATM    4  C   UNL     1      25.141  49.659  48.174  1.00  0.00     0.076 A 
HETATM    5  C   UNL     1      26.445  50.152  48.210  1.00  0.00     0.037 A 
HETATM    6  C   UNL     1      27.416  49.479  48.952  1.00  0.00     0.003 A 
HETATM    7  C   UNL     1      27.083  48.333  49.681  1.00  0.00     0.009 A 
BRANCH   4   8
HETATM    8  O   UNL     1      24.114  50.269  47.494  1.00  0.00    -0.311 OA
BRANCH   8   9
HETATM    9  C   UNL     1      22.910  50.451  48.135  1.00  0.00     0.076 A 
HETATM   10  C   UNL     1      22.795  50.928  49.443  1.00  0.00     0.037 A 
HETATM   11  C   UNL     1      21.530  51.124  50.001  1.00  0.00     0.003 A 
HETATM   12  C   UNL     1      20.385  50.867  49.246  1.00  0.00     0.000 A 
HETATM   13  C   UNL     1      20.502  50.420  47.929  1.00  0.00     0.003 A 
HETATM   14  C   UNL     1      21.765  50.218  47.373  1.00  0.00     0.037 A 
ENDBRANCH   8   9
ENDBRANCH   4   8
ENDBRANCH   1   2
BRANCH   1  15
HETATM   15  N   UNL     1      26.217  45.536  50.151  1.00  0.00    -0.339 N 
HETATM   16  C   UNL     1      25.810  44.509  49.359  1.00  0.00     0.292 C 
HETATM   17  N   UNL     1      26.763  43.556  49.216  1.00  0.00    -0.254 NA
HETATM   18  O   UNL     1      24.719  44.422  48.818  1.00  0.00    -0.254 OA
HETATM   19  H   UNL     1      27.719  43.877  49.155  1.00  0.00     0.128 HD
HETATM   20  H   UNL     1      26.516  42.847  48.537  1.00  0.00     0.128 HD
HETATM   21  H   UNL     1      26.976  45.338  50.787  1.00  0.00     0.164 HD
ENDBRANCH   1  15
BRANCH   1  22
HETATM   22  C   UNL     1      25.217  46.807  52.009  1.00  0.00     0.134 C 
BRANCH  22  23
HETATM   23  C   UNL     1      26.020  45.834  52.847  1.00  0.00     0.238 C 
HETATM   24  N   UNL     1      27.070  46.352  53.576  1.00  0.00    -0.267 N 
HETATM   25  H   UNL     1      27.560  47.197  53.284  1.00  0.00     0.190 HD
HETATM   26  O   UNL     1      25.684  44.651  52.940  1.00  0.00    -0.272 OA
BRANCH  24  27
HETATM   27  N   UNL     1      27.878  45.418  54.255  1.00  0.00    -0.262 N 
HETATM   28  C   UNL     1      28.551  45.831  55.393  1.00  0.00     0.293 C 
HETATM   29  O   UNL     1      28.271  46.884  55.965  1.00  0.00    -0.264 OA
HETATM   30  H   UNL     1      28.302  44.686  53.681  1.00  0.00     0.190 HD
BRANCH  28  31
HETATM   31  C   UNL     1      29.594  44.924  55.822  1.00  0.00     0.144 A 
HETATM   32  O   UNL     1      30.273  45.182  56.986  1.00  0.00    -0.317 OA
HETATM   33  C   UNL     1      31.191  44.195  57.144  1.00  0.00     0.143 A 
HETATM   34  C   UNL     1      31.115  43.296  56.106  1.00  0.00     0.027 A 
HETATM   35  C   UNL     1      30.087  43.764  55.254  1.00  0.00     0.045 A 
ENDBRANCH  28  31
ENDBRANCH  24  27
ENDBRANCH  22  23
ENDBRANCH   1  22
TORSDOF 8
ENDMDL
MODEL 3
REMARK VINA RESULT:      -9.2      1.891      2.870
REMARK  8 active torsions:
REMARK  status: ('A' for Active; 'I' for Inactive)
REMARK    1  A    between atoms: C_4  and  O_5 
REMARK    2  A    between atoms: O_5  and  C_6 
REMARK    3  A    between atoms: C_8  and  C_9 
REMARK    4  A    between atoms: C_9  and  N_10 
REMARK    5  A    between atoms: C_9  and  C_14 
REMARK       I    between atoms: N_10  and  C_11 
REMARK       I    between atoms: C_11  and  N_12 
REMARK    6  A    between atoms: C_14  and  C_15 
REMARK       I    between atoms: C_15  and  N_16 
REMARK    7  A    between atoms: N_16  and  N_17 
REMARK       I    between atoms: N_17  and  C_18 
REMARK    8  A    between atoms: C_18  and  C_19 
ROOT
HETATM    1  C   UNL     1      25.049  45.969  50.738  1.00  0.00     0.127 C 
ENDROOT
BRANCH   1   2
HETATM    2  C   UNL     1      25.526  46.170  52.166  1.00  0.00    -0.032 A 
HETATM    3  C   UNL     1      25.994  45.049  52.874  1.00  0.00     0.046 A 
HETATM    4  C   UNL     1      26.439  45.162  54.192  1.00  0.00     0.076 A 
HETATM    5  C   UNL     1      26.458  46.410  54.815  1.00  0.00     0.037 A 
HETATM    6  C   UNL     1      25.970  47.526  54.135  1.00  0.00     0.003 A 
HETATM    7  C   UNL     1      25.495  47.407  52.826  1.00  0.00     0.009 A 
BRANCH   4   8
HETATM    8  O   UNL     1      26.923  44.014  54.773  1.00  0.00    -0.311 OA
BRANCH   8   9
HETATM    9  C   UNL     1      27.915  43.311  54.128  1.00  0.00     0.076 A 
HETATM   10  C   UNL     1      29.220  43.785  53.970  1.00  0.00     0.037 A 
HETATM   11  C   UNL     1      30.176  42.985  53.340  1.00  0.00     0.003 A 
HETATM   12  C   UNL     1      29.835  41.708  52.892  1.00  0.00     0.000 A 
HETATM   13  C   UNL     1      28.540  41.225  53.078  1.00  0.00     0.003 A 
HETATM   14  C   UNL     1      27.582  42.024  53.702  1.00  0.00     0.037 A 
ENDBRANCH   8   9
ENDBRANCH   4   8
ENDBRANCH   1   2
BRANCH   1  15
HETATM   15  N   UNL     1      23.724  45.362  50.784  1.00  0.00    -0.339 N 
HETATM   16  C   UNL     1      23.508  44.097  50.336  1.00  0.00     0.292 C 
HETATM   17  N   UNL     1      22.202  43.740  50.405  1.00  0.00    -0.254 NA
HETATM   18  O   UNL     1      24.367  43.339  49.914  1.00  0.00    -0.254 OA
HETATM   19  H   UNL     1      21.683  44.076  51.203  1.00  0.00     0.128 HD
HETATM   20  H   UNL     1      22.046  42.764  50.185  1.00  0.00     0.128 HD
HETATM   21  H   UNL     1      22.926  45.980  50.784  1.00  0.00     0.164 HD
ENDBRANCH   1  15
BRANCH   1  22
HETATM   22  C   UNL     1      25.049  47.211  49.838  1.00  0.00     0.134 C 
BRANCH  22  23
HETATM   23  C   UNL     1      23.689  47.756  49.454  1.00  0.00     0.238 C 
HETATM   24  N   UNL     1      23.326  48.973  49.994  1.00  0.00    -0.267 N 
HETATM   25  H   UNL     1      23.698  49.296  50.886  1.00  0.00     0.190 HD
HETATM   26  O   UNL     1      22.987  47.178  48.621  1.00  0.00    -0.272 OA
BRANCH  24  27
HETATM   27  N   UNL     1      22.013  49.408  49.721  1.00  0.00    -0.262 N 
HETATM   28  C   UNL     1      21.836  50.661  49.159  1.00  0.00     0.293 C 
HETATM   29  O   UNL     1      22.773  51.286  48.662  1.00  0.00    -0.264 OA
HETATM   30  H   UNL     1      21.281  49.045  50.335  1.00  0.00     0.190 HD
BRANCH  28  31
HETATM   31  C   UNL     1      20.476  51.149  49.224  1.00  0.00     0.144 A 
HETATM   32  O   UNL     1      19.617  50.625  50.157  1.00  0.00    -0.317 OA
HETATM   33  C   UNL     1      18.419  51.242  49.993  1.00  0.00     0.143 A 
HETATM   34  C   UNL     1      18.487  52.163  48.974  1.00  0.00     0.027 A 
HETATM   35  C   UNL     1      19.811  52.105  48.478  1.00  0.00     0.045 A 
ENDBRANCH  28  31
ENDBRANCH  24  27
ENDBRANCH  22  23
ENDBRANCH   1  22
TORSDOF 8
ENDMDL
MODEL 4
REMARK VINA RESULT:      -9.1      5.099      8.232
REMARK  8 active torsions:
REMARK  status: ('A' for Active; 'I' for Inactive)
REMARK    1  A    between atoms: C_4  and  O_5 
REMARK    2  A    between atoms: O_5  and  C_6 
REMARK    3  A    between atoms: C_8  and  C_9 
REMARK    4  A    between atoms: C_9  and  N_10 
REMARK    5  A    between atoms: C_9  and  C_14 
REMARK       I    between atoms: N_10  and  C_11 
REMARK       I    between atoms: C_11  and  N_12 
REMARK    6  A    between atoms: C_14  and  C_15 
REMARK       I    between atoms: C_15  and  N_16 
REMARK    7  A    between atoms: N_16  and  N_17 
REMARK       I    between atoms: N_17  and  C_18 
REMARK    8  A    between atoms: C_18  and  C_19 
ROOT
HETATM    1  C   UNL     1      26.382  43.888  53.458  1.00  0.00     0.127 C 
ENDROOT
BRANCH   1   2
HETATM    2  C   UNL     1      26.740  45.246  54.035  1.00  0.00    -0.032 A 
HETATM    3  C   UNL     1      27.991  45.394  54.660  1.00  0.00     0.046 A 
HETATM    4  C   UNL     1      28.380  46.613  55.218  1.00  0.00     0.076 A 
HETATM    5  C   UNL     1      27.536  47.720  55.128  1.00  0.00     0.037 A 
HETATM    6  C   UNL     1      26.281  47.582  54.534  1.00  0.00     0.003 A 
HETATM    7  C   UNL     1      25.879  46.353  54.005  1.00  0.00     0.009 A 
BRANCH   4   8
HETATM    8  O   UNL     1      29.643  46.660  55.760  1.00  0.00    -0.311 OA
BRANCH   8   9
HETATM    9  C   UNL     1      30.204  45.498  56.237  1.00  0.00     0.076 A 
HETATM   10  C   UNL     1      30.454  44.377  55.442  1.00  0.00     0.037 A 
HETATM   11  C   UNL     1      31.068  43.254  56.002  1.00  0.00     0.003 A 
HETATM   12  C   UNL     1      31.451  43.260  57.343  1.00  0.00     0.000 A 
HETATM   13  C   UNL     1      31.228  44.392  58.128  1.00  0.00     0.003 A 
HETATM   14  C   UNL     1      30.610  45.513  57.573  1.00  0.00     0.037 A 
ENDBRANCH   8   9
ENDBRANCH   4   8
ENDBRANCH   1   2
BRANCH   1  15
HETATM   15  N   UNL     1      26.351  44.008  52.005  1.00  0.00    -0.339 N 
HETATM   16  C   UNL     1      25.193  43.869  51.306  1.00  0.00     0.292 C 
HETATM   17  N   UNL     1      25.384  43.952  49.966  1.00  0.00    -0.254 NA
HETATM   18  O   UNL     1      24.089  43.693  51.794  1.00  0.00    -0.254 OA
HETATM   19  H   UNL     1      26.077  44.614  49.648  1.00  0.00     0.128 HD
HETATM   20  H   UNL     1      24.518  43.967  49.443  1.00  0.00     0.128 HD
HETATM   21  H   UNL     1      27.204  43.813  51.501  1.00  0.00     0.164 HD
ENDBRANCH   1  15
BRANCH   1  22
HETATM   22  C   UNL     1      27.262  42.709  53.889  1.00  0.00     0.134 C 
BRANCH  22  23
HETATM   23  C   UNL     1      27.931  41.933  52.775  1.00  0.00     0.238 C 
HETATM   24  N   UNL     1      27.194  40.931  52.177  1.00  0.00    -0.267 N 
HETATM   25  H   UNL     1      26.451  40.442  52.675  1.00  0.00     0.190 HD
HETATM   26  O   UNL     1      29.050  42.251  52.363  1.00  0.00    -0.272 OA
BRANCH  24  27
HETATM   27  N   UNL     1      27.871  40.142  51.225  1.00  0.00    -0.262 N 
HETATM   28  C   UNL     1      27.707  40.441  49.883  1.00  0.00     0.293 C 
HETATM   29  O   UNL     1      27.211  41.505  49.513  1.00  0.00    -0.264 OA
HETATM   30  H   UNL     1      28.045  39.170  51.487  1.00  0.00     0.190 HD
BRANCH  28  31
HETATM   31  C   UNL     1      28.159  39.398  48.988  1.00  0.00     0.144 A 
HETATM   32  O   UNL     1      27.346  38.996  47.958  1.00  0.00    -0.317 OA
HETATM   33  C   UNL     1      28.000  38.011  47.290  1.00  0.00     0.143 A 
HETATM   34  C   UNL     1      29.226  37.773  47.864  1.00  0.00     0.027 A 
HETATM   35  C   UNL     1      29.331  38.665  48.957  1.00  0.00     0.045 A 
ENDBRANCH  28  31
ENDBRANCH  24  27
ENDBRANCH  22  23
ENDBRANCH   1  22
TORSDOF 8
ENDMDL
MODEL 5
REMARK VINA RESULT:      -9.0      1.893      2.689
REMARK  8 active torsions:
REMARK  status: ('A' for Active; 'I' for Inactive)
REMARK    1  A    between atoms: C_4  and  O_5 
REMARK    2  A    between atoms: O_5  and  C_6 
REMARK    3  A    between atoms: C_8  and  C_9 
REMARK    4  A    between atoms: C_9  and  N_10 
REMARK    5  A    between atoms: C_9  and  C_14 
REMARK       I    between atoms: N_10  and  C_11 
REMARK       I    between atoms: C_11  and  N_12 
REMARK    6  A    between atoms: C_14  and  C_15 
REMARK       I    between atoms: C_15  and  N_16 
REMARK    7  A    between atoms: N_16  and  N_17 
REMARK       I    between atoms: N_17  and  C_18 
REMARK    8  A    between atoms: C_18  and  C_19 
ROOT
HETATM    1  C   UNL     1      25.265  45.107  51.118  1.00  0.00     0.127 C 
ENDROOT
BRANCH   1   2
HETATM    2  C   UNL     1      25.823  44.668  52.460  1.00  0.00    -0.032 A 
HETATM    3  C   UNL     1      27.218  44.544  52.593  1.00  0.00     0.046 A 
HETATM    4  C   UNL     1      27.796  44.138  53.796  1.00  0.00     0.076 A 
HETATM    5  C   UNL     1      26.988  43.882  54.904  1.00  0.00     0.037 A 
HETATM    6  C   UNL     1      25.601  43.973  54.781  1.00  0.00     0.003 A 
HETATM    7  C   UNL     1      25.021  44.349  53.566  1.00  0.00     0.009 A 
BRANCH   4   8
HETATM    8  O   UNL     1      29.169  44.099  53.831  1.00  0.00    -0.311 OA
BRANCH   8   9
HETATM    9  C   UNL     1      29.808  44.281  55.036  1.00  0.00     0.076 A 
HETATM   10  C   UNL     1      29.618  45.400  55.850  1.00  0.00     0.037 A 
HETATM   11  C   UNL     1      30.276  45.482  57.079  1.00  0.00     0.003 A 
HETATM   12  C   UNL     1      31.101  44.439  57.503  1.00  0.00     0.000 A 
HETATM   13  C   UNL     1      31.265  43.309  56.702  1.00  0.00     0.003 A 
HETATM   14  C   UNL     1      30.614  43.228  55.472  1.00  0.00     0.037 A 
ENDBRANCH   8   9
ENDBRANCH   4   8
ENDBRANCH   1   2
BRANCH   1  15
HETATM   15  N   UNL     1      23.916  44.568  50.991  1.00  0.00    -0.339 N 
HETATM   16  C   UNL     1      23.676  43.405  50.329  1.00  0.00     0.292 C 
HETATM   17  N   UNL     1      22.355  43.108  50.267  1.00  0.00    -0.254 NA
HETATM   18  O   UNL     1      24.528  42.682  49.837  1.00  0.00    -0.254 OA
HETATM   19  H   UNL     1      21.801  43.337  51.079  1.00  0.00     0.128 HD
HETATM   20  H   UNL     1      22.173  42.190  49.881  1.00  0.00     0.128 HD
HETATM   21  H   UNL     1      23.146  45.219  51.048  1.00  0.00     0.164 HD
ENDBRANCH   1  15
BRANCH   1  22
HETATM   22  C   UNL     1      25.280  46.614  50.832  1.00  0.00     0.134 C 
BRANCH  22  23
HETATM   23  C   UNL     1      24.168  47.136  49.947  1.00  0.00     0.238 C 
HETATM   24  N   UNL     1      23.559  48.313  50.332  1.00  0.00    -0.267 N 
HETATM   25  H   UNL     1      23.522  48.603  51.308  1.00  0.00     0.190 HD
HETATM   26  O   UNL     1      23.892  46.578  48.882  1.00  0.00    -0.272 OA
BRANCH  24  27
HETATM   27  N   UNL     1      22.450  48.721  49.563  1.00  0.00    -0.262 N 
HETATM   28  C   UNL     1      22.309  50.067  49.271  1.00  0.00     0.293 C 
HETATM   29  O   UNL     1      23.232  50.865  49.433  1.00  0.00    -0.264 OA
HETATM   30  H   UNL     1      21.605  48.154  49.654  1.00  0.00     0.190 HD
BRANCH  28  31
HETATM   31  C   UNL     1      20.998  50.428  48.776  1.00  0.00     0.144 A 
HETATM   32  O   UNL     1      20.151  49.443  48.337  1.00  0.00    -0.317 OA
HETATM   33  C   UNL     1      19.009  50.049  47.922  1.00  0.00     0.143 A 
HETATM   34  C   UNL     1      19.098  51.410  48.092  1.00  0.00     0.027 A 
HETATM   35  C   UNL     1      20.378  51.657  48.643  1.00  0.00     0.045 A 
ENDBRANCH  28  31
ENDBRANCH  24  27
ENDBRANCH  22  23
ENDBRANCH   1  22
TORSDOF 8
ENDMDL
MODEL 6
REMARK VINA RESULT:      -8.9      2.196      3.620
REMARK  8 active torsions:
REMARK  status: ('A' for Active; 'I' for Inactive)
REMARK    1  A    between atoms: C_4  and  O_5 
REMARK    2  A    between atoms: O_5  and  C_6 
REMARK    3  A    between atoms: C_8  and  C_9 
REMARK    4  A    between atoms: C_9  and  N_10 
REMARK    5  A    between atoms: C_9  and  C_14 
REMARK       I    between atoms: N_10  and  C_11 
REMARK       I    between atoms: C_11  and  N_12 
REMARK    6  A    between atoms: C_14  and  C_15 
REMARK       I    between atoms: C_15  and  N_16 
REMARK    7  A    between atoms: N_16  and  N_17 
REMARK       I    between atoms: N_17  and  C_18 
REMARK    8  A    between atoms: C_18  and  C_19 
ROOT
HETATM    1  C   UNL     1      26.647  44.471  52.045  1.00  0.00     0.127 C 
ENDROOT
BRANCH   1   2
HETATM    2  C   UNL     1      27.598  43.428  52.605  1.00  0.00    -0.032 A 
HETATM    3  C   UNL     1      28.769  43.872  53.246  1.00  0.00     0.046 A 
HETATM    4  C   UNL     1      29.689  42.966  53.777  1.00  0.00     0.076 A 
HETATM    5  C   UNL     1      29.436  41.597  53.707  1.00  0.00     0.037 A 
HETATM    6  C   UNL     1      28.292  41.140  53.050  1.00  0.00     0.003 A 
HETATM    7  C   UNL     1      27.387  42.047  52.491  1.00  0.00     0.009 A 
BRANCH   4   8
HETATM    8  O   UNL     1      30.773  43.508  54.425  1.00  0.00    -0.311 OA
BRANCH   8   9
HETATM    9  C   UNL     1      30.567  44.203  55.595  1.00  0.00     0.076 A 
HETATM   10  C   UNL     1      29.590  45.190  55.746  1.00  0.00     0.037 A 
HETATM   11  C   UNL     1      29.421  45.815  56.984  1.00  0.00     0.003 A 
HETATM   12  C   UNL     1      30.208  45.436  58.072  1.00  0.00     0.000 A 
HETATM   13  C   UNL     1      31.162  44.429  57.928  1.00  0.00     0.003 A 
HETATM   14  C   UNL     1      31.337  43.808  56.691  1.00  0.00     0.037 A 
ENDBRANCH   8   9
ENDBRANCH   4   8
ENDBRANCH   1   2
BRANCH   1  15
HETATM   15  N   UNL     1      26.617  45.599  52.969  1.00  0.00    -0.339 N 
HETATM   16  C   UNL     1      25.710  45.664  53.979  1.00  0.00     0.292 C 
HETATM   17  N   UNL     1      25.804  46.817  54.685  1.00  0.00    -0.254 NA
HETATM   18  O   UNL     1      24.891  44.801  54.252  1.00  0.00    -0.254 OA
HETATM   19  H   UNL     1      26.733  47.184  54.832  1.00  0.00     0.128 HD
HETATM   20  H   UNL     1      25.216  46.827  55.509  1.00  0.00     0.128 HD
HETATM   21  H   UNL     1      26.991  46.479  52.645  1.00  0.00     0.164 HD
ENDBRANCH   1  15
BRANCH   1  22
HETATM   22  C   UNL     1      26.922  44.947  50.613  1.00  0.00     0.134 C 
BRANCH  22  23
HETATM   23  C   UNL     1      25.806  45.718  49.940  1.00  0.00     0.238 C 
HETATM   24  N   UNL     1      25.792  47.086  50.118  1.00  0.00    -0.267 N 
HETATM   25  H   UNL     1      26.198  47.523  50.945  1.00  0.00     0.190 HD
HETATM   26  O   UNL     1      25.007  45.151  49.191  1.00  0.00    -0.272 OA
BRANCH  24  27
HETATM   27  N   UNL     1      24.682  47.772  49.585  1.00  0.00    -0.262 N 
HETATM   28  C   UNL     1      24.881  49.034  49.050  1.00  0.00     0.293 C 
HETATM   29  O   UNL     1      26.008  49.458  48.794  1.00  0.00    -0.264 OA
HETATM   30  H   UNL     1      23.776  47.564  50.009  1.00  0.00     0.190 HD
BRANCH  28  31
HETATM   31  C   UNL     1      23.662  49.782  48.837  1.00  0.00     0.144 A 
HETATM   32  O   UNL     1      22.900  50.148  49.917  1.00  0.00    -0.317 OA
HETATM   33  C   UNL     1      21.820  50.820  49.440  1.00  0.00     0.143 A 
HETATM   34  C   UNL     1      21.873  50.903  48.069  1.00  0.00     0.027 A 
HETATM   35  C   UNL     1      23.058  50.236  47.678  1.00  0.00     0.045 A 
ENDBRANCH  28  31
ENDBRANCH  24  27
ENDBRANCH  22  23
ENDBRANCH   1  22
TORSDOF 8
ENDMDL
MODEL 7
REMARK VINA RESULT:      -8.9      1.901      9.600
REMARK  8 active torsions:
REMARK  status: ('A' for Active; 'I' for Inactive)
REMARK    1  A    between atoms: C_4  and  O_5 
REMARK    2  A    between atoms: O_5  and  C_6 
REMARK    3  A    between atoms: C_8  and  C_9 
REMARK    4  A    between atoms: C_9  and  N_10 
REMARK    5  A    between atoms: C_9  and  C_14 
REMARK       I    between atoms: N_10  and  C_11 
REMARK       I    between atoms: C_11  and  N_12 
REMARK    6  A    between atoms: C_14  and  C_15 
REMARK       I    between atoms: C_15  and  N_16 
REMARK    7  A    between atoms: N_16  and  N_17 
REMARK       I    between atoms: N_17  and  C_18 
REMARK    8  A    between atoms: C_18  and  C_19 
ROOT
HETATM    1  C   UNL     1      25.516  47.113  50.290  1.00  0.00     0.127 C 
ENDROOT
BRANCH   1   2
HETATM    2  C   UNL     1      24.261  46.809  49.491  1.00  0.00    -0.032 A 
HETATM    3  C   UNL     1      23.557  47.885  48.922  1.00  0.00     0.046 A 
HETATM    4  C   UNL     1      22.392  47.676  48.183  1.00  0.00     0.076 A 
HETATM    5  C   UNL     1      21.928  46.378  47.969  1.00  0.00     0.037 A 
HETATM    6  C   UNL     1      22.600  45.302  48.549  1.00  0.00     0.003 A 
HETATM    7  C   UNL     1      23.749  45.515  49.317  1.00  0.00     0.009 A 
BRANCH   4   8
HETATM    8  O   UNL     1      21.812  48.792  47.630  1.00  0.00    -0.311 OA
BRANCH   8   9
HETATM    9  C   UNL     1      21.020  49.591  48.423  1.00  0.00     0.076 A 
HETATM   10  C   UNL     1      20.895  50.971  48.250  1.00  0.00     0.037 A 
HETATM   11  C   UNL     1      20.034  51.699  49.075  1.00  0.00     0.003 A 
HETATM   12  C   UNL     1      19.283  51.045  50.052  1.00  0.00     0.000 A 
HETATM   13  C   UNL     1      19.386  49.662  50.204  1.00  0.00     0.003 A 
HETATM   14  C   UNL     1      20.250  48.935  49.385  1.00  0.00     0.037 A 
ENDBRANCH   8   9
ENDBRANCH   4   8
ENDBRANCH   1   2
BRANCH   1  15
HETATM   15  N   UNL     1      26.039  48.398  49.839  1.00  0.00    -0.339 N 
HETATM   16  C   UNL     1      27.196  48.484  49.131  1.00  0.00     0.292 C 
HETATM   17  N   UNL     1      27.544  49.765  48.861  1.00  0.00    -0.254 NA
HETATM   18  O   UNL     1      27.871  47.536  48.760  1.00  0.00    -0.254 OA
HETATM   19  H   UNL     1      26.790  50.405  48.654  1.00  0.00     0.128 HD
HETATM   20  H   UNL     1      28.338  49.838  48.236  1.00  0.00     0.128 HD
HETATM   21  H   UNL     1      25.768  49.221  50.357  1.00  0.00     0.164 HD
ENDBRANCH   1  15
BRANCH   1  22
HETATM   22  C   UNL     1      25.377  47.088  51.817  1.00  0.00     0.134 C 
BRANCH  22  23
HETATM   23  C   UNL     1      26.238  46.080  52.549  1.00  0.00     0.238 C 
HETATM   24  N   UNL     1      26.405  46.265  53.906  1.00  0.00    -0.267 N 
HETATM   25  H   UNL     1      26.343  47.189  54.332  1.00  0.00     0.190 HD
HETATM   26  O   UNL     1      26.687  45.089  51.967  1.00  0.00    -0.272 OA
BRANCH  24  27
HETATM   27  N   UNL     1      27.304  45.389  54.548  1.00  0.00    -0.262 N 
HETATM   28  C   UNL     1      28.410  45.928  55.184  1.00  0.00     0.293 C 
HETATM   29  O   UNL     1      28.496  47.132  55.424  1.00  0.00    -0.264 OA
HETATM   30  H   UNL     1      27.383  44.452  54.149  1.00  0.00     0.190 HD
BRANCH  28  31
HETATM   31  C   UNL     1      29.428  44.955  55.518  1.00  0.00     0.144 A 
HETATM   32  O   UNL     1      30.256  45.189  56.587  1.00  0.00    -0.317 OA
HETATM   33  C   UNL     1      31.113  44.139  56.670  1.00  0.00     0.143 A 
HETATM   34  C   UNL     1      30.850  43.224  55.678  1.00  0.00     0.027 A 
HETATM   35  C   UNL     1      29.765  43.748  54.935  1.00  0.00     0.045 A 
ENDBRANCH  28  31
ENDBRANCH  24  27
ENDBRANCH  22  23
ENDBRANCH   1  22
TORSDOF 8
ENDMDL
MODEL 8
REMARK VINA RESULT:      -8.9      2.565      4.993
REMARK  8 active torsions:
REMARK  status: ('A' for Active; 'I' for Inactive)
REMARK    1  A    between atoms: C_4  and  O_5 
REMARK    2  A    between atoms: O_5  and  C_6 
REMARK    3  A    between atoms: C_8  and  C_9 
REMARK    4  A    between atoms: C_9  and  N_10 
REMARK    5  A    between atoms: C_9  and  C_14 
REMARK       I    between atoms: N_10  and  C_11 
REMARK       I    between atoms: C_11  and  N_12 
REMARK    6  A    between atoms: C_14  and  C_15 
REMARK       I    between atoms: C_15  and  N_16 
REMARK    7  A    between atoms: N_16  and  N_17 
REMARK       I    between atoms: N_17  and  C_18 
REMARK    8  A    between atoms: C_18  and  C_19 
ROOT
HETATM    1  C   UNL     1      22.653  49.220  48.636  1.00  0.00     0.127 C 
ENDROOT
BRANCH   1   2
HETATM    2  C   UNL     1      24.015  48.732  49.098  1.00  0.00    -0.032 A 
HETATM    3  C   UNL     1      24.064  47.695  50.046  1.00  0.00     0.046 A 
HETATM    4  C   UNL     1      25.283  47.205  50.519  1.00  0.00     0.076 A 
HETATM    5  C   UNL     1      26.479  47.722  50.023  1.00  0.00     0.037 A 
HETATM    6  C   UNL     1      26.447  48.771  49.102  1.00  0.00     0.003 A 
HETATM    7  C   UNL     1      25.226  49.282  48.653  1.00  0.00     0.009 A 
BRANCH   4   8
HETATM    8  O   UNL     1      25.216  46.156  51.405  1.00  0.00    -0.311 OA
BRANCH   8   9
HETATM    9  C   UNL     1      25.955  46.219  52.564  1.00  0.00     0.076 A 
HETATM   10  C   UNL     1      25.817  47.234  53.514  1.00  0.00     0.037 A 
HETATM   11  C   UNL     1      26.579  47.195  54.685  1.00  0.00     0.003 A 
HETATM   12  C   UNL     1      27.455  46.134  54.915  1.00  0.00     0.000 A 
HETATM   13  C   UNL     1      27.568  45.106  53.979  1.00  0.00     0.003 A 
HETATM   14  C   UNL     1      26.813  45.146  52.807  1.00  0.00     0.037 A 
ENDBRANCH   8   9
ENDBRANCH   4   8
ENDBRANCH   1   2
BRANCH   1  15
HETATM   15  N   UNL     1      21.635  48.501  49.394  1.00  0.00    -0.339 N 
HETATM   16  C   UNL     1      20.645  47.808  48.771  1.00  0.00     0.292 C 
HETATM   17  N   UNL     1      19.764  47.265  49.647  1.00  0.00    -0.254 NA
HETATM   18  O   UNL     1      20.531  47.667  47.564  1.00  0.00    -0.254 OA
HETATM   19  H   UNL     1      20.146  46.910  50.511  1.00  0.00     0.128 HD
HETATM   20  H   UNL     1      19.092  46.651  49.203  1.00  0.00     0.128 HD
HETATM   21  H   UNL     1      21.438  48.820  50.331  1.00  0.00     0.164 HD
ENDBRANCH   1  15
BRANCH   1  22
HETATM   22  C   UNL     1      22.412  50.733  48.698  1.00  0.00     0.134 C 
BRANCH  22  23
HETATM   23  C   UNL     1      21.142  51.179  49.391  1.00  0.00     0.238 C 
HETATM   24  N   UNL     1      20.096  51.581  48.587  1.00  0.00    -0.267 N 
HETATM   25  H   UNL     1      20.252  51.966  47.657  1.00  0.00     0.190 HD
HETATM   26  O   UNL     1      21.026  51.093  50.617  1.00  0.00    -0.272 OA
BRANCH  24  27
HETATM   27  N   UNL     1      18.967  52.104  49.249  1.00  0.00    -0.262 N 
HETATM   28  C   UNL     1      17.781  51.391  49.195  1.00  0.00     0.293 C 
HETATM   29  O   UNL     1      17.746  50.219  48.819  1.00  0.00    -0.264 OA
HETATM   30  H   UNL     1      18.917  53.122  49.321  1.00  0.00     0.190 HD
BRANCH  28  31
HETATM   31  C   UNL     1      16.619  52.149  49.608  1.00  0.00     0.144 A 
HETATM   32  O   UNL     1      16.783  53.426  50.082  1.00  0.00    -0.317 OA
HETATM   33  C   UNL     1      15.551  53.897  50.405  1.00  0.00     0.143 A 
HETATM   34  C   UNL     1      14.590  52.950  50.141  1.00  0.00     0.027 A 
HETATM   35  C   UNL     1      15.275  51.823  49.627  1.00  0.00     0.045 A 
ENDBRANCH  28  31
ENDBRANCH  24  27
ENDBRANCH  22  23
ENDBRANCH   1  22
TORSDOF 8
ENDMDL
MODEL 9
REMARK VINA RESULT:      -8.8      3.728      7.214
REMARK  8 active torsions:
REMARK  status: ('A' for Active; 'I' for Inactive)
REMARK    1  A    between atoms: C_4  and  O_5 
REMARK    2  A    between atoms: O_5  and  C_6 
REMARK    3  A    between atoms: C_8  and  C_9 
REMARK    4  A    between atoms: C_9  and  N_10 
REMARK    5  A    between atoms: C_9  and  C_14 
REMARK       I    between atoms: N_10  and  C_11 
REMARK       I    between atoms: C_11  and  N_12 
REMARK    6  A    between atoms: C_14  and  C_15 
REMARK       I    between atoms: C_15  and  N_16 
REMARK    7  A    between atoms: N_16  and  N_17 
REMARK       I    between atoms: N_17  and  C_18 
REMARK    8  A    between atoms: C_18  and  C_19 
ROOT
HETATM    1  C   UNL     1      25.225  45.662  51.738  1.00  0.00     0.127 C 
ENDROOT
BRANCH   1   2
HETATM    2  C   UNL     1      25.865  45.123  53.005  1.00  0.00    -0.032 A 
HETATM    3  C   UNL     1      27.164  45.553  53.329  1.00  0.00     0.046 A 
HETATM    4  C   UNL     1      27.813  45.091  54.475  1.00  0.00     0.076 A 
HETATM    5  C   UNL     1      27.157  44.215  55.340  1.00  0.00     0.037 A 
HETATM    6  C   UNL     1      25.879  43.758  55.018  1.00  0.00     0.003 A 
HETATM    7  C   UNL     1      25.242  44.196  53.854  1.00  0.00     0.009 A 
BRANCH   4   8
HETATM    8  O   UNL     1      29.060  45.614  54.722  1.00  0.00    -0.311 OA
BRANCH   8   9
HETATM    9  C   UNL     1      29.826  45.061  55.723  1.00  0.00     0.076 A 
HETATM   10  C   UNL     1      30.611  43.918  55.552  1.00  0.00     0.037 A 
HETATM   11  C   UNL     1      31.392  43.449  56.611  1.00  0.00     0.003 A 
HETATM   12  C   UNL     1      31.406  44.134  57.827  1.00  0.00     0.000 A 
HETATM   13  C   UNL     1      30.645  45.292  57.985  1.00  0.00     0.003 A 
HETATM   14  C   UNL     1      29.860  45.758  56.931  1.00  0.00     0.037 A 
ENDBRANCH   8   9
ENDBRANCH   4   8
ENDBRANCH   1   2
BRANCH   1  15
HETATM   15  N   UNL     1      26.281  46.218  50.899  1.00  0.00    -0.339 N 
HETATM   16  C   UNL     1      26.089  47.355  50.179  1.00  0.00     0.292 C 
HETATM   17  N   UNL     1      27.165  47.673  49.418  1.00  0.00    -0.254 NA
HETATM   18  O   UNL     1      25.079  48.040  50.194  1.00  0.00    -0.254 OA
HETATM   19  H   UNL     1      28.073  47.490  49.819  1.00  0.00     0.128 HD
HETATM   20  H   UNL     1      27.080  48.577  48.969  1.00  0.00     0.128 HD
HETATM   21  H   UNL     1      26.989  45.585  50.558  1.00  0.00     0.164 HD
ENDBRANCH   1  15
BRANCH   1  22
HETATM   22  C   UNL     1      24.357  44.680  50.941  1.00  0.00     0.134 C 
BRANCH  22  23
HETATM   23  C   UNL     1      25.074  43.488  50.342  1.00  0.00     0.238 C 
HETATM   24  N   UNL     1      25.011  42.301  51.042  1.00  0.00    -0.267 N 
HETATM   25  H   UNL     1      24.884  42.281  52.053  1.00  0.00     0.190 HD
HETATM   26  O   UNL     1      25.607  43.562  49.232  1.00  0.00    -0.272 OA
BRANCH  24  27
HETATM   27  N   UNL     1      25.781  41.236  50.533  1.00  0.00    -0.262 N 
HETATM   28  C   UNL     1      27.044  41.024  51.059  1.00  0.00     0.293 C 
HETATM   29  O   UNL     1      27.407  41.557  52.108  1.00  0.00    -0.264 OA
HETATM   30  H   UNL     1      25.615  40.985  49.557  1.00  0.00     0.190 HD
BRANCH  28  31
HETATM   31  C   UNL     1      27.872  40.143  50.265  1.00  0.00     0.144 A 
HETATM   32  O   UNL     1      28.767  39.314  50.893  1.00  0.00    -0.317 OA
HETATM   33  C   UNL     1      29.414  38.613  49.927  1.00  0.00     0.143 A 
HETATM   34  C   UNL     1      28.948  38.966  48.683  1.00  0.00     0.027 A 
HETATM   35  C   UNL     1      27.955  39.951  48.898  1.00  0.00     0.045 A 
ENDBRANCH  28  31
ENDBRANCH  24  27
ENDBRANCH  22  23
ENDBRANCH   1  22
TORSDOF 8
ENDMDL
MODEL 10
REMARK VINA RESULT:      -8.8      4.348      7.857
REMARK  8 active torsions:
REMARK  status: ('A' for Active; 'I' for Inactive)
REMARK    1  A    between atoms: C_4  and  O_5 
REMARK    2  A    between atoms: O_5  and  C_6 
REMARK    3  A    between atoms: C_8  and  C_9 
REMARK    4  A    between atoms: C_9  and  N_10 
REMARK    5  A    between atoms: C_9  and  C_14 
REMARK       I    between atoms: N_10  and  C_11 
REMARK       I    between atoms: C_11  and  N_12 
REMARK    6  A    between atoms: C_14  and  C_15 
REMARK       I    between atoms: C_15  and  N_16 
REMARK    7  A    between atoms: N_16  and  N_17 
REMARK       I    between atoms: N_17  and  C_18 
REMARK    8  A    between atoms: C_18  and  C_19 
ROOT
HETATM    1  C   UNL     1      19.549  50.394  49.701  1.00  0.00     0.127 C 
ENDROOT
BRANCH   1   2
HETATM    2  C   UNL     1      20.959  50.200  49.169  1.00  0.00    -0.032 A 
HETATM    3  C   UNL     1      21.448  48.888  49.045  1.00  0.00     0.046 A 
HETATM    4  C   UNL     1      22.737  48.640  48.571  1.00  0.00     0.076 A 
HETATM    5  C   UNL     1      23.549  49.703  48.177  1.00  0.00     0.037 A 
HETATM    6  C   UNL     1      23.088  51.012  48.320  1.00  0.00     0.003 A 
HETATM    7  C   UNL     1      21.809  51.261  48.825  1.00  0.00     0.009 A 
BRANCH   4   8
HETATM    8  O   UNL     1      23.095  47.319  48.441  1.00  0.00    -0.311 OA
BRANCH   8   9
HETATM    9  C   UNL     1      23.715  46.693  49.499  1.00  0.00     0.076 A 
HETATM   10  C   UNL     1      23.599  45.327  49.764  1.00  0.00     0.037 A 
HETATM   11  C   UNL     1      24.299  44.767  50.835  1.00  0.00     0.003 A 
HETATM   12  C   UNL     1      25.131  45.564  51.622  1.00  0.00     0.000 A 
HETATM   13  C   UNL     1      25.269  46.923  51.337  1.00  0.00     0.003 A 
HETATM   14  C   UNL     1      24.566  47.485  50.271  1.00  0.00     0.037 A 
ENDBRANCH   8   9
ENDBRANCH   4   8
ENDBRANCH   1   2
BRANCH   1  15
HETATM   15  N   UNL     1      19.456  49.721  50.991  1.00  0.00    -0.339 N 
HETATM   16  C   UNL     1      18.635  48.653  51.177  1.00  0.00     0.292 C 
HETATM   17  N   UNL     1      18.643  48.211  52.458  1.00  0.00    -0.254 NA
HETATM   18  O   UNL     1      17.956  48.124  50.311  1.00  0.00    -0.254 OA
HETATM   19  H   UNL     1      19.528  48.243  52.942  1.00  0.00     0.128 HD
HETATM   20  H   UNL     1      18.129  47.347  52.582  1.00  0.00     0.128 HD
HETATM   21  H   UNL     1      19.689  50.256  51.815  1.00  0.00     0.164 HD
ENDBRANCH   1  15
BRANCH   1  22
HETATM   22  C   UNL     1      19.051  51.841  49.803  1.00  0.00     0.134 C 
BRANCH  22  23
HETATM   23  C   UNL     1      17.590  52.068  49.475  1.00  0.00     0.238 C 
HETATM   24  N   UNL     1      17.242  53.311  48.989  1.00  0.00    -0.267 N 
HETATM   25  H   UNL     1      17.781  54.146  49.216  1.00  0.00     0.190 HD
HETATM   26  O   UNL     1      16.772  51.147  49.553  1.00  0.00    -0.272 OA
BRANCH  24  27
HETATM   27  N   UNL     1      15.864  53.544  48.802  1.00  0.00    -0.262 N 
HETATM   28  C   UNL     1      15.249  54.519  49.569  1.00  0.00     0.293 C 
HETATM   29  O   UNL     1      15.899  55.347  50.207  1.00  0.00    -0.264 OA
HETATM   30  H   UNL     1      15.307  52.741  48.502  1.00  0.00     0.190 HD
BRANCH  28  31
HETATM   31  C   UNL     1      13.804  54.459  49.549  1.00  0.00     0.144 A 
HETATM   32  O   UNL     1      13.134  54.755  48.389  1.00  0.00    -0.317 OA
HETATM   33  C   UNL     1      11.806  54.635  48.648  1.00  0.00     0.143 A 
HETATM   34  C   UNL     1      11.603  54.257  49.954  1.00  0.00     0.027 A 
HETATM   35  C   UNL     1      12.888  54.142  50.536  1.00  0.00     0.045 A 
ENDBRANCH  28  31
ENDBRANCH  24  27
ENDBRANCH  22  23
ENDBRANCH   1  22
TORSDOF 8
ENDMDL
