MODEL 1
REMARK VINA RESULT:      -9.1      0.000      0.000
REMARK  6 active torsions:
REMARK  status: ('A' for Active; 'I' for Inactive)
REMARK    1  A    between atoms: C_2  and  O_3 
REMARK    2  A    between atoms: C_2  and  C_4 
REMARK    3  A    between atoms: C_7  and  N_8 
REMARK       I    between atoms: N_8  and  C_9 
REMARK    4  A    between atoms: C_9  and  C_10 
REMARK    5  A    between atoms: C_13  and  C_14 
REMARK    6  A    between atoms: C_19  and  C_20 
ROOT
HETATM    1  C   UNL     1      25.836  44.322  51.238  1.00  0.00     0.096 C 
HETATM    2  C   UNL     1      25.047  45.332  50.722  1.00  0.00     0.138 C 
HETATM    3  N   UNL     1      24.713  44.935  49.446  1.00  0.00    -0.240 N 
HETATM    4  C   UNL     1      23.916  45.720  48.518  1.00  0.00     0.221 C 
HETATM    5  C   UNL     1      23.232  46.891  49.249  1.00  0.00     0.068 C 
HETATM    6  C   UNL     1      24.188  47.562  50.246  1.00  0.00     0.143 C 
HETATM    7  N   UNL     1      24.634  46.537  51.211  1.00  0.00    -0.363 N 
HETATM    8  N   UNL     1      25.369  43.834  49.045  1.00  0.00    -0.181 NA
HETATM    9  C   UNL     1      26.026  43.448  50.141  1.00  0.00     0.160 C 
HETATM   10  H   UNL     1      25.179  46.954  51.970  1.00  0.00     0.162 HD
ENDROOT
BRANCH   1  11
HETATM   11  C   UNL     1      26.404  44.172  52.567  1.00  0.00     0.261 C 
HETATM   12  N   UNL     1      27.757  44.449  52.619  1.00  0.00    -0.323 N 
HETATM   13  H   UNL     1      28.162  44.810  51.761  1.00  0.00     0.169 HD
HETATM   14  O   UNL     1      25.688  43.880  53.516  1.00  0.00    -0.267 OA
BRANCH  12  15
HETATM   15  C   UNL     1      28.588  44.446  53.757  1.00  0.00     0.035 A 
HETATM   16  C   UNL     1      28.566  45.436  54.738  1.00  0.00     0.030 A 
HETATM   17  C   UNL     1      29.446  45.381  55.826  1.00  0.00     0.012 A 
HETATM   18  C   UNL     1      30.366  44.333  55.957  1.00  0.00    -0.030 A 
HETATM   19  C   UNL     1      30.375  43.333  54.977  1.00  0.00     0.012 A 
HETATM   20  C   UNL     1      29.489  43.383  53.894  1.00  0.00     0.030 A 
BRANCH  18  21
HETATM   21  C   UNL     1      31.345  44.335  57.111  1.00  0.00     0.147 C 
HETATM   22  C   UNL     1      31.973  42.959  57.305  1.00  0.00     0.044 C 
BRANCH  21  23
HETATM   23  O   UNL     1      30.693  44.724  58.319  1.00  0.00    -0.391 OA
HETATM   24  H   UNL     1      30.409  43.908  58.763  1.00  0.00     0.210 HD
ENDBRANCH  21  23
ENDBRANCH  18  21
ENDBRANCH  12  15
ENDBRANCH   1  11
BRANCH   4  25
HETATM   25  C   UNL     1      22.868  44.870  47.835  1.00  0.00     0.409 C 
HETATM   26  F   UNL     1      22.292  43.986  48.682  1.00  0.00    -0.169 F 
HETATM   27  F   UNL     1      21.866  45.666  47.371  1.00  0.00    -0.169 F 
HETATM   28  F   UNL     1      23.329  44.191  46.766  1.00  0.00    -0.169 F 
ENDBRANCH   4  25
BRANCH   6  29
HETATM   29  C   UNL     1      25.291  48.299  49.542  1.00  0.00     0.075 A 
HETATM   30  O   UNL     1      24.902  49.241  48.633  1.00  0.00    -0.325 OA
HETATM   31  C   UNL     1      26.033  49.767  48.096  1.00  0.00     0.142 A 
HETATM   32  C   UNL     1      27.146  49.182  48.649  1.00  0.00     0.027 A 
HETATM   33  C   UNL     1      26.669  48.235  49.586  1.00  0.00     0.037 A 
ENDBRANCH   6  29
TORSDOF 6
ENDMDL
MODEL 2
REMARK VINA RESULT:      -8.2      4.765      8.055
REMARK  6 active torsions:
REMARK  status: ('A' for Active; 'I' for Inactive)
REMARK    1  A    between atoms: C_2  and  O_3 
REMARK    2  A    between atoms: C_2  and  C_4 
REMARK    3  A    between atoms: C_7  and  N_8 
REMARK       I    between atoms: N_8  and  C_9 
REMARK    4  A    between atoms: C_9  and  C_10 
REMARK    5  A    between atoms: C_13  and  C_14 
REMARK    6  A    between atoms: C_19  and  C_20 
ROOT
HETATM    1  C   UNL     1      26.945  42.804  50.644  1.00  0.00     0.096 C 
HETATM    2  C   UNL     1      26.777  43.265  51.936  1.00  0.00     0.138 C 
HETATM    3  N   UNL     1      26.823  44.639  51.854  1.00  0.00    -0.240 N 
HETATM    4  C   UNL     1      26.724  45.538  52.992  1.00  0.00     0.221 C 
HETATM    5  C   UNL     1      26.243  44.777  54.243  1.00  0.00     0.068 C 
HETATM    6  C   UNL     1      26.930  43.409  54.363  1.00  0.00     0.143 C 
HETATM    7  N   UNL     1      26.631  42.639  53.139  1.00  0.00    -0.363 N 
HETATM    8  N   UNL     1      27.182  45.087  50.641  1.00  0.00    -0.181 NA
HETATM    9  C   UNL     1      27.227  43.976  49.902  1.00  0.00     0.160 C 
HETATM   10  H   UNL     1      26.965  41.675  53.217  1.00  0.00     0.162 HD
ENDROOT
BRANCH   1  11
HETATM   11  C   UNL     1      26.906  41.447  50.128  1.00  0.00     0.261 C 
HETATM   12  N   UNL     1      27.767  41.237  49.068  1.00  0.00    -0.323 N 
HETATM   13  H   UNL     1      28.381  42.014  48.846  1.00  0.00     0.169 HD
HETATM   14  O   UNL     1      26.195  40.603  50.662  1.00  0.00    -0.267 OA
BRANCH  12  15
HETATM   15  C   UNL     1      28.002  40.029  48.382  1.00  0.00     0.035 A 
HETATM   16  C   UNL     1      28.862  39.031  48.839  1.00  0.00     0.030 A 
HETATM   17  C   UNL     1      29.068  37.869  48.084  1.00  0.00     0.012 A 
HETATM   18  C   UNL     1      28.418  37.680  46.858  1.00  0.00    -0.030 A 
HETATM   19  C   UNL     1      27.545  38.679  46.411  1.00  0.00     0.012 A 
HETATM   20  C   UNL     1      27.331  39.836  47.169  1.00  0.00     0.030 A 
BRANCH  18  21
HETATM   21  C   UNL     1      28.710  36.442  46.037  1.00  0.00     0.147 C 
HETATM   22  C   UNL     1      28.406  36.673  44.561  1.00  0.00     0.044 C 
BRANCH  21  23
HETATM   23  O   UNL     1      27.936  35.339  46.505  1.00  0.00    -0.391 OA
HETATM   24  H   UNL     1      27.872  35.429  47.471  1.00  0.00     0.210 HD
ENDBRANCH  21  23
ENDBRANCH  18  21
ENDBRANCH  12  15
ENDBRANCH   1  11
BRANCH   4  25
HETATM   25  C   UNL     1      25.783  46.688  52.708  1.00  0.00     0.409 C 
HETATM   26  F   UNL     1      24.675  46.291  52.042  1.00  0.00    -0.169 F 
HETATM   27  F   UNL     1      25.353  47.227  53.882  1.00  0.00    -0.169 F 
HETATM   28  F   UNL     1      26.350  47.698  52.019  1.00  0.00    -0.169 F 
ENDBRANCH   4  25
BRANCH   6  29
HETATM   29  C   UNL     1      28.389  43.552  54.687  1.00  0.00     0.075 A 
HETATM   30  O   UNL     1      28.740  44.648  55.424  1.00  0.00    -0.325 OA
HETATM   31  C   UNL     1      30.088  44.606  55.585  1.00  0.00     0.142 A 
HETATM   32  C   UNL     1      30.611  43.496  54.966  1.00  0.00     0.027 A 
HETATM   33  C   UNL     1      29.516  42.812  54.389  1.00  0.00     0.037 A 
ENDBRANCH   6  29
TORSDOF 6
ENDMDL
MODEL 3
REMARK VINA RESULT:      -8.2      2.492      3.369
REMARK  6 active torsions:
REMARK  status: ('A' for Active; 'I' for Inactive)
REMARK    1  A    between atoms: C_2  and  O_3 
REMARK    2  A    between atoms: C_2  and  C_4 
REMARK    3  A    between atoms: C_7  and  N_8 
REMARK       I    between atoms: N_8  and  C_9 
REMARK    4  A    between atoms: C_9  and  C_10 
REMARK    5  A    between atoms: C_13  and  C_14 
REMARK    6  A    between atoms: C_19  and  C_20 
ROOT
HETATM    1  C   UNL     1      26.993  42.023  50.773  1.00  0.00     0.096 C 
HETATM    2  C   UNL     1      25.660  42.193  50.451  1.00  0.00     0.138 C 
HETATM    3  N   UNL     1      25.560  41.917  49.105  1.00  0.00    -0.240 N 
HETATM    4  C   UNL     1      24.333  42.009  48.331  1.00  0.00     0.221 C 
HETATM    5  C   UNL     1      23.113  42.137  49.266  1.00  0.00     0.068 C 
HETATM    6  C   UNL     1      23.398  43.099  50.427  1.00  0.00     0.143 C 
HETATM    7  N   UNL     1      24.568  42.586  51.168  1.00  0.00    -0.363 N 
HETATM    8  N   UNL     1      26.751  41.755  48.507  1.00  0.00    -0.181 NA
HETATM    9  C   UNL     1      27.615  41.790  49.524  1.00  0.00     0.160 C 
HETATM   10  H   UNL     1      24.730  43.124  52.024  1.00  0.00     0.162 HD
ENDROOT
BRANCH   1  11
HETATM   11  C   UNL     1      27.655  42.106  52.063  1.00  0.00     0.261 C 
HETATM   12  N   UNL     1      28.246  43.333  52.299  1.00  0.00    -0.323 N 
HETATM   13  H   UNL     1      28.065  44.045  51.599  1.00  0.00     0.169 HD
HETATM   14  O   UNL     1      27.611  41.161  52.843  1.00  0.00    -0.267 OA
BRANCH  12  15
HETATM   15  C   UNL     1      28.918  43.749  53.466  1.00  0.00     0.035 A 
HETATM   16  C   UNL     1      30.044  43.110  53.983  1.00  0.00     0.030 A 
HETATM   17  C   UNL     1      30.639  43.563  55.167  1.00  0.00     0.012 A 
HETATM   18  C   UNL     1      30.122  44.666  55.858  1.00  0.00    -0.030 A 
HETATM   19  C   UNL     1      29.000  45.314  55.327  1.00  0.00     0.012 A 
HETATM   20  C   UNL     1      28.410  44.866  54.138  1.00  0.00     0.030 A 
BRANCH  18  21
HETATM   21  C   UNL     1      30.750  45.094  57.167  1.00  0.00     0.147 C 
HETATM   22  C   UNL     1      31.567  43.964  57.784  1.00  0.00     0.044 C 
BRANCH  21  23
HETATM   23  O   UNL     1      29.745  45.502  58.094  1.00  0.00    -0.391 OA
HETATM   24  H   UNL     1      30.201  45.953  58.825  1.00  0.00     0.210 HD
ENDBRANCH  21  23
ENDBRANCH  18  21
ENDBRANCH  12  15
ENDBRANCH   1  11
BRANCH   4  25
HETATM   25  C   UNL     1      24.155  40.805  47.433  1.00  0.00     0.409 C 
HETATM   26  F   UNL     1      24.768  39.703  47.924  1.00  0.00    -0.169 F 
HETATM   27  F   UNL     1      22.833  40.498  47.336  1.00  0.00    -0.169 F 
HETATM   28  F   UNL     1      24.586  41.000  46.170  1.00  0.00    -0.169 F 
ENDBRANCH   4  25
BRANCH   6  29
HETATM   29  C   UNL     1      23.516  44.518  49.952  1.00  0.00     0.075 A 
HETATM   30  O   UNL     1      24.414  45.305  50.616  1.00  0.00    -0.325 OA
HETATM   31  C   UNL     1      24.350  46.542  50.057  1.00  0.00     0.142 A 
HETATM   32  C   UNL     1      23.428  46.562  49.039  1.00  0.00     0.027 A 
HETATM   33  C   UNL     1      22.890  45.256  48.967  1.00  0.00     0.037 A 
ENDBRANCH   6  29
TORSDOF 6
ENDMDL
MODEL 4
REMARK VINA RESULT:      -8.2      3.752      8.933
REMARK  6 active torsions:
REMARK  status: ('A' for Active; 'I' for Inactive)
REMARK    1  A    between atoms: C_2  and  O_3 
REMARK    2  A    between atoms: C_2  and  C_4 
REMARK    3  A    between atoms: C_7  and  N_8 
REMARK       I    between atoms: N_8  and  C_9 
REMARK    4  A    between atoms: C_9  and  C_10 
REMARK    5  A    between atoms: C_13  and  C_14 
REMARK    6  A    between atoms: C_19  and  C_20 
ROOT
HETATM    1  C   UNL     1      22.963  45.568  48.937  1.00  0.00     0.096 C 
HETATM    2  C   UNL     1      24.285  45.414  49.309  1.00  0.00     0.138 C 
HETATM    3  N   UNL     1      24.417  44.096  49.690  1.00  0.00    -0.240 N 
HETATM    4  C   UNL     1      25.644  43.501  50.193  1.00  0.00     0.221 C 
HETATM    5  C   UNL     1      26.842  44.438  49.942  1.00  0.00     0.068 C 
HETATM    6  C   UNL     1      26.481  45.899  50.245  1.00  0.00     0.143 C 
HETATM    7  N   UNL     1      25.340  46.274  49.386  1.00  0.00    -0.363 N 
HETATM    8  N   UNL     1      23.246  43.443  49.757  1.00  0.00    -0.181 NA
HETATM    9  C   UNL     1      22.371  44.327  49.273  1.00  0.00     0.160 C 
HETATM   10  H   UNL     1      25.134  47.274  49.459  1.00  0.00     0.162 HD
ENDROOT
BRANCH   1  11
HETATM   11  C   UNL     1      22.283  46.725  48.381  1.00  0.00     0.261 C 
HETATM   12  N   UNL     1      21.758  47.568  49.343  1.00  0.00    -0.323 N 
HETATM   13  H   UNL     1      21.991  47.333  50.302  1.00  0.00     0.169 HD
HETATM   14  O   UNL     1      22.260  46.905  47.169  1.00  0.00    -0.267 OA
BRANCH  12  15
HETATM   15  C   UNL     1      21.089  48.791  49.135  1.00  0.00     0.035 A 
HETATM   16  C   UNL     1      21.737  49.992  48.848  1.00  0.00     0.030 A 
HETATM   17  C   UNL     1      21.004  51.175  48.686  1.00  0.00     0.012 A 
HETATM   18  C   UNL     1      19.609  51.181  48.807  1.00  0.00    -0.030 A 
HETATM   19  C   UNL     1      18.962  49.970  49.081  1.00  0.00     0.012 A 
HETATM   20  C   UNL     1      19.693  48.786  49.233  1.00  0.00     0.030 A 
BRANCH  18  21
HETATM   21  C   UNL     1      18.851  52.486  48.688  1.00  0.00     0.147 C 
HETATM   22  C   UNL     1      17.727  52.569  49.713  1.00  0.00     0.044 C 
BRANCH  21  23
HETATM   23  O   UNL     1      18.300  52.626  47.379  1.00  0.00    -0.391 OA
HETATM   24  H   UNL     1      17.334  52.645  47.480  1.00  0.00     0.210 HD
ENDBRANCH  21  23
ENDBRANCH  18  21
ENDBRANCH  12  15
ENDBRANCH   1  11
BRANCH   4  25
HETATM   25  C   UNL     1      25.911  42.158  49.550  1.00  0.00     0.409 C 
HETATM   26  F   UNL     1      25.505  42.117  48.260  1.00  0.00    -0.169 F 
HETATM   27  F   UNL     1      27.249  41.914  49.540  1.00  0.00    -0.169 F 
HETATM   28  F   UNL     1      25.347  41.121  50.201  1.00  0.00    -0.169 F 
ENDBRANCH   4  25
BRANCH   6  29
HETATM   29  C   UNL     1      26.275  46.123  51.715  1.00  0.00     0.075 A 
HETATM   30  O   UNL     1      26.923  45.261  52.554  1.00  0.00    -0.325 OA
HETATM   31  C   UNL     1      26.589  45.613  53.822  1.00  0.00     0.142 A 
HETATM   32  C   UNL     1      25.740  46.692  53.814  1.00  0.00     0.027 A 
HETATM   33  C   UNL     1      25.538  47.026  52.454  1.00  0.00     0.037 A 
ENDBRANCH   6  29
TORSDOF 6
ENDMDL
MODEL 5
REMARK VINA RESULT:      -8.1     12.894     13.997
REMARK  6 active torsions:
REMARK  status: ('A' for Active; 'I' for Inactive)
REMARK    1  A    between atoms: C_2  and  O_3 
REMARK    2  A    between atoms: C_2  and  C_4 
REMARK    3  A    between atoms: C_7  and  N_8 
REMARK       I    between atoms: N_8  and  C_9 
REMARK    4  A    between atoms: C_9  and  C_10 
REMARK    5  A    between atoms: C_13  and  C_14 
REMARK    6  A    between atoms: C_19  and  C_20 
ROOT
HETATM    1  C   UNL     1      32.953  51.354  41.927  1.00  0.00     0.096 C 
HETATM    2  C   UNL     1      32.265  51.209  40.737  1.00  0.00     0.138 C 
HETATM    3  N   UNL     1      31.005  51.716  40.967  1.00  0.00    -0.240 N 
HETATM    4  C   UNL     1      29.929  51.731  39.989  1.00  0.00     0.221 C 
HETATM    5  C   UNL     1      30.472  51.407  38.583  1.00  0.00     0.068 C 
HETATM    6  C   UNL     1      31.493  50.263  38.629  1.00  0.00     0.143 C 
HETATM    7  N   UNL     1      32.592  50.667  39.529  1.00  0.00    -0.363 N 
HETATM    8  N   UNL     1      30.779  52.013  42.256  1.00  0.00    -0.181 NA
HETATM    9  C   UNL     1      31.969  51.821  42.831  1.00  0.00     0.160 C 
HETATM   10  H   UNL     1      33.360  49.990  39.504  1.00  0.00     0.162 HD
ENDROOT
BRANCH   1  11
HETATM   11  C   UNL     1      34.341  51.062  42.240  1.00  0.00     0.261 C 
HETATM   12  N   UNL     1      34.955  52.051  42.985  1.00  0.00    -0.323 N 
HETATM   13  H   UNL     1      34.348  52.801  43.299  1.00  0.00     0.169 HD
HETATM   14  O   UNL     1      34.841  49.998  41.895  1.00  0.00    -0.267 OA
BRANCH  12  15
HETATM   15  C   UNL     1      36.271  52.048  43.489  1.00  0.00     0.035 A 
HETATM   16  C   UNL     1      37.278  51.200  43.030  1.00  0.00     0.030 A 
HETATM   17  C   UNL     1      38.555  51.234  43.604  1.00  0.00     0.012 A 
HETATM   18  C   UNL     1      38.852  52.118  44.650  1.00  0.00    -0.030 A 
HETATM   19  C   UNL     1      37.842  52.978  45.097  1.00  0.00     0.012 A 
HETATM   20  C   UNL     1      36.569  52.951  44.517  1.00  0.00     0.030 A 
BRANCH  18  21
HETATM   21  C   UNL     1      40.223  52.088  45.290  1.00  0.00     0.147 C 
HETATM   22  C   UNL     1      40.700  50.657  45.510  1.00  0.00     0.044 C 
BRANCH  21  23
HETATM   23  O   UNL     1      40.204  52.770  46.543  1.00  0.00    -0.391 OA
HETATM   24  H   UNL     1      39.280  52.778  46.847  1.00  0.00     0.210 HD
ENDBRANCH  21  23
ENDBRANCH  18  21
ENDBRANCH  12  15
ENDBRANCH   1  11
BRANCH   4  25
HETATM   25  C   UNL     1      29.225  53.070  39.962  1.00  0.00     0.409 C 
HETATM   26  F   UNL     1      30.078  54.101  40.160  1.00  0.00    -0.169 F 
HETATM   27  F   UNL     1      28.663  53.266  38.739  1.00  0.00    -0.169 F 
HETATM   28  F   UNL     1      28.221  53.175  40.856  1.00  0.00    -0.169 F 
ENDBRANCH   4  25
BRANCH   6  29
HETATM   29  C   UNL     1      30.840  48.954  38.966  1.00  0.00     0.075 A 
HETATM   30  O   UNL     1      29.668  48.680  38.320  1.00  0.00    -0.325 OA
HETATM   31  C   UNL     1      29.231  47.478  38.778  1.00  0.00     0.142 A 
HETATM   32  C   UNL     1      30.107  46.970  39.707  1.00  0.00     0.027 A 
HETATM   33  C   UNL     1      31.148  47.920  39.828  1.00  0.00     0.037 A 
ENDBRANCH   6  29
TORSDOF 6
ENDMDL
MODEL 6
REMARK VINA RESULT:      -8.1      3.339      5.570
REMARK  6 active torsions:
REMARK  status: ('A' for Active; 'I' for Inactive)
REMARK    1  A    between atoms: C_2  and  O_3 
REMARK    2  A    between atoms: C_2  and  C_4 
REMARK    3  A    between atoms: C_7  and  N_8 
REMARK       I    between atoms: N_8  and  C_9 
REMARK    4  A    between atoms: C_9  and  C_10 
REMARK    5  A    between atoms: C_13  and  C_14 
REMARK    6  A    between atoms: C_19  and  C_20 
ROOT
HETATM    1  C   UNL     1      26.012  42.872  50.310  1.00  0.00     0.096 C 
HETATM    2  C   UNL     1      26.126  42.100  49.170  1.00  0.00     0.138 C 
HETATM    3  N   UNL     1      24.838  41.786  48.797  1.00  0.00    -0.240 N 
HETATM    4  C   UNL     1      24.486  40.951  47.660  1.00  0.00     0.221 C 
HETATM    5  C   UNL     1      25.712  40.733  46.750  1.00  0.00     0.068 C 
HETATM    6  C   UNL     1      26.979  40.468  47.575  1.00  0.00     0.143 C 
HETATM    7  N   UNL     1      27.194  41.625  48.467  1.00  0.00    -0.363 N 
HETATM    8  N   UNL     1      23.919  42.149  49.706  1.00  0.00    -0.181 NA
HETATM    9  C   UNL     1      24.628  42.832  50.607  1.00  0.00     0.160 C 
HETATM   10  H   UNL     1      28.091  41.556  48.954  1.00  0.00     0.162 HD
ENDROOT
BRANCH   1  11
HETATM   11  C   UNL     1      27.041  43.541  51.087  1.00  0.00     0.261 C 
HETATM   12  N   UNL     1      27.286  42.938  52.307  1.00  0.00    -0.323 N 
HETATM   13  H   UNL     1      26.797  42.064  52.467  1.00  0.00     0.169 HD
HETATM   14  O   UNL     1      27.633  44.508  50.625  1.00  0.00    -0.267 OA
BRANCH  12  15
HETATM   15  C   UNL     1      28.250  43.309  53.266  1.00  0.00     0.035 A 
HETATM   16  C   UNL     1      29.466  42.649  53.440  1.00  0.00     0.030 A 
HETATM   17  C   UNL     1      30.361  43.057  54.438  1.00  0.00     0.012 A 
HETATM   18  C   UNL     1      30.059  44.134  55.281  1.00  0.00    -0.030 A 
HETATM   19  C   UNL     1      28.843  44.802  55.092  1.00  0.00     0.012 A 
HETATM   20  C   UNL     1      27.953  44.401  54.089  1.00  0.00     0.030 A 
BRANCH  18  21
HETATM   21  C   UNL     1      31.019  44.511  56.389  1.00  0.00     0.147 C 
HETATM   22  C   UNL     1      31.581  43.274  57.078  1.00  0.00     0.044 C 
BRANCH  21  23
HETATM   23  O   UNL     1      30.365  45.329  57.359  1.00  0.00    -0.391 OA
HETATM   24  H   UNL     1      31.060  45.712  57.920  1.00  0.00     0.210 HD
ENDBRANCH  21  23
ENDBRANCH  18  21
ENDBRANCH  12  15
ENDBRANCH   1  11
BRANCH   4  25
HETATM   25  C   UNL     1      23.361  41.561  46.853  1.00  0.00     0.409 C 
HETATM   26  F   UNL     1      23.448  42.909  46.790  1.00  0.00    -0.169 F 
HETATM   27  F   UNL     1      23.423  41.111  45.571  1.00  0.00    -0.169 F 
HETATM   28  F   UNL     1      22.132  41.238  47.303  1.00  0.00    -0.169 F 
ENDBRANCH   4  25
BRANCH   6  29
HETATM   29  C   UNL     1      26.921  39.134  48.262  1.00  0.00     0.075 A 
HETATM   30  O   UNL     1      26.557  38.071  47.485  1.00  0.00    -0.325 OA
HETATM   31  C   UNL     1      26.540  36.977  48.290  1.00  0.00     0.142 A 
HETATM   32  C   UNL     1      26.893  37.318  49.573  1.00  0.00     0.027 A 
HETATM   33  C   UNL     1      27.142  38.711  49.556  1.00  0.00     0.037 A 
ENDBRANCH   6  29
TORSDOF 6
ENDMDL
MODEL 7
REMARK VINA RESULT:      -8.0      4.656      9.521
REMARK  6 active torsions:
REMARK  status: ('A' for Active; 'I' for Inactive)
REMARK    1  A    between atoms: C_2  and  O_3 
REMARK    2  A    between atoms: C_2  and  C_4 
REMARK    3  A    between atoms: C_7  and  N_8 
REMARK       I    between atoms: N_8  and  C_9 
REMARK    4  A    between atoms: C_9  and  C_10 
REMARK    5  A    between atoms: C_13  and  C_14 
REMARK    6  A    between atoms: C_19  and  C_20 
ROOT
HETATM    1  C   UNL     1      23.639  47.119  49.216  1.00  0.00     0.096 C 
HETATM    2  C   UNL     1      23.603  45.822  49.693  1.00  0.00     0.138 C 
HETATM    3  N   UNL     1      24.873  45.554  50.152  1.00  0.00    -0.240 N 
HETATM    4  C   UNL     1      25.299  44.281  50.710  1.00  0.00     0.221 C 
HETATM    5  C   UNL     1      24.080  43.390  51.015  1.00  0.00     0.068 C 
HETATM    6  C   UNL     1      23.040  43.460  49.888  1.00  0.00     0.143 C 
HETATM    7  N   UNL     1      22.627  44.870  49.734  1.00  0.00    -0.363 N 
HETATM    8  N   UNL     1      25.761  46.514  49.848  1.00  0.00    -0.181 NA
HETATM    9  C   UNL     1      25.006  47.473  49.307  1.00  0.00     0.160 C 
HETATM   10  H   UNL     1      21.848  44.958  49.077  1.00  0.00     0.162 HD
ENDROOT
BRANCH   1  11
HETATM   11  C   UNL     1      22.568  47.946  48.688  1.00  0.00     0.261 C 
HETATM   12  N   UNL     1      22.007  48.786  49.631  1.00  0.00    -0.323 N 
HETATM   13  H   UNL     1      22.466  48.794  50.536  1.00  0.00     0.169 HD
HETATM   14  O   UNL     1      22.277  47.894  47.499  1.00  0.00    -0.267 OA
BRANCH  12  15
HETATM   15  C   UNL     1      20.990  49.740  49.429  1.00  0.00     0.035 A 
HETATM   16  C   UNL     1      21.169  50.928  48.721  1.00  0.00     0.030 A 
HETATM   17  C   UNL     1      20.118  51.844  48.589  1.00  0.00     0.012 A 
HETATM   18  C   UNL     1      18.865  51.592  49.163  1.00  0.00    -0.030 A 
HETATM   19  C   UNL     1      18.686  50.391  49.861  1.00  0.00     0.012 A 
HETATM   20  C   UNL     1      19.734  49.471  49.984  1.00  0.00     0.030 A 
BRANCH  18  21
HETATM   21  C   UNL     1      17.768  52.629  49.056  1.00  0.00     0.147 C 
HETATM   22  C   UNL     1      16.592  52.286  49.963  1.00  0.00     0.044 C 
BRANCH  21  23
HETATM   23  O   UNL     1      17.306  52.730  47.710  1.00  0.00    -0.391 OA
HETATM   24  H   UNL     1      17.988  52.328  47.146  1.00  0.00     0.210 HD
ENDBRANCH  21  23
ENDBRANCH  18  21
ENDBRANCH  12  15
ENDBRANCH   1  11
BRANCH   4  25
HETATM   25  C   UNL     1      26.111  44.474  51.971  1.00  0.00     0.409 C 
HETATM   26  F   UNL     1      25.630  45.476  52.743  1.00  0.00    -0.169 F 
HETATM   27  F   UNL     1      26.054  43.345  52.729  1.00  0.00    -0.169 F 
HETATM   28  F   UNL     1      27.420  44.707  51.746  1.00  0.00    -0.169 F 
ENDBRANCH   4  25
BRANCH   6  29
HETATM   29  C   UNL     1      23.541  42.801  48.635  1.00  0.00     0.075 A 
HETATM   30  O   UNL     1      23.060  43.299  47.457  1.00  0.00    -0.325 OA
HETATM   31  C   UNL     1      23.607  42.560  46.458  1.00  0.00     0.142 A 
HETATM   32  C   UNL     1      24.437  41.595  46.974  1.00  0.00     0.027 A 
HETATM   33  C   UNL     1      24.399  41.750  48.379  1.00  0.00     0.037 A 
ENDBRANCH   6  29
TORSDOF 6
ENDMDL
MODEL 8
REMARK VINA RESULT:      -7.7      4.285      9.618
REMARK  6 active torsions:
REMARK  status: ('A' for Active; 'I' for Inactive)
REMARK    1  A    between atoms: C_2  and  O_3 
REMARK    2  A    between atoms: C_2  and  C_4 
REMARK    3  A    between atoms: C_7  and  N_8 
REMARK       I    between atoms: N_8  and  C_9 
REMARK    4  A    between atoms: C_9  and  C_10 
REMARK    5  A    between atoms: C_13  and  C_14 
REMARK    6  A    between atoms: C_19  and  C_20 
ROOT
HETATM    1  C   UNL     1      24.323  47.152  50.169  1.00  0.00     0.096 C 
HETATM    2  C   UNL     1      24.541  46.047  50.968  1.00  0.00     0.138 C 
HETATM    3  N   UNL     1      25.675  46.328  51.698  1.00  0.00    -0.240 N 
HETATM    4  C   UNL     1      26.293  45.419  52.649  1.00  0.00     0.221 C 
HETATM    5  C   UNL     1      25.345  44.246  52.969  1.00  0.00     0.068 C 
HETATM    6  C   UNL     1      24.651  43.727  51.703  1.00  0.00     0.143 C 
HETATM    7  N   UNL     1      23.904  44.848  51.099  1.00  0.00    -0.363 N 
HETATM    8  N   UNL     1      26.297  47.450  51.301  1.00  0.00    -0.181 NA
HETATM    9  C   UNL     1      25.461  47.963  50.395  1.00  0.00     0.160 C 
HETATM   10  H   UNL     1      23.325  44.530  50.317  1.00  0.00     0.162 HD
ENDROOT
BRANCH   1  11
HETATM   11  C   UNL     1      23.230  47.438  49.255  1.00  0.00     0.261 C 
HETATM   12  N   UNL     1      22.450  48.508  49.650  1.00  0.00    -0.323 N 
HETATM   13  H   UNL     1      22.785  49.016  50.463  1.00  0.00     0.169 HD
HETATM   14  O   UNL     1      23.101  46.790  48.223  1.00  0.00    -0.267 OA
BRANCH  12  15
HETATM   15  C   UNL     1      21.353  49.067  48.964  1.00  0.00     0.035 A 
HETATM   16  C   UNL     1      20.171  48.377  48.697  1.00  0.00     0.030 A 
HETATM   17  C   UNL     1      19.135  48.989  47.981  1.00  0.00     0.012 A 
HETATM   18  C   UNL     1      19.259  50.306  47.517  1.00  0.00    -0.030 A 
HETATM   19  C   UNL     1      20.442  50.999  47.801  1.00  0.00     0.012 A 
HETATM   20  C   UNL     1      21.473  50.390  48.525  1.00  0.00     0.030 A 
BRANCH  18  21
HETATM   21  C   UNL     1      18.147  50.918  46.693  1.00  0.00     0.147 C 
HETATM   22  C   UNL     1      18.426  50.783  45.200  1.00  0.00     0.044 C 
BRANCH  21  23
HETATM   23  O   UNL     1      17.990  52.299  47.015  1.00  0.00    -0.391 OA
HETATM   24  H   UNL     1      17.035  52.483  47.015  1.00  0.00     0.210 HD
ENDBRANCH  21  23
ENDBRANCH  18  21
ENDBRANCH  12  15
ENDBRANCH   1  11
BRANCH   4  25
HETATM   25  C   UNL     1      26.667  46.129  53.930  1.00  0.00     0.409 C 
HETATM   26  F   UNL     1      25.717  47.007  54.327  1.00  0.00    -0.169 F 
HETATM   27  F   UNL     1      26.795  45.221  54.936  1.00  0.00    -0.169 F 
HETATM   28  F   UNL     1      27.845  46.783  53.866  1.00  0.00    -0.169 F 
ENDBRANCH   4  25
BRANCH   6  29
HETATM   29  C   UNL     1      25.620  43.038  50.785  1.00  0.00     0.075 A 
HETATM   30  O   UNL     1      25.305  43.048  49.456  1.00  0.00    -0.325 OA
HETATM   31  C   UNL     1      26.281  42.360  48.810  1.00  0.00     0.142 A 
HETATM   32  C   UNL     1      27.225  41.911  49.702  1.00  0.00     0.027 A 
HETATM   33  C   UNL     1      26.802  42.351  50.978  1.00  0.00     0.037 A 
ENDBRANCH   6  29
TORSDOF 6
ENDMDL
MODEL 9
REMARK VINA RESULT:      -7.6      4.368      8.860
REMARK  6 active torsions:
REMARK  status: ('A' for Active; 'I' for Inactive)
REMARK    1  A    between atoms: C_2  and  O_3 
REMARK    2  A    between atoms: C_2  and  C_4 
REMARK    3  A    between atoms: C_7  and  N_8 
REMARK       I    between atoms: N_8  and  C_9 
REMARK    4  A    between atoms: C_9  and  C_10 
REMARK    5  A    between atoms: C_13  and  C_14 
REMARK    6  A    between atoms: C_19  and  C_20 
ROOT
HETATM    1  C   UNL     1      25.714  44.342  51.072  1.00  0.00     0.096 C 
HETATM    2  C   UNL     1      26.012  42.993  51.120  1.00  0.00     0.138 C 
HETATM    3  N   UNL     1      27.267  42.905  51.681  1.00  0.00    -0.240 N 
HETATM    4  C   UNL     1      27.994  41.663  51.888  1.00  0.00     0.221 C 
HETATM    5  C   UNL     1      27.058  40.452  51.702  1.00  0.00     0.068 C 
HETATM    6  C   UNL     1      26.132  40.642  50.493  1.00  0.00     0.143 C 
HETATM    7  N   UNL     1      25.348  41.875  50.708  1.00  0.00    -0.363 N 
HETATM    8  N   UNL     1      27.865  44.096  51.833  1.00  0.00    -0.181 NA
HETATM    9  C   UNL     1      26.913  44.967  51.491  1.00  0.00     0.160 C 
HETATM   10  H   UNL     1      24.629  41.987  49.989  1.00  0.00     0.162 HD
ENDROOT
BRANCH   1  11
HETATM   11  C   UNL     1      24.496  45.011  50.650  1.00  0.00     0.261 C 
HETATM   12  N   UNL     1      24.725  46.205  49.992  1.00  0.00    -0.323 N 
HETATM   13  H   UNL     1      25.699  46.418  49.803  1.00  0.00     0.169 HD
HETATM   14  O   UNL     1      23.405  44.487  50.840  1.00  0.00    -0.267 OA
BRANCH  12  15
HETATM   15  C   UNL     1      23.767  47.063  49.418  1.00  0.00     0.035 A 
HETATM   16  C   UNL     1      22.652  46.618  48.707  1.00  0.00     0.030 A 
HETATM   17  C   UNL     1      21.759  47.534  48.137  1.00  0.00     0.012 A 
HETATM   18  C   UNL     1      21.961  48.914  48.265  1.00  0.00    -0.030 A 
HETATM   19  C   UNL     1      23.074  49.356  48.992  1.00  0.00     0.012 A 
HETATM   20  C   UNL     1      23.961  48.441  49.570  1.00  0.00     0.030 A 
BRANCH  18  21
HETATM   21  C   UNL     1      21.013  49.878  47.585  1.00  0.00     0.147 C 
HETATM   22  C   UNL     1      20.697  51.069  48.482  1.00  0.00     0.044 C 
BRANCH  21  23
HETATM   23  O   UNL     1      19.795  49.219  47.239  1.00  0.00    -0.391 OA
HETATM   24  H   UNL     1      19.482  49.620  46.411  1.00  0.00     0.210 HD
ENDBRANCH  21  23
ENDBRANCH  18  21
ENDBRANCH  12  15
ENDBRANCH   1  11
BRANCH   4  25
HETATM   25  C   UNL     1      28.618  41.611  53.265  1.00  0.00     0.409 C 
HETATM   26  F   UNL     1      27.871  42.255  54.191  1.00  0.00    -0.169 F 
HETATM   27  F   UNL     1      28.709  40.318  53.677  1.00  0.00    -0.169 F 
HETATM   28  F   UNL     1      29.870  42.108  53.314  1.00  0.00    -0.169 F 
ENDBRANCH   4  25
BRANCH   6  29
HETATM   29  C   UNL     1      26.894  40.587  49.201  1.00  0.00     0.075 A 
HETATM   30  O   UNL     1      27.737  39.524  49.041  1.00  0.00    -0.325 OA
HETATM   31  C   UNL     1      28.342  39.672  47.834  1.00  0.00     0.142 A 
HETATM   32  C   UNL     1      27.898  40.813  47.211  1.00  0.00     0.027 A 
HETATM   33  C   UNL     1      26.960  41.404  48.090  1.00  0.00     0.037 A 
ENDBRANCH   6  29
TORSDOF 6
ENDMDL
MODEL 10
REMARK VINA RESULT:      -7.5     11.758     12.636
REMARK  6 active torsions:
REMARK  status: ('A' for Active; 'I' for Inactive)
REMARK    1  A    between atoms: C_2  and  O_3 
REMARK    2  A    between atoms: C_2  and  C_4 
REMARK    3  A    between atoms: C_7  and  N_8 
REMARK       I    between atoms: N_8  and  C_9 
REMARK    4  A    between atoms: C_9  and  C_10 
REMARK    5  A    between atoms: C_13  and  C_14 
REMARK    6  A    between atoms: C_19  and  C_20 
ROOT
HETATM    1  C   UNL     1      31.334  48.226  40.751  1.00  0.00     0.096 C 
HETATM    2  C   UNL     1      30.148  48.887  41.006  1.00  0.00     0.138 C 
HETATM    3  N   UNL     1      29.174  48.186  40.330  1.00  0.00    -0.240 N 
HETATM    4  C   UNL     1      27.768  48.553  40.290  1.00  0.00     0.221 C 
HETATM    5  C   UNL     1      27.460  49.627  41.352  1.00  0.00     0.068 C 
HETATM    6  C   UNL     1      28.563  50.694  41.404  1.00  0.00     0.143 C 
HETATM    7  N   UNL     1      29.840  50.016  41.706  1.00  0.00    -0.363 N 
HETATM    8  N   UNL     1      29.668  47.234  39.523  1.00  0.00    -0.181 NA
HETATM    9  C   UNL     1      30.974  47.240  39.801  1.00  0.00     0.160 C 
HETATM   10  H   UNL     1      30.589  50.693  41.871  1.00  0.00     0.162 HD
ENDROOT
BRANCH   1  11
HETATM   11  C   UNL     1      32.669  48.478  41.267  1.00  0.00     0.261 C 
HETATM   12  N   UNL     1      32.950  49.822  41.426  1.00  0.00    -0.323 N 
HETATM   13  H   UNL     1      32.173  50.453  41.259  1.00  0.00     0.169 HD
HETATM   14  O   UNL     1      33.403  47.544  41.564  1.00  0.00    -0.267 OA
BRANCH  12  15
HETATM   15  C   UNL     1      34.128  50.393  41.948  1.00  0.00     0.035 A 
HETATM   16  C   UNL     1      35.410  50.076  41.500  1.00  0.00     0.030 A 
HETATM   17  C   UNL     1      36.536  50.663  42.092  1.00  0.00     0.012 A 
HETATM   18  C   UNL     1      36.404  51.579  43.143  1.00  0.00    -0.030 A 
HETATM   19  C   UNL     1      35.114  51.904  43.580  1.00  0.00     0.012 A 
HETATM   20  C   UNL     1      33.988  51.326  42.983  1.00  0.00     0.030 A 
BRANCH  18  21
HETATM   21  C   UNL     1      37.642  52.148  43.802  1.00  0.00     0.147 C 
HETATM   22  C   UNL     1      38.912  51.599  43.162  1.00  0.00     0.044 C 
BRANCH  21  23
HETATM   23  O   UNL     1      37.652  51.840  45.196  1.00  0.00    -0.391 OA
HETATM   24  H   UNL     1      36.997  51.135  45.334  1.00  0.00     0.210 HD
ENDBRANCH  21  23
ENDBRANCH  18  21
ENDBRANCH  12  15
ENDBRANCH   1  11
BRANCH   4  25
HETATM   25  C   UNL     1      26.876  47.352  40.514  1.00  0.00     0.409 C 
HETATM   26  F   UNL     1      27.391  46.493  41.424  1.00  0.00    -0.169 F 
HETATM   27  F   UNL     1      25.676  47.760  41.008  1.00  0.00    -0.169 F 
HETATM   28  F   UNL     1      26.602  46.660  39.390  1.00  0.00    -0.169 F 
ENDBRANCH   4  25
BRANCH   6  29
HETATM   29  C   UNL     1      28.568  51.542  40.165  1.00  0.00     0.075 A 
HETATM   30  O   UNL     1      29.317  52.684  40.219  1.00  0.00    -0.325 OA
HETATM   31  C   UNL     1      29.170  53.314  39.025  1.00  0.00     0.142 A 
HETATM   32  C   UNL     1      28.340  52.593  38.200  1.00  0.00     0.027 A 
HETATM   33  C   UNL     1      27.953  51.447  38.933  1.00  0.00     0.037 A 
ENDBRANCH   6  29
TORSDOF 6
ENDMDL
