MODEL 1
REMARK VINA RESULT:     -10.6      0.000      0.000
REMARK  6 active torsions:
REMARK  status: ('A' for Active; 'I' for Inactive)
REMARK    1  A    between atoms: C_2  and  C_3 
REMARK    2  A    between atoms: C_3  and  C_4 
REMARK    3  A    between atoms: C_6  and  N_7 
REMARK    4  A    between atoms: C_9  and  C_10 
REMARK    5  A    between atoms: C_16  and  N_17 
REMARK       I    between atoms: N_17  and  C_18 
REMARK    6  A    between atoms: C_18  and  C_19 
ROOT
HETATM    1  N   UNL     1      26.883  42.650  49.860  1.00  0.00    -0.044 N 
HETATM    2  N   UNL     1      27.082  41.833  48.788  1.00  0.00    -0.148 NA
HETATM    3  C   UNL     1      27.764  40.801  49.296  1.00  0.00     0.115 A 
HETATM    4  C   UNL     1      27.963  40.924  50.688  1.00  0.00     0.087 A 
HETATM    5  C   UNL     1      27.374  42.116  51.043  1.00  0.00     0.152 A 
ENDROOT
BRANCH   5   6
HETATM    6  N   UNL     1      27.262  42.705  52.304  1.00  0.00    -0.310 N 
HETATM    7  C   UNL     1      28.301  43.488  52.926  1.00  0.00     0.236 C 
HETATM    8  O   UNL     1      29.337  43.729  52.318  1.00  0.00    -0.272 OA
HETATM    9  H   UNL     1      26.394  42.523  52.818  1.00  0.00     0.170 HD
BRANCH   7  10
HETATM   10  C   UNL     1      28.037  44.015  54.333  1.00  0.00     0.149 C 
HETATM   11  C   UNL     1      27.362  45.365  54.321  1.00  0.00    -0.007 A 
HETATM   12  C   UNL     1      28.015  46.476  54.858  1.00  0.00     0.083 A 
HETATM   13  C   UNL     1      26.075  45.524  53.780  1.00  0.00     0.011 A 
HETATM   14  C   UNL     1      27.397  47.727  54.857  1.00  0.00     0.038 A 
HETATM   15  O   UNL     1      29.275  46.426  55.401  1.00  0.00    -0.310 OA
HETATM   16  C   UNL     1      26.124  47.880  54.308  1.00  0.00     0.003 A 
HETATM   17  C   UNL     1      25.464  46.778  53.769  1.00  0.00     0.001 A 
HETATM   18  C   UNL     1      29.846  45.199  55.623  1.00  0.00     0.083 A 
HETATM   19  C   UNL     1      29.304  44.001  55.153  1.00  0.00    -0.007 A 
HETATM   20  C   UNL     1      31.026  45.197  56.369  1.00  0.00     0.038 A 
HETATM   21  C   UNL     1      29.949  42.792  55.463  1.00  0.00     0.011 A 
HETATM   22  C   UNL     1      31.122  42.791  56.217  1.00  0.00     0.001 A 
HETATM   23  C   UNL     1      31.663  43.993  56.667  1.00  0.00     0.003 A 
ENDBRANCH   7  10
ENDBRANCH   5   6
BRANCH   1  24
HETATM   24  C   UNL     1      26.234  43.881  49.693  1.00  0.00     0.732 A 
HETATM   25  N   UNL     1      26.677  44.983  50.215  1.00  0.00    -0.067 NA
HETATM   26  C   UNL     1      25.940  46.115  49.922  1.00  0.00     0.059 A 
HETATM   27  C   UNL     1      24.796  46.102  49.219  1.00  0.00     0.102 A 
HETATM   28  C   UNL     1      24.301  44.823  48.685  1.00  0.00     0.261 A 
HETATM   29  N   UNL     1      25.106  43.759  48.931  1.00  0.00    -0.152 N 
HETATM   30  O   UNL     1      23.248  44.748  48.068  1.00  0.00    -0.268 OA
HETATM   31  H   UNL     1      24.825  42.848  48.578  1.00  0.00     0.187 HD
BRANCH  26  32
HETATM   32  C   UNL     1      26.499  47.423  50.435  1.00  0.00     0.060 C 
BRANCH  32  33
HETATM   33  C   UNL     1      26.433  48.522  49.370  1.00  0.00     0.002 C 
HETATM   34  C   UNL     1      27.802  49.126  49.103  1.00  0.00     0.005 C 
ENDBRANCH  32  33
ENDBRANCH  26  32
ENDBRANCH   1  24
BRANCH   3  35
HETATM   35  C   UNL     1      28.253  39.664  48.464  1.00  0.00     0.105 A 
HETATM   36  O   UNL     1      27.874  39.441  47.169  1.00  0.00    -0.320 OA
HETATM   37  C   UNL     1      28.509  38.317  46.750  1.00  0.00     0.142 A 
HETATM   38  C   UNL     1      29.299  37.808  47.752  1.00  0.00     0.027 A 
HETATM   39  C   UNL     1      29.134  38.676  48.859  1.00  0.00     0.041 A 
ENDBRANCH   3  35
TORSDOF 6
ENDMDL
MODEL 2
REMARK VINA RESULT:     -10.5      1.586      3.448
REMARK  6 active torsions:
REMARK  status: ('A' for Active; 'I' for Inactive)
REMARK    1  A    between atoms: C_2  and  C_3 
REMARK    2  A    between atoms: C_3  and  C_4 
REMARK    3  A    between atoms: C_6  and  N_7 
REMARK    4  A    between atoms: C_9  and  C_10 
REMARK    5  A    between atoms: C_16  and  N_17 
REMARK       I    between atoms: N_17  and  C_18 
REMARK    6  A    between atoms: C_18  and  C_19 
ROOT
HETATM    1  N   UNL     1      27.118  42.832  51.088  1.00  0.00    -0.044 N 
HETATM    2  N   UNL     1      26.822  41.635  50.508  1.00  0.00    -0.148 NA
HETATM    3  C   UNL     1      27.858  40.856  50.840  1.00  0.00     0.115 A 
HETATM    4  C   UNL     1      28.789  41.525  51.663  1.00  0.00     0.087 A 
HETATM    5  C   UNL     1      28.291  42.797  51.828  1.00  0.00     0.152 A 
ENDROOT
BRANCH   5   6
HETATM    6  N   UNL     1      28.809  43.859  52.574  1.00  0.00    -0.310 N 
HETATM    7  C   UNL     1      28.502  44.097  53.962  1.00  0.00     0.236 C 
HETATM    8  O   UNL     1      27.798  43.307  54.581  1.00  0.00    -0.272 OA
HETATM    9  H   UNL     1      29.409  44.519  52.071  1.00  0.00     0.170 HD
BRANCH   7  10
HETATM   10  C   UNL     1      29.109  45.336  54.614  1.00  0.00     0.149 C 
HETATM   11  C   UNL     1      29.913  44.997  55.845  1.00  0.00    -0.007 A 
HETATM   12  C   UNL     1      29.514  45.480  57.094  1.00  0.00     0.083 A 
HETATM   13  C   UNL     1      31.069  44.204  55.758  1.00  0.00     0.011 A 
HETATM   14  C   UNL     1      30.254  45.178  58.237  1.00  0.00     0.038 A 
HETATM   15  O   UNL     1      28.397  46.254  57.285  1.00  0.00    -0.310 OA
HETATM   16  C   UNL     1      31.394  44.381  58.145  1.00  0.00     0.003 A 
HETATM   17  C   UNL     1      31.801  43.893  56.904  1.00  0.00     0.001 A 
HETATM   18  C   UNL     1      27.750  46.758  56.185  1.00  0.00     0.083 A 
HETATM   19  C   UNL     1      28.047  46.375  54.876  1.00  0.00    -0.007 A 
HETATM   20  C   UNL     1      26.759  47.708  56.437  1.00  0.00     0.038 A 
HETATM   21  C   UNL     1      27.349  46.976  53.814  1.00  0.00     0.011 A 
HETATM   22  C   UNL     1      26.365  47.931  54.067  1.00  0.00     0.001 A 
HETATM   23  C   UNL     1      26.067  48.295  55.379  1.00  0.00     0.003 A 
ENDBRANCH   7  10
ENDBRANCH   5   6
BRANCH   1  24
HETATM   24  C   UNL     1      26.265  43.930  50.904  1.00  0.00     0.732 A 
HETATM   25  N   UNL     1      26.700  45.150  50.836  1.00  0.00    -0.067 NA
HETATM   26  C   UNL     1      25.731  46.112  50.615  1.00  0.00     0.059 A 
HETATM   27  C   UNL     1      24.415  45.848  50.553  1.00  0.00     0.102 A 
HETATM   28  C   UNL     1      23.959  44.455  50.684  1.00  0.00     0.261 A 
HETATM   29  N   UNL     1      24.957  43.544  50.816  1.00  0.00    -0.152 N 
HETATM   30  O   UNL     1      22.772  44.162  50.669  1.00  0.00    -0.268 OA
HETATM   31  H   UNL     1      24.708  42.563  50.899  1.00  0.00     0.187 HD
BRANCH  26  32
HETATM   32  C   UNL     1      26.229  47.527  50.428  1.00  0.00     0.060 C 
BRANCH  32  33
HETATM   33  C   UNL     1      27.323  47.605  49.360  1.00  0.00     0.002 C 
HETATM   34  C   UNL     1      27.757  49.040  49.106  1.00  0.00     0.005 C 
ENDBRANCH  32  33
ENDBRANCH  26  32
ENDBRANCH   1  24
BRANCH   3  35
HETATM   35  C   UNL     1      27.993  39.446  50.375  1.00  0.00     0.105 A 
HETATM   36  O   UNL     1      26.976  38.719  49.819  1.00  0.00    -0.320 OA
HETATM   37  C   UNL     1      27.467  37.486  49.536  1.00  0.00     0.142 A 
HETATM   38  C   UNL     1      28.790  37.401  49.897  1.00  0.00     0.027 A 
HETATM   39  C   UNL     1      29.130  38.664  50.438  1.00  0.00     0.041 A 
ENDBRANCH   3  35
TORSDOF 6
ENDMDL
MODEL 3
REMARK VINA RESULT:     -10.2      2.656      8.267
REMARK  6 active torsions:
REMARK  status: ('A' for Active; 'I' for Inactive)
REMARK    1  A    between atoms: C_2  and  C_3 
REMARK    2  A    between atoms: C_3  and  C_4 
REMARK    3  A    between atoms: C_6  and  N_7 
REMARK    4  A    between atoms: C_9  and  C_10 
REMARK    5  A    between atoms: C_16  and  N_17 
REMARK       I    between atoms: N_17  and  C_18 
REMARK    6  A    between atoms: C_18  and  C_19 
ROOT
HETATM    1  N   UNL     1      25.224  46.545  51.378  1.00  0.00    -0.044 N 
HETATM    2  N   UNL     1      24.978  47.827  50.984  1.00  0.00    -0.148 NA
HETATM    3  C   UNL     1      24.299  47.683  49.840  1.00  0.00     0.115 A 
HETATM    4  C   UNL     1      24.067  46.327  49.522  1.00  0.00     0.087 A 
HETATM    5  C   UNL     1      24.657  45.603  50.533  1.00  0.00     0.152 A 
ENDROOT
BRANCH   5   6
HETATM    6  N   UNL     1      24.700  44.219  50.720  1.00  0.00    -0.310 N 
HETATM    7  C   UNL     1      25.601  43.337  50.021  1.00  0.00     0.236 C 
HETATM    8  O   UNL     1      26.440  43.795  49.254  1.00  0.00    -0.272 OA
HETATM    9  H   UNL     1      24.013  43.825  51.369  1.00  0.00     0.170 HD
BRANCH   7  10
HETATM   10  C   UNL     1      25.481  41.842  50.302  1.00  0.00     0.149 C 
HETATM   11  C   UNL     1      26.769  41.253  50.822  1.00  0.00    -0.007 A 
HETATM   12  C   UNL     1      27.439  40.277  50.081  1.00  0.00     0.083 A 
HETATM   13  C   UNL     1      27.308  41.667  52.052  1.00  0.00     0.011 A 
HETATM   14  C   UNL     1      28.628  39.722  50.557  1.00  0.00     0.038 A 
HETATM   15  O   UNL     1      27.000  39.813  48.867  1.00  0.00    -0.310 OA
HETATM   16  C   UNL     1      29.163  40.145  51.772  1.00  0.00     0.003 A 
HETATM   17  C   UNL     1      28.502  41.118  52.519  1.00  0.00     0.001 A 
HETATM   18  C   UNL     1      25.740  40.160  48.447  1.00  0.00     0.083 A 
HETATM   19  C   UNL     1      24.950  41.114  49.091  1.00  0.00    -0.007 A 
HETATM   20  C   UNL     1      25.264  39.493  47.318  1.00  0.00     0.038 A 
HETATM   21  C   UNL     1      23.659  41.374  48.602  1.00  0.00     0.011 A 
HETATM   22  C   UNL     1      23.181  40.699  47.479  1.00  0.00     0.001 A 
HETATM   23  C   UNL     1      23.984  39.761  46.834  1.00  0.00     0.003 A 
ENDBRANCH   7  10
ENDBRANCH   5   6
BRANCH   1  24
HETATM   24  C   UNL     1      25.978  46.301  52.535  1.00  0.00     0.732 A 
HETATM   25  N   UNL     1      26.807  45.307  52.634  1.00  0.00    -0.067 NA
HETATM   26  C   UNL     1      27.499  45.230  53.828  1.00  0.00     0.059 A 
HETATM   27  C   UNL     1      27.295  46.059  54.866  1.00  0.00     0.102 A 
HETATM   28  C   UNL     1      26.310  47.144  54.731  1.00  0.00     0.261 A 
HETATM   29  N   UNL     1      25.721  47.223  53.510  1.00  0.00    -0.152 N 
HETATM   30  O   UNL     1      26.059  47.905  55.655  1.00  0.00    -0.268 OA
HETATM   31  H   UNL     1      25.040  47.959  53.349  1.00  0.00     0.187 HD
BRANCH  26  32
HETATM   32  C   UNL     1      28.544  44.142  53.922  1.00  0.00     0.060 C 
BRANCH  32  33
HETATM   33  C   UNL     1      29.458  44.339  55.135  1.00  0.00     0.002 C 
HETATM   34  C   UNL     1      30.581  43.315  55.162  1.00  0.00     0.005 C 
ENDBRANCH  32  33
ENDBRANCH  26  32
ENDBRANCH   1  24
BRANCH   3  35
HETATM   35  C   UNL     1      23.854  48.839  49.011  1.00  0.00     0.105 A 
HETATM   36  O   UNL     1      24.543  50.016  48.901  1.00  0.00    -0.320 OA
HETATM   37  C   UNL     1      23.829  50.826  48.078  1.00  0.00     0.142 A 
HETATM   38  C   UNL     1      22.689  50.192  47.648  1.00  0.00     0.027 A 
HETATM   39  C   UNL     1      22.704  48.910  48.249  1.00  0.00     0.041 A 
ENDBRANCH   3  35
TORSDOF 6
ENDMDL
MODEL 4
REMARK VINA RESULT:      -9.5      3.682      8.995
REMARK  6 active torsions:
REMARK  status: ('A' for Active; 'I' for Inactive)
REMARK    1  A    between atoms: C_2  and  C_3 
REMARK    2  A    between atoms: C_3  and  C_4 
REMARK    3  A    between atoms: C_6  and  N_7 
REMARK    4  A    between atoms: C_9  and  C_10 
REMARK    5  A    between atoms: C_16  and  N_17 
REMARK       I    between atoms: N_17  and  C_18 
REMARK    6  A    between atoms: C_18  and  C_19 
ROOT
HETATM    1  N   UNL     1      24.717  47.203  50.450  1.00  0.00    -0.044 N 
HETATM    2  N   UNL     1      25.533  47.537  51.490  1.00  0.00    -0.148 NA
HETATM    3  C   UNL     1      25.743  46.373  52.115  1.00  0.00     0.115 A 
HETATM    4  C   UNL     1      25.112  45.292  51.461  1.00  0.00     0.087 A 
HETATM    5  C   UNL     1      24.465  45.841  50.378  1.00  0.00     0.152 A 
ENDROOT
BRANCH   5   6
HETATM    6  N   UNL     1      23.711  45.209  49.387  1.00  0.00    -0.310 N 
HETATM    7  C   UNL     1      22.802  44.117  49.635  1.00  0.00     0.236 C 
HETATM    8  O   UNL     1      22.603  43.731  50.781  1.00  0.00    -0.272 OA
HETATM    9  H   UNL     1      23.858  45.532  48.426  1.00  0.00     0.170 HD
BRANCH   7  10
HETATM   10  C   UNL     1      22.096  43.503  48.431  1.00  0.00     0.149 C 
HETATM   11  C   UNL     1      22.987  42.554  47.668  1.00  0.00    -0.007 A 
HETATM   12  C   UNL     1      23.337  42.837  46.346  1.00  0.00     0.083 A 
HETATM   13  C   UNL     1      23.470  41.378  48.265  1.00  0.00     0.011 A 
HETATM   14  C   UNL     1      24.157  41.964  45.630  1.00  0.00     0.038 A 
HETATM   15  O   UNL     1      22.925  43.963  45.677  1.00  0.00    -0.310 OA
HETATM   16  C   UNL     1      24.642  40.804  46.232  1.00  0.00     0.003 A 
HETATM   17  C   UNL     1      24.299  40.512  47.551  1.00  0.00     0.001 A 
HETATM   18  C   UNL     1      21.956  44.748  46.248  1.00  0.00     0.083 A 
HETATM   19  C   UNL     1      21.500  44.578  47.557  1.00  0.00    -0.007 A 
HETATM   20  C   UNL     1      21.421  45.750  45.437  1.00  0.00     0.038 A 
HETATM   21  C   UNL     1      20.478  45.415  48.037  1.00  0.00     0.011 A 
HETATM   22  C   UNL     1      19.939  46.410  47.222  1.00  0.00     0.001 A 
HETATM   23  C   UNL     1      20.412  46.581  45.924  1.00  0.00     0.003 A 
ENDBRANCH   7  10
ENDBRANCH   5   6
BRANCH   1  24
HETATM   24  C   UNL     1      24.235  48.200  49.590  1.00  0.00     0.732 A 
HETATM   25  N   UNL     1      22.969  48.431  49.427  1.00  0.00    -0.067 NA
HETATM   26  C   UNL     1      22.663  49.474  48.572  1.00  0.00     0.059 A 
HETATM   27  C   UNL     1      23.581  50.167  47.878  1.00  0.00     0.102 A 
HETATM   28  C   UNL     1      25.005  49.840  48.055  1.00  0.00     0.261 A 
HETATM   29  N   UNL     1      25.253  48.866  48.967  1.00  0.00    -0.152 N 
HETATM   30  O   UNL     1      25.881  50.415  47.423  1.00  0.00    -0.268 OA
HETATM   31  H   UNL     1      26.218  48.603  49.144  1.00  0.00     0.187 HD
BRANCH  26  32
HETATM   32  C   UNL     1      21.198  49.827  48.450  1.00  0.00     0.060 C 
BRANCH  32  33
HETATM   33  C   UNL     1      20.859  51.107  49.218  1.00  0.00     0.002 C 
HETATM   34  C   UNL     1      19.762  51.901  48.526  1.00  0.00     0.005 C 
ENDBRANCH  32  33
ENDBRANCH  26  32
ENDBRANCH   1  24
BRANCH   3  35
HETATM   35  C   UNL     1      26.553  46.257  53.362  1.00  0.00     0.105 A 
HETATM   36  O   UNL     1      27.111  45.091  53.810  1.00  0.00    -0.320 OA
HETATM   37  C   UNL     1      27.756  45.371  54.970  1.00  0.00     0.142 A 
HETATM   38  C   UNL     1      27.630  46.703  55.282  1.00  0.00     0.027 A 
HETATM   39  C   UNL     1      26.853  47.276  54.245  1.00  0.00     0.041 A 
ENDBRANCH   3  35
TORSDOF 6
ENDMDL
MODEL 5
REMARK VINA RESULT:      -9.4      4.069      9.307
REMARK  6 active torsions:
REMARK  status: ('A' for Active; 'I' for Inactive)
REMARK    1  A    between atoms: C_2  and  C_3 
REMARK    2  A    between atoms: C_3  and  C_4 
REMARK    3  A    between atoms: C_6  and  N_7 
REMARK    4  A    between atoms: C_9  and  C_10 
REMARK    5  A    between atoms: C_16  and  N_17 
REMARK       I    between atoms: N_17  and  C_18 
REMARK    6  A    between atoms: C_18  and  C_19 
ROOT
HETATM    1  N   UNL     1      24.499  47.176  50.236  1.00  0.00    -0.044 N 
HETATM    2  N   UNL     1      25.383  47.148  51.272  1.00  0.00    -0.148 NA
HETATM    3  C   UNL     1      25.408  45.860  51.635  1.00  0.00     0.115 A 
HETATM    4  C   UNL     1      24.586  45.057  50.813  1.00  0.00     0.087 A 
HETATM    5  C   UNL     1      24.017  45.918  49.903  1.00  0.00     0.152 A 
ENDROOT
BRANCH   5   6
HETATM    6  N   UNL     1      23.143  45.639  48.850  1.00  0.00    -0.310 N 
HETATM    7  C   UNL     1      22.172  44.573  48.866  1.00  0.00     0.236 C 
HETATM    8  O   UNL     1      22.029  43.886  49.871  1.00  0.00    -0.272 OA
HETATM    9  H   UNL     1      23.243  46.215  48.009  1.00  0.00     0.170 HD
BRANCH   7  10
HETATM   10  C   UNL     1      21.331  44.369  47.610  1.00  0.00     0.149 C 
HETATM   11  C   UNL     1      22.178  44.071  46.397  1.00  0.00    -0.007 A 
HETATM   12  C   UNL     1      22.185  44.956  45.317  1.00  0.00     0.083 A 
HETATM   13  C   UNL     1      22.962  42.906  46.331  1.00  0.00     0.011 A 
HETATM   14  C   UNL     1      22.961  44.686  44.188  1.00  0.00     0.038 A 
HETATM   15  O   UNL     1      21.463  46.122  45.288  1.00  0.00    -0.310 OA
HETATM   16  C   UNL     1      23.744  43.535  44.134  1.00  0.00     0.003 A 
HETATM   17  C   UNL     1      23.745  42.645  45.207  1.00  0.00     0.001 A 
HETATM   18  C   UNL     1      20.526  46.340  46.267  1.00  0.00     0.083 A 
HETATM   19  C   UNL     1      20.396  45.534  47.400  1.00  0.00    -0.007 A 
HETATM   20  C   UNL     1      19.676  47.429  46.071  1.00  0.00     0.038 A 
HETATM   21  C   UNL     1      19.381  45.821  48.328  1.00  0.00     0.011 A 
HETATM   22  C   UNL     1      18.526  46.904  48.127  1.00  0.00     0.001 A 
HETATM   23  C   UNL     1      18.675  47.711  47.001  1.00  0.00     0.003 A 
ENDBRANCH   7  10
ENDBRANCH   5   6
BRANCH   1  24
HETATM   24  C   UNL     1      24.173  48.396  49.625  1.00  0.00     0.732 A 
HETATM   25  N   UNL     1      23.041  48.997  49.822  1.00  0.00    -0.067 NA
HETATM   26  C   UNL     1      22.894  50.209  49.174  1.00  0.00     0.059 A 
HETATM   27  C   UNL     1      23.804  50.721  48.328  1.00  0.00     0.102 A 
HETATM   28  C   UNL     1      25.055  49.983  48.094  1.00  0.00     0.261 A 
HETATM   29  N   UNL     1      25.182  48.843  48.818  1.00  0.00    -0.152 N 
HETATM   30  O   UNL     1      25.902  50.385  47.309  1.00  0.00    -0.268 OA
HETATM   31  H   UNL     1      26.030  48.293  48.711  1.00  0.00     0.187 HD
BRANCH  26  32
HETATM   32  C   UNL     1      21.625  50.974  49.474  1.00  0.00     0.060 C 
BRANCH  32  33
HETATM   33  C   UNL     1      20.712  51.059  48.247  1.00  0.00     0.002 C 
HETATM   34  C   UNL     1      19.564  52.030  48.469  1.00  0.00     0.005 C 
ENDBRANCH  32  33
ENDBRANCH  26  32
ENDBRANCH   1  24
BRANCH   3  35
HETATM   35  C   UNL     1      26.214  45.356  52.783  1.00  0.00     0.105 A 
HETATM   36  O   UNL     1      26.655  44.066  52.904  1.00  0.00    -0.320 OA
HETATM   37  C   UNL     1      27.338  43.981  54.074  1.00  0.00     0.142 A 
HETATM   38  C   UNL     1      27.352  45.197  54.713  1.00  0.00     0.027 A 
HETATM   39  C   UNL     1      26.627  46.085  53.881  1.00  0.00     0.041 A 
ENDBRANCH   3  35
TORSDOF 6
ENDMDL
MODEL 6
REMARK VINA RESULT:      -9.0      3.760      8.686
REMARK  6 active torsions:
REMARK  status: ('A' for Active; 'I' for Inactive)
REMARK    1  A    between atoms: C_2  and  C_3 
REMARK    2  A    between atoms: C_3  and  C_4 
REMARK    3  A    between atoms: C_6  and  N_7 
REMARK    4  A    between atoms: C_9  and  C_10 
REMARK    5  A    between atoms: C_16  and  N_17 
REMARK       I    between atoms: N_17  and  C_18 
REMARK    6  A    between atoms: C_18  and  C_19 
ROOT
HETATM    1  N   UNL     1      25.166  47.167  50.425  1.00  0.00    -0.044 N 
HETATM    2  N   UNL     1      25.763  47.362  51.635  1.00  0.00    -0.148 NA
HETATM    3  C   UNL     1      26.118  46.130  52.016  1.00  0.00     0.115 A 
HETATM    4  C   UNL     1      25.798  45.156  51.045  1.00  0.00     0.087 A 
HETATM    5  C   UNL     1      25.197  45.843  50.015  1.00  0.00     0.152 A 
ENDROOT
BRANCH   5   6
HETATM    6  N   UNL     1      24.712  45.361  48.797  1.00  0.00    -0.310 N 
HETATM    7  C   UNL     1      23.470  44.643  48.648  1.00  0.00     0.236 C 
HETATM    8  O   UNL     1      22.735  44.480  49.615  1.00  0.00    -0.272 OA
HETATM    9  H   UNL     1      25.311  45.504  47.978  1.00  0.00     0.170 HD
BRANCH   7  10
HETATM   10  C   UNL     1      23.112  44.138  47.254  1.00  0.00     0.149 C 
HETATM   11  C   UNL     1      21.797  44.694  46.765  1.00  0.00    -0.007 A 
HETATM   12  C   UNL     1      20.727  43.833  46.512  1.00  0.00     0.083 A 
HETATM   13  C   UNL     1      21.631  46.072  46.551  1.00  0.00     0.011 A 
HETATM   14  C   UNL     1      19.509  44.336  46.054  1.00  0.00     0.038 A 
HETATM   15  O   UNL     1      20.787  42.475  46.699  1.00  0.00    -0.310 OA
HETATM   16  C   UNL     1      19.347  45.706  45.854  1.00  0.00     0.003 A 
HETATM   17  C   UNL     1      20.408  46.574  46.103  1.00  0.00     0.001 A 
HETATM   18  C   UNL     1      22.007  41.898  46.943  1.00  0.00     0.083 A 
HETATM   19  C   UNL     1      23.167  42.631  47.204  1.00  0.00    -0.007 A 
HETATM   20  C   UNL     1      22.045  40.503  46.910  1.00  0.00     0.038 A 
HETATM   21  C   UNL     1      24.376  41.946  47.408  1.00  0.00     0.011 A 
HETATM   22  C   UNL     1      24.414  40.552  47.365  1.00  0.00     0.001 A 
HETATM   23  C   UNL     1      23.248  39.830  47.120  1.00  0.00     0.003 A 
ENDBRANCH   7  10
ENDBRANCH   5   6
BRANCH   1  24
HETATM   24  C   UNL     1      24.609  48.254  49.736  1.00  0.00     0.732 A 
HETATM   25  N   UNL     1      23.377  48.627  49.895  1.00  0.00    -0.067 NA
HETATM   26  C   UNL     1      22.997  49.740  49.169  1.00  0.00     0.059 A 
HETATM   27  C   UNL     1      23.795  50.367  48.288  1.00  0.00     0.102 A 
HETATM   28  C   UNL     1      25.171  49.882  48.100  1.00  0.00     0.261 A 
HETATM   29  N   UNL     1      25.517  48.840  48.898  1.00  0.00    -0.152 N 
HETATM   30  O   UNL     1      25.929  50.393  47.287  1.00  0.00    -0.268 OA
HETATM   31  H   UNL     1      26.458  48.466  48.825  1.00  0.00     0.187 HD
BRANCH  26  32
HETATM   32  C   UNL     1      21.597  50.253  49.420  1.00  0.00     0.060 C 
BRANCH  32  33
HETATM   33  C   UNL     1      21.203  51.339  48.415  1.00  0.00     0.002 C 
HETATM   34  C   UNL     1      19.789  51.840  48.657  1.00  0.00     0.005 C 
ENDBRANCH  32  33
ENDBRANCH  26  32
ENDBRANCH   1  24
BRANCH   3  35
HETATM   35  C   UNL     1      26.771  45.842  53.325  1.00  0.00     0.105 A 
HETATM   36  O   UNL     1      27.096  44.587  53.762  1.00  0.00    -0.320 OA
HETATM   37  C   UNL     1      27.657  44.720  54.991  1.00  0.00     0.142 A 
HETATM   38  C   UNL     1      27.706  46.043  55.357  1.00  0.00     0.027 A 
HETATM   39  C   UNL     1      27.134  46.768  54.284  1.00  0.00     0.041 A 
ENDBRANCH   3  35
TORSDOF 6
ENDMDL
MODEL 7
REMARK VINA RESULT:      -8.8      6.664     11.480
REMARK  6 active torsions:
REMARK  status: ('A' for Active; 'I' for Inactive)
REMARK    1  A    between atoms: C_2  and  C_3 
REMARK    2  A    between atoms: C_3  and  C_4 
REMARK    3  A    between atoms: C_6  and  N_7 
REMARK    4  A    between atoms: C_9  and  C_10 
REMARK    5  A    between atoms: C_16  and  N_17 
REMARK       I    between atoms: N_17  and  C_18 
REMARK    6  A    between atoms: C_18  and  C_19 
ROOT
HETATM    1  N   UNL     1      22.061  48.932  49.160  1.00  0.00    -0.044 N 
HETATM    2  N   UNL     1      23.268  49.553  49.277  1.00  0.00    -0.148 NA
HETATM    3  C   UNL     1      24.152  48.577  49.041  1.00  0.00     0.115 A 
HETATM    4  C   UNL     1      23.525  47.351  48.728  1.00  0.00     0.087 A 
HETATM    5  C   UNL     1      22.173  47.599  48.793  1.00  0.00     0.152 A 
ENDROOT
BRANCH   5   6
HETATM    6  N   UNL     1      21.103  46.735  48.547  1.00  0.00    -0.310 N 
HETATM    7  C   UNL     1      20.580  46.450  47.234  1.00  0.00     0.236 C 
HETATM    8  O   UNL     1      21.119  46.924  46.241  1.00  0.00    -0.272 OA
HETATM    9  H   UNL     1      20.653  46.321  49.368  1.00  0.00     0.170 HD
BRANCH   7  10
HETATM   10  C   UNL     1      19.371  45.525  47.144  1.00  0.00     0.149 C 
HETATM   11  C   UNL     1      19.573  44.416  46.140  1.00  0.00    -0.007 A 
HETATM   12  C   UNL     1      18.749  44.336  45.015  1.00  0.00     0.083 A 
HETATM   13  C   UNL     1      20.577  43.451  46.322  1.00  0.00     0.011 A 
HETATM   14  C   UNL     1      18.924  43.312  44.084  1.00  0.00     0.038 A 
HETATM   15  O   UNL     1      17.748  45.235  44.744  1.00  0.00    -0.310 OA
HETATM   16  C   UNL     1      19.930  42.364  44.264  1.00  0.00     0.003 A 
HETATM   17  C   UNL     1      20.757  42.435  45.383  1.00  0.00     0.001 A 
HETATM   18  C   UNL     1      17.389  46.133  45.716  1.00  0.00     0.083 A 
HETATM   19  C   UNL     1      18.111  46.317  46.897  1.00  0.00    -0.007 A 
HETATM   20  C   UNL     1      16.231  46.873  45.472  1.00  0.00     0.038 A 
HETATM   21  C   UNL     1      17.641  47.240  47.847  1.00  0.00     0.011 A 
HETATM   22  C   UNL     1      16.479  47.972  47.606  1.00  0.00     0.001 A 
HETATM   23  C   UNL     1      15.775  47.792  46.417  1.00  0.00     0.003 A 
ENDBRANCH   7  10
ENDBRANCH   5   6
BRANCH   1  24
HETATM   24  C   UNL     1      20.879  49.648  49.399  1.00  0.00     0.732 A 
HETATM   25  N   UNL     1      20.573  50.730  48.752  1.00  0.00    -0.067 NA
HETATM   26  C   UNL     1      19.354  51.292  49.082  1.00  0.00     0.059 A 
HETATM   27  C   UNL     1      18.554  50.826  50.055  1.00  0.00     0.102 A 
HETATM   28  C   UNL     1      18.960  49.623  50.799  1.00  0.00     0.261 A 
HETATM   29  N   UNL     1      20.124  49.066  50.378  1.00  0.00    -0.152 N 
HETATM   30  O   UNL     1      18.288  49.176  51.717  1.00  0.00    -0.268 OA
HETATM   31  H   UNL     1      20.454  48.225  50.844  1.00  0.00     0.187 HD
BRANCH  26  32
HETATM   32  C   UNL     1      18.933  52.494  48.266  1.00  0.00     0.060 C 
BRANCH  32  33
HETATM   33  C   UNL     1      17.768  52.161  47.329  1.00  0.00     0.002 C 
HETATM   34  C   UNL     1      18.158  51.111  46.302  1.00  0.00     0.005 C 
ENDBRANCH  32  33
ENDBRANCH  26  32
ENDBRANCH   1  24
BRANCH   3  35
HETATM   35  C   UNL     1      25.627  48.784  49.112  1.00  0.00     0.105 A 
HETATM   36  O   UNL     1      26.276  49.871  48.594  1.00  0.00    -0.320 OA
HETATM   37  C   UNL     1      27.601  49.704  48.837  1.00  0.00     0.142 A 
HETATM   38  C   UNL     1      27.823  48.527  49.509  1.00  0.00     0.027 A 
HETATM   39  C   UNL     1      26.550  47.932  49.688  1.00  0.00     0.041 A 
ENDBRANCH   3  35
TORSDOF 6
ENDMDL
MODEL 8
REMARK VINA RESULT:      -8.7      1.984      7.778
REMARK  6 active torsions:
REMARK  status: ('A' for Active; 'I' for Inactive)
REMARK    1  A    between atoms: C_2  and  C_3 
REMARK    2  A    between atoms: C_3  and  C_4 
REMARK    3  A    between atoms: C_6  and  N_7 
REMARK    4  A    between atoms: C_9  and  C_10 
REMARK    5  A    between atoms: C_16  and  N_17 
REMARK       I    between atoms: N_17  and  C_18 
REMARK    6  A    between atoms: C_18  and  C_19 
ROOT
HETATM    1  N   UNL     1      26.902  43.849  52.195  1.00  0.00    -0.044 N 
HETATM    2  N   UNL     1      27.657  44.551  53.086  1.00  0.00    -0.148 NA
HETATM    3  C   UNL     1      28.437  43.619  53.645  1.00  0.00     0.115 A 
HETATM    4  C   UNL     1      28.224  42.338  53.089  1.00  0.00     0.087 A 
HETATM    5  C   UNL     1      27.240  42.505  52.142  1.00  0.00     0.152 A 
ENDROOT
BRANCH   5   6
HETATM    6  N   UNL     1      26.673  41.561  51.282  1.00  0.00    -0.310 N 
HETATM    7  C   UNL     1      26.876  41.544  49.854  1.00  0.00     0.236 C 
HETATM    8  O   UNL     1      27.636  42.350  49.331  1.00  0.00    -0.272 OA
HETATM    9  H   UNL     1      26.046  40.873  51.709  1.00  0.00     0.170 HD
BRANCH   7  10
HETATM   10  C   UNL     1      26.138  40.477  49.052  1.00  0.00     0.149 C 
HETATM   11  C   UNL     1      27.077  39.450  48.468  1.00  0.00    -0.007 A 
HETATM   12  C   UNL     1      27.190  39.317  47.082  1.00  0.00     0.083 A 
HETATM   13  C   UNL     1      27.841  38.614  49.299  1.00  0.00     0.011 A 
HETATM   14  C   UNL     1      28.051  38.366  46.532  1.00  0.00     0.038 A 
HETATM   15  O   UNL     1      26.495  40.091  46.188  1.00  0.00    -0.310 OA
HETATM   16  C   UNL     1      28.815  37.548  47.363  1.00  0.00     0.003 A 
HETATM   17  C   UNL     1      28.710  37.673  48.747  1.00  0.00     0.001 A 
HETATM   18  C   UNL     1      25.484  40.891  46.657  1.00  0.00     0.083 A 
HETATM   19  C   UNL     1      25.245  41.112  48.015  1.00  0.00    -0.007 A 
HETATM   20  C   UNL     1      24.673  41.487  45.690  1.00  0.00     0.038 A 
HETATM   21  C   UNL     1      24.162  41.923  48.394  1.00  0.00     0.011 A 
HETATM   22  C   UNL     1      23.347  42.510  47.427  1.00  0.00     0.001 A 
HETATM   23  C   UNL     1      23.604  42.295  46.075  1.00  0.00     0.003 A 
ENDBRANCH   7  10
ENDBRANCH   5   6
BRANCH   1  24
HETATM   24  C   UNL     1      25.912  44.503  51.447  1.00  0.00     0.732 A 
HETATM   25  N   UNL     1      26.104  45.659  50.891  1.00  0.00    -0.067 NA
HETATM   26  C   UNL     1      25.038  46.147  50.158  1.00  0.00     0.059 A 
HETATM   27  C   UNL     1      23.845  45.535  50.074  1.00  0.00     0.102 A 
HETATM   28  C   UNL     1      23.652  44.249  50.761  1.00  0.00     0.261 A 
HETATM   29  N   UNL     1      24.755  43.776  51.395  1.00  0.00    -0.152 N 
HETATM   30  O   UNL     1      22.578  43.666  50.746  1.00  0.00    -0.268 OA
HETATM   31  H   UNL     1      24.691  42.885  51.879  1.00  0.00     0.187 HD
BRANCH  26  32
HETATM   32  C   UNL     1      25.279  47.442  49.416  1.00  0.00     0.060 C 
BRANCH  32  33
HETATM   33  C   UNL     1      26.670  48.012  49.709  1.00  0.00     0.002 C 
HETATM   34  C   UNL     1      26.979  49.216  48.833  1.00  0.00     0.005 C 
ENDBRANCH  32  33
ENDBRANCH  26  32
ENDBRANCH   1  24
BRANCH   3  35
HETATM   35  C   UNL     1      29.410  43.922  54.734  1.00  0.00     0.105 A 
HETATM   36  O   UNL     1      29.394  45.068  55.481  1.00  0.00    -0.320 OA
HETATM   37  C   UNL     1      30.429  44.994  56.356  1.00  0.00     0.142 A 
HETATM   38  C   UNL     1      31.114  43.816  56.192  1.00  0.00     0.027 A 
HETATM   39  C   UNL     1      30.458  43.123  55.146  1.00  0.00     0.041 A 
ENDBRANCH   3  35
TORSDOF 6
ENDMDL
MODEL 9
REMARK VINA RESULT:      -8.6     16.669     19.764
REMARK  6 active torsions:
REMARK  status: ('A' for Active; 'I' for Inactive)
REMARK    1  A    between atoms: C_2  and  C_3 
REMARK    2  A    between atoms: C_3  and  C_4 
REMARK    3  A    between atoms: C_6  and  N_7 
REMARK    4  A    between atoms: C_9  and  C_10 
REMARK    5  A    between atoms: C_16  and  N_17 
REMARK       I    between atoms: N_17  and  C_18 
REMARK    6  A    between atoms: C_18  and  C_19 
ROOT
HETATM    1  N   UNL     1      37.677  48.353  66.255  1.00  0.00    -0.044 N 
HETATM    2  N   UNL     1      37.156  49.482  66.812  1.00  0.00    -0.148 NA
HETATM    3  C   UNL     1      37.900  50.465  66.295  1.00  0.00     0.115 A 
HETATM    4  C   UNL     1      38.861  49.984  65.378  1.00  0.00     0.087 A 
HETATM    5  C   UNL     1      38.695  48.619  65.351  1.00  0.00     0.152 A 
ENDROOT
BRANCH   5   6
HETATM    6  N   UNL     1      39.372  47.662  64.591  1.00  0.00    -0.310 N 
HETATM    7  C   UNL     1      40.204  46.626  65.151  1.00  0.00     0.236 C 
HETATM    8  O   UNL     1      40.300  46.504  66.367  1.00  0.00    -0.272 OA
HETATM    9  H   UNL     1      39.289  47.744  63.573  1.00  0.00     0.170 HD
BRANCH   7  10
HETATM   10  C   UNL     1      40.918  45.694  64.177  1.00  0.00     0.149 C 
HETATM   11  C   UNL     1      40.112  44.453  63.880  1.00  0.00    -0.007 A 
HETATM   12  C   UNL     1      40.607  43.197  64.242  1.00  0.00     0.083 A 
HETATM   13  C   UNL     1      38.868  44.536  63.235  1.00  0.00     0.011 A 
HETATM   14  C   UNL     1      39.872  42.043  63.967  1.00  0.00     0.038 A 
HETATM   15  O   UNL     1      41.806  43.011  64.883  1.00  0.00    -0.310 OA
HETATM   16  C   UNL     1      38.632  42.134  63.336  1.00  0.00     0.003 A 
HETATM   17  C   UNL     1      38.130  43.382  62.971  1.00  0.00     0.001 A 
HETATM   18  C   UNL     1      42.665  44.075  64.992  1.00  0.00     0.083 A 
HETATM   19  C   UNL     1      42.313  45.385  64.661  1.00  0.00    -0.007 A 
HETATM   20  C   UNL     1      43.949  43.783  65.455  1.00  0.00     0.038 A 
HETATM   21  C   UNL     1      43.278  46.400  64.776  1.00  0.00     0.011 A 
HETATM   22  C   UNL     1      44.563  46.105  65.230  1.00  0.00     0.001 A 
HETATM   23  C   UNL     1      44.898  44.797  65.573  1.00  0.00     0.003 A 
ENDBRANCH   7  10
ENDBRANCH   5   6
BRANCH   1  24
HETATM   24  C   UNL     1      37.171  47.095  66.615  1.00  0.00     0.732 A 
HETATM   25  N   UNL     1      36.495  46.352  65.795  1.00  0.00    -0.067 NA
HETATM   26  C   UNL     1      36.101  45.126  66.295  1.00  0.00     0.059 A 
HETATM   27  C   UNL     1      36.314  44.731  67.562  1.00  0.00     0.102 A 
HETATM   28  C   UNL     1      37.043  45.624  68.475  1.00  0.00     0.261 A 
HETATM   29  N   UNL     1      37.478  46.778  67.909  1.00  0.00    -0.152 N 
HETATM   30  O   UNL     1      37.235  45.330  69.647  1.00  0.00    -0.268 OA
HETATM   31  H   UNL     1      38.000  47.433  68.484  1.00  0.00     0.187 HD
BRANCH  26  32
HETATM   32  C   UNL     1      35.402  44.203  65.322  1.00  0.00     0.060 C 
BRANCH  32  33
HETATM   33  C   UNL     1      35.728  42.734  65.602  1.00  0.00     0.002 C 
HETATM   34  C   UNL     1      34.483  41.863  65.548  1.00  0.00     0.005 C 
ENDBRANCH  32  33
ENDBRANCH  26  32
ENDBRANCH   1  24
BRANCH   3  35
HETATM   35  C   UNL     1      37.721  51.899  66.665  1.00  0.00     0.105 A 
HETATM   36  O   UNL     1      37.847  52.940  65.786  1.00  0.00    -0.320 OA
HETATM   37  C   UNL     1      37.628  54.084  66.482  1.00  0.00     0.142 A 
HETATM   38  C   UNL     1      37.357  53.803  67.798  1.00  0.00     0.027 A 
HETATM   39  C   UNL     1      37.417  52.393  67.918  1.00  0.00     0.041 A 
ENDBRANCH   3  35
TORSDOF 6
ENDMDL
MODEL 10
REMARK VINA RESULT:      -8.5      2.900      6.984
REMARK  6 active torsions:
REMARK  status: ('A' for Active; 'I' for Inactive)
REMARK    1  A    between atoms: C_2  and  C_3 
REMARK    2  A    between atoms: C_3  and  C_4 
REMARK    3  A    between atoms: C_6  and  N_7 
REMARK    4  A    between atoms: C_9  and  C_10 
REMARK    5  A    between atoms: C_16  and  N_17 
REMARK       I    between atoms: N_17  and  C_18 
REMARK    6  A    between atoms: C_18  and  C_19 
ROOT
HETATM    1  N   UNL     1      23.266  43.392  48.034  1.00  0.00    -0.044 N 
HETATM    2  N   UNL     1      21.989  43.559  47.589  1.00  0.00    -0.148 NA
HETATM    3  C   UNL     1      21.532  44.588  48.312  1.00  0.00     0.115 A 
HETATM    4  C   UNL     1      22.516  45.111  49.180  1.00  0.00     0.087 A 
HETATM    5  C   UNL     1      23.636  44.338  48.979  1.00  0.00     0.152 A 
ENDROOT
BRANCH   5   6
HETATM    6  N   UNL     1      24.900  44.444  49.566  1.00  0.00    -0.310 N 
HETATM    7  C   UNL     1      25.220  43.962  50.886  1.00  0.00     0.236 C 
HETATM    8  O   UNL     1      24.378  43.359  51.542  1.00  0.00    -0.272 OA
HETATM    9  H   UNL     1      25.617  44.933  49.022  1.00  0.00     0.170 HD
BRANCH   7  10
HETATM   10  C   UNL     1      26.636  44.206  51.400  1.00  0.00     0.149 C 
HETATM   11  C   UNL     1      27.350  42.920  51.739  1.00  0.00    -0.007 A 
HETATM   12  C   UNL     1      27.743  42.668  53.056  1.00  0.00     0.083 A 
HETATM   13  C   UNL     1      27.635  41.969  50.747  1.00  0.00     0.011 A 
HETATM   14  C   UNL     1      28.409  41.485  53.379  1.00  0.00     0.038 A 
HETATM   15  O   UNL     1      27.502  43.529  54.097  1.00  0.00    -0.310 OA
HETATM   16  C   UNL     1      28.679  40.539  52.391  1.00  0.00     0.003 A 
HETATM   17  C   UNL     1      28.291  40.782  51.075  1.00  0.00     0.001 A 
HETATM   18  C   UNL     1      27.045  44.791  53.814  1.00  0.00     0.083 A 
HETATM   19  C   UNL     1      26.625  45.190  52.543  1.00  0.00    -0.007 A 
HETATM   20  C   UNL     1      27.024  45.690  54.881  1.00  0.00     0.038 A 
HETATM   21  C   UNL     1      26.204  46.517  52.349  1.00  0.00     0.011 A 
HETATM   22  C   UNL     1      26.193  47.417  53.414  1.00  0.00     0.001 A 
HETATM   23  C   UNL     1      26.599  47.003  54.681  1.00  0.00     0.003 A 
ENDBRANCH   7  10
ENDBRANCH   5   6
BRANCH   1  24
HETATM   24  C   UNL     1      24.054  42.347  47.529  1.00  0.00     0.732 A 
HETATM   25  N   UNL     1      24.710  41.532  48.295  1.00  0.00    -0.067 NA
HETATM   26  C   UNL     1      25.407  40.535  47.638  1.00  0.00     0.059 A 
HETATM   27  C   UNL     1      25.488  40.435  46.301  1.00  0.00     0.102 A 
HETATM   28  C   UNL     1      24.767  41.409  45.467  1.00  0.00     0.261 A 
HETATM   29  N   UNL     1      24.034  42.315  46.162  1.00  0.00    -0.152 N 
HETATM   30  O   UNL     1      24.834  41.386  44.246  1.00  0.00    -0.268 OA
HETATM   31  H   UNL     1      23.503  43.008  45.644  1.00  0.00     0.187 HD
BRANCH  26  32
HETATM   32  C   UNL     1      26.093  39.513  48.517  1.00  0.00     0.060 C 
BRANCH  32  33
HETATM   33  C   UNL     1      27.419  39.046  47.911  1.00  0.00     0.002 C 
HETATM   34  C   UNL     1      27.639  37.557  48.126  1.00  0.00     0.005 C 
ENDBRANCH  32  33
ENDBRANCH  26  32
ENDBRANCH   1  24
BRANCH   3  35
HETATM   35  C   UNL     1      20.137  45.102  48.200  1.00  0.00     0.105 A 
HETATM   36  O   UNL     1      19.071  44.348  47.792  1.00  0.00    -0.320 OA
HETATM   37  C   UNL     1      17.979  45.153  47.803  1.00  0.00     0.142 A 
HETATM   38  C   UNL     1      18.317  46.418  48.218  1.00  0.00     0.027 A 
HETATM   39  C   UNL     1      19.710  46.386  48.474  1.00  0.00     0.041 A 
ENDBRANCH   3  35
TORSDOF 6
ENDMDL
