MODEL 1
REMARK VINA RESULT:      -8.4      0.000      0.000
REMARK  3 active torsions:
REMARK  status: ('A' for Active; 'I' for Inactive)
REMARK    1  A    between atoms: N_3  and  C_4 
REMARK    2  A    between atoms: C_8  and  C_9 
REMARK       I    between atoms: C_9  and  N_10 
REMARK    3  A    between atoms: C_17  and  O_18 
ROOT
HETATM    1  C   UNL     1      25.975  46.438  52.679  1.00  0.00     0.254 C 
HETATM    2  N   UNL     1      25.744  45.658  51.550  1.00  0.00    -0.343 N 
HETATM    3  C   UNL     1      24.584  45.999  50.737  1.00  0.00     0.165 C 
HETATM    4  C   UNL     1      24.126  44.858  49.854  1.00  0.00    -0.031 A 
HETATM    5  C   UNL     1      24.942  43.732  49.625  1.00  0.00    -0.049 A 
HETATM    6  C   UNL     1      26.276  43.595  50.320  1.00  0.00     0.059 C 
HETATM    7  C   UNL     1      26.797  44.934  50.838  1.00  0.00     0.131 C 
HETATM    8  C   UNL     1      22.872  44.939  49.229  1.00  0.00     0.046 A 
HETATM    9  C   UNL     1      22.435  43.901  48.412  1.00  0.00     0.066 A 
HETATM   10  C   UNL     1      23.227  42.781  48.195  1.00  0.00     0.037 A 
HETATM   11  C   UNL     1      24.480  42.694  48.802  1.00  0.00     0.010 A 
HETATM   12  O   UNL     1      25.336  47.457  52.933  1.00  0.00    -0.267 OA
ENDROOT
BRANCH   1  13
HETATM   13  C   UNL     1      26.987  45.995  53.667  1.00  0.00     0.035 A 
HETATM   14  C   UNL     1      27.263  44.632  53.786  1.00  0.00     0.061 A 
HETATM   15  C   UNL     1      28.268  44.197  54.651  1.00  0.00     0.146 A 
HETATM   16  C   UNL     1      29.017  45.110  55.399  1.00  0.00     0.096 A 
HETATM   17  F   UNL     1      28.476  42.876  54.727  1.00  0.00    -0.204 F 
HETATM   18  C   UNL     1      28.741  46.482  55.265  1.00  0.00     0.036 A 
HETATM   19  C   UNL     1      27.741  46.923  54.393  1.00  0.00     0.019 A 
BRANCH  16  20
HETATM   20  N   UNL     1      30.060  44.699  56.274  1.00  0.00    -0.242 N 
HETATM   21  C   UNL     1      31.023  43.728  56.092  1.00  0.00     0.120 A 
HETATM   22  C   UNL     1      31.813  43.714  57.216  1.00  0.00     0.040 A 
HETATM   23  C   UNL     1      31.266  44.704  58.040  1.00  0.00     0.140 A 
HETATM   24  N   UNL     1      30.213  45.304  57.486  1.00  0.00    -0.180 NA
ENDBRANCH  16  20
ENDBRANCH   1  13
BRANCH   9  25
HETATM   25  O   UNL     1      21.215  43.942  47.803  1.00  0.00    -0.361 OA
HETATM   26  H   UNL     1      21.119  44.800  47.359  1.00  0.00     0.217 HD
ENDBRANCH   9  25
TORSDOF 3
ENDMDL
MODEL 2
REMARK VINA RESULT:      -8.4     13.523     14.340
REMARK  3 active torsions:
REMARK  status: ('A' for Active; 'I' for Inactive)
REMARK    1  A    between atoms: N_3  and  C_4 
REMARK    2  A    between atoms: C_8  and  C_9 
REMARK       I    between atoms: C_9  and  N_10 
REMARK    3  A    between atoms: C_17  and  O_18 
ROOT
HETATM    1  C   UNL     1      31.714  50.470  42.887  1.00  0.00     0.254 C 
HETATM    2  N   UNL     1      30.880  51.217  42.061  1.00  0.00    -0.343 N 
HETATM    3  C   UNL     1      29.699  50.546  41.534  1.00  0.00     0.165 C 
HETATM    4  C   UNL     1      29.136  51.223  40.302  1.00  0.00    -0.031 A 
HETATM    5  C   UNL     1      29.531  52.524  39.932  1.00  0.00    -0.049 A 
HETATM    6  C   UNL     1      30.591  53.258  40.719  1.00  0.00     0.059 C 
HETATM    7  C   UNL     1      30.780  52.675  42.117  1.00  0.00     0.131 C 
HETATM    8  C   UNL     1      28.179  50.547  39.528  1.00  0.00     0.046 A 
HETATM    9  C   UNL     1      27.649  51.154  38.394  1.00  0.00     0.066 A 
HETATM   10  C   UNL     1      28.046  52.429  38.016  1.00  0.00     0.037 A 
HETATM   11  C   UNL     1      28.988  53.115  38.782  1.00  0.00     0.010 A 
HETATM   12  O   UNL     1      31.429  49.343  43.287  1.00  0.00    -0.267 OA
ENDROOT
BRANCH   1  13
HETATM   13  C   UNL     1      33.043  51.015  43.254  1.00  0.00     0.035 A 
HETATM   14  C   UNL     1      34.118  50.815  42.386  1.00  0.00     0.061 A 
HETATM   15  C   UNL     1      35.358  51.387  42.669  1.00  0.00     0.146 A 
HETATM   16  C   UNL     1      35.544  52.171  43.812  1.00  0.00     0.096 A 
HETATM   17  F   UNL     1      36.351  51.148  41.802  1.00  0.00    -0.204 F 
HETATM   18  C   UNL     1      34.453  52.377  44.676  1.00  0.00     0.036 A 
HETATM   19  C   UNL     1      33.206  51.814  44.390  1.00  0.00     0.019 A 
BRANCH  16  20
HETATM   20  N   UNL     1      36.791  52.783  44.118  1.00  0.00    -0.242 N 
HETATM   21  C   UNL     1      37.420  53.843  43.500  1.00  0.00     0.120 A 
HETATM   22  C   UNL     1      38.598  54.072  44.171  1.00  0.00     0.040 A 
HETATM   23  C   UNL     1      38.616  53.107  45.184  1.00  0.00     0.140 A 
HETATM   24  N   UNL     1      37.537  52.326  45.164  1.00  0.00    -0.180 NA
ENDBRANCH  16  20
ENDBRANCH   1  13
BRANCH   9  25
HETATM   25  O   UNL     1      26.730  50.518  37.612  1.00  0.00    -0.361 OA
HETATM   26  H   UNL     1      25.973  51.111  37.479  1.00  0.00     0.217 HD
ENDBRANCH   9  25
TORSDOF 3
ENDMDL
MODEL 3
REMARK VINA RESULT:      -8.2      4.774      8.871
REMARK  3 active torsions:
REMARK  status: ('A' for Active; 'I' for Inactive)
REMARK    1  A    between atoms: N_3  and  C_4 
REMARK    2  A    between atoms: C_8  and  C_9 
REMARK       I    between atoms: C_9  and  N_10 
REMARK    3  A    between atoms: C_17  and  O_18 
ROOT
HETATM    1  C   UNL     1      26.338  42.133  51.149  1.00  0.00     0.254 C 
HETATM    2  N   UNL     1      27.196  42.254  52.238  1.00  0.00    -0.343 N 
HETATM    3  C   UNL     1      26.931  43.343  53.170  1.00  0.00     0.165 C 
HETATM    4  C   UNL     1      28.137  43.708  54.009  1.00  0.00    -0.031 A 
HETATM    5  C   UNL     1      29.262  42.863  54.088  1.00  0.00    -0.049 A 
HETATM    6  C   UNL     1      29.328  41.593  53.273  1.00  0.00     0.059 C 
HETATM    7  C   UNL     1      27.948  41.135  52.805  1.00  0.00     0.131 C 
HETATM    8  C   UNL     1      28.120  44.904  54.745  1.00  0.00     0.046 A 
HETATM    9  C   UNL     1      29.218  45.256  55.523  1.00  0.00     0.066 A 
HETATM   10  C   UNL     1      30.336  44.435  55.593  1.00  0.00     0.037 A 
HETATM   11  C   UNL     1      30.360  43.239  54.875  1.00  0.00     0.010 A 
HETATM   12  O   UNL     1      25.316  42.803  51.022  1.00  0.00    -0.267 OA
ENDROOT
BRANCH   1  13
HETATM   13  C   UNL     1      26.696  41.206  50.049  1.00  0.00     0.035 A 
HETATM   14  C   UNL     1      27.564  41.648  49.050  1.00  0.00     0.061 A 
HETATM   15  C   UNL     1      27.979  40.770  48.048  1.00  0.00     0.146 A 
HETATM   16  C   UNL     1      27.545  39.441  48.032  1.00  0.00     0.096 A 
HETATM   17  F   UNL     1      28.804  41.259  47.113  1.00  0.00    -0.204 F 
HETATM   18  C   UNL     1      26.679  39.000  49.049  1.00  0.00     0.036 A 
HETATM   19  C   UNL     1      26.268  39.874  50.060  1.00  0.00     0.019 A 
BRANCH  16  20
HETATM   20  N   UNL     1      27.965  38.517  47.037  1.00  0.00    -0.242 N 
HETATM   21  C   UNL     1      28.847  37.461  47.139  1.00  0.00     0.120 A 
HETATM   22  C   UNL     1      28.913  36.858  45.905  1.00  0.00     0.040 A 
HETATM   23  C   UNL     1      28.046  37.608  45.103  1.00  0.00     0.140 A 
HETATM   24  N   UNL     1      27.469  38.607  45.769  1.00  0.00    -0.180 NA
ENDBRANCH  16  20
ENDBRANCH   1  13
BRANCH   9  25
HETATM   25  O   UNL     1      29.240  46.417  56.237  1.00  0.00    -0.361 OA
HETATM   26  H   UNL     1      29.089  47.159  55.628  1.00  0.00     0.217 HD
ENDBRANCH   9  25
TORSDOF 3
ENDMDL
MODEL 4
REMARK VINA RESULT:      -8.2      7.620     10.455
REMARK  3 active torsions:
REMARK  status: ('A' for Active; 'I' for Inactive)
REMARK    1  A    between atoms: N_3  and  C_4 
REMARK    2  A    between atoms: C_8  and  C_9 
REMARK       I    between atoms: C_9  and  N_10 
REMARK    3  A    between atoms: C_17  and  O_18 
ROOT
HETATM    1  C   UNL     1      19.510  49.237  47.472  1.00  0.00     0.254 C 
HETATM    2  N   UNL     1      18.720  50.062  48.267  1.00  0.00    -0.343 N 
HETATM    3  C   UNL     1      17.359  50.313  47.810  1.00  0.00     0.165 C 
HETATM    4  C   UNL     1      16.752  51.558  48.420  1.00  0.00    -0.031 A 
HETATM    5  C   UNL     1      17.334  52.189  49.538  1.00  0.00    -0.049 A 
HETATM    6  C   UNL     1      18.632  51.680  50.118  1.00  0.00     0.059 C 
HETATM    7  C   UNL     1      18.924  50.239  49.704  1.00  0.00     0.131 C 
HETATM    8  C   UNL     1      15.567  52.078  47.876  1.00  0.00     0.046 A 
HETATM    9  C   UNL     1      14.993  53.220  48.424  1.00  0.00     0.066 A 
HETATM   10  C   UNL     1      15.571  53.856  49.515  1.00  0.00     0.037 A 
HETATM   11  C   UNL     1      16.742  53.343  50.072  1.00  0.00     0.010 A 
HETATM   12  O   UNL     1      19.073  48.619  46.503  1.00  0.00    -0.267 OA
ENDROOT
BRANCH   1  13
HETATM   13  C   UNL     1      20.962  49.140  47.753  1.00  0.00     0.035 A 
HETATM   14  C   UNL     1      21.762  50.268  47.563  1.00  0.00     0.061 A 
HETATM   15  C   UNL     1      23.116  50.226  47.896  1.00  0.00     0.146 A 
HETATM   16  C   UNL     1      23.690  49.069  48.431  1.00  0.00     0.096 A 
HETATM   17  F   UNL     1      23.831  51.338  47.679  1.00  0.00    -0.204 F 
HETATM   18  C   UNL     1      22.874  47.940  48.629  1.00  0.00     0.036 A 
HETATM   19  C   UNL     1      21.515  47.981  48.306  1.00  0.00     0.019 A 
BRANCH  16  20
HETATM   20  N   UNL     1      25.061  49.001  48.797  1.00  0.00    -0.242 N 
HETATM   21  C   UNL     1      26.142  49.680  48.274  1.00  0.00     0.120 A 
HETATM   22  C   UNL     1      27.257  49.284  48.973  1.00  0.00     0.040 A 
HETATM   23  C   UNL     1      26.775  48.359  49.905  1.00  0.00     0.140 A 
HETATM   24  N   UNL     1      25.458  48.179  49.812  1.00  0.00    -0.180 NA
ENDBRANCH  16  20
ENDBRANCH   1  13
BRANCH   9  25
HETATM   25  O   UNL     1      13.851  53.759  47.908  1.00  0.00    -0.361 OA
HETATM   26  H   UNL     1      14.095  54.459  47.280  1.00  0.00     0.217 HD
ENDBRANCH   9  25
TORSDOF 3
ENDMDL
MODEL 5
REMARK VINA RESULT:      -8.2      8.465     12.531
REMARK  3 active torsions:
REMARK  status: ('A' for Active; 'I' for Inactive)
REMARK    1  A    between atoms: N_3  and  C_4 
REMARK    2  A    between atoms: C_8  and  C_9 
REMARK       I    between atoms: C_9  and  N_10 
REMARK    3  A    between atoms: C_17  and  O_18 
ROOT
HETATM    1  C   UNL     1      19.700  49.065  49.447  1.00  0.00     0.254 C 
HETATM    2  N   UNL     1      20.946  49.245  48.854  1.00  0.00    -0.343 N 
HETATM    3  C   UNL     1      21.986  48.283  49.197  1.00  0.00     0.165 C 
HETATM    4  C   UNL     1      23.382  48.803  48.928  1.00  0.00    -0.031 A 
HETATM    5  C   UNL     1      23.601  49.948  48.136  1.00  0.00    -0.049 A 
HETATM    6  C   UNL     1      22.436  50.739  47.590  1.00  0.00     0.059 C 
HETATM    7  C   UNL     1      21.143  49.927  47.575  1.00  0.00     0.131 C 
HETATM    8  C   UNL     1      24.482  48.111  49.458  1.00  0.00     0.046 A 
HETATM    9  C   UNL     1      25.773  48.572  49.220  1.00  0.00     0.066 A 
HETATM   10  C   UNL     1      25.995  49.709  48.454  1.00  0.00     0.037 A 
HETATM   11  C   UNL     1      24.910  50.399  47.913  1.00  0.00     0.010 A 
HETATM   12  O   UNL     1      19.414  48.077  50.121  1.00  0.00    -0.267 OA
ENDROOT
BRANCH   1  13
HETATM   13  C   UNL     1      18.683  50.137  49.329  1.00  0.00     0.035 A 
HETATM   14  C   UNL     1      17.438  49.828  48.780  1.00  0.00     0.061 A 
HETATM   15  C   UNL     1      16.437  50.799  48.731  1.00  0.00     0.146 A 
HETATM   16  C   UNL     1      16.658  52.084  49.236  1.00  0.00     0.096 A 
HETATM   17  F   UNL     1      15.269  50.443  48.183  1.00  0.00    -0.204 F 
HETATM   18  C   UNL     1      17.912  52.384  49.798  1.00  0.00     0.036 A 
HETATM   19  C   UNL     1      18.914  51.411  49.857  1.00  0.00     0.019 A 
BRANCH  16  20
HETATM   20  N   UNL     1      15.652  53.089  49.219  1.00  0.00    -0.242 N 
HETATM   21  C   UNL     1      15.202  53.894  50.245  1.00  0.00     0.120 A 
HETATM   22  C   UNL     1      14.229  54.716  49.727  1.00  0.00     0.040 A 
HETATM   23  C   UNL     1      14.141  54.348  48.380  1.00  0.00     0.140 A 
HETATM   24  N   UNL     1      14.990  53.373  48.061  1.00  0.00    -0.180 NA
ENDBRANCH  16  20
ENDBRANCH   1  13
BRANCH   9  25
HETATM   25  O   UNL     1      26.862  47.932  49.733  1.00  0.00    -0.361 OA
HETATM   26  H   UNL     1      26.759  46.977  49.588  1.00  0.00     0.217 HD
ENDBRANCH   9  25
TORSDOF 3
ENDMDL
MODEL 6
REMARK VINA RESULT:      -8.1      4.473      7.354
REMARK  3 active torsions:
REMARK  status: ('A' for Active; 'I' for Inactive)
REMARK    1  A    between atoms: N_3  and  C_4 
REMARK    2  A    between atoms: C_8  and  C_9 
REMARK       I    between atoms: C_9  and  N_10 
REMARK    3  A    between atoms: C_17  and  O_18 
ROOT
HETATM    1  C   UNL     1      27.688  43.523  52.001  1.00  0.00     0.254 C 
HETATM    2  N   UNL     1      27.448  42.241  51.517  1.00  0.00    -0.343 N 
HETATM    3  C   UNL     1      28.334  41.182  51.986  1.00  0.00     0.165 C 
HETATM    4  C   UNL     1      28.336  39.970  51.079  1.00  0.00    -0.031 A 
HETATM    5  C   UNL     1      27.346  39.787  50.093  1.00  0.00    -0.049 A 
HETATM    6  C   UNL     1      26.288  40.839  49.861  1.00  0.00     0.059 C 
HETATM    7  C   UNL     1      26.139  41.781  51.054  1.00  0.00     0.131 C 
HETATM    8  C   UNL     1      29.332  38.995  51.245  1.00  0.00     0.046 A 
HETATM    9  C   UNL     1      29.351  37.873  50.422  1.00  0.00     0.066 A 
HETATM   10  C   UNL     1      28.387  37.695  49.438  1.00  0.00     0.037 A 
HETATM   11  C   UNL     1      27.386  38.651  49.271  1.00  0.00     0.010 A 
HETATM   12  O   UNL     1      28.505  43.766  52.886  1.00  0.00    -0.267 OA
ENDROOT
BRANCH   1  13
HETATM   13  C   UNL     1      26.983  44.671  51.381  1.00  0.00     0.035 A 
HETATM   14  C   UNL     1      26.310  45.575  52.205  1.00  0.00     0.061 A 
HETATM   15  C   UNL     1      25.707  46.705  51.653  1.00  0.00     0.146 A 
HETATM   16  C   UNL     1      25.774  46.958  50.279  1.00  0.00     0.096 A 
HETATM   17  F   UNL     1      25.068  47.527  52.496  1.00  0.00    -0.204 F 
HETATM   18  C   UNL     1      26.464  46.048  49.457  1.00  0.00     0.036 A 
HETATM   19  C   UNL     1      27.077  44.919  50.007  1.00  0.00     0.019 A 
BRANCH  16  20
HETATM   20  N   UNL     1      25.187  48.111  49.691  1.00  0.00    -0.242 N 
HETATM   21  C   UNL     1      25.776  49.104  48.936  1.00  0.00     0.120 A 
HETATM   22  C   UNL     1      24.790  49.995  48.584  1.00  0.00     0.040 A 
HETATM   23  C   UNL     1      23.628  49.477  49.165  1.00  0.00     0.140 A 
HETATM   24  N   UNL     1      23.851  48.345  49.832  1.00  0.00    -0.180 NA
ENDBRANCH  16  20
ENDBRANCH   1  13
BRANCH   9  25
HETATM   25  O   UNL     1      30.314  36.916  50.547  1.00  0.00    -0.361 OA
HETATM   26  H   UNL     1      30.177  36.445  51.385  1.00  0.00     0.217 HD
ENDBRANCH   9  25
TORSDOF 3
ENDMDL
MODEL 7
REMARK VINA RESULT:      -8.1      5.528      7.708
REMARK  3 active torsions:
REMARK  status: ('A' for Active; 'I' for Inactive)
REMARK    1  A    between atoms: N_3  and  C_4 
REMARK    2  A    between atoms: C_8  and  C_9 
REMARK       I    between atoms: C_9  and  N_10 
REMARK    3  A    between atoms: C_17  and  O_18 
ROOT
HETATM    1  C   UNL     1      23.242  49.747  48.135  1.00  0.00     0.254 C 
HETATM    2  N   UNL     1      21.868  49.746  48.356  1.00  0.00    -0.343 N 
HETATM    3  C   UNL     1      21.135  50.944  47.966  1.00  0.00     0.165 C 
HETATM    4  C   UNL     1      19.797  51.070  48.662  1.00  0.00    -0.031 A 
HETATM    5  C   UNL     1      19.217  49.981  49.344  1.00  0.00    -0.049 A 
HETATM    6  C   UNL     1      19.954  48.669  49.464  1.00  0.00     0.059 C 
HETATM    7  C   UNL     1      21.059  48.529  48.419  1.00  0.00     0.131 C 
HETATM    8  C   UNL     1      19.108  52.291  48.602  1.00  0.00     0.046 A 
HETATM    9  C   UNL     1      17.876  52.426  49.234  1.00  0.00     0.066 A 
HETATM   10  C   UNL     1      17.306  51.361  49.921  1.00  0.00     0.037 A 
HETATM   11  C   UNL     1      17.976  50.139  49.978  1.00  0.00     0.010 A 
HETATM   12  O   UNL     1      23.822  50.638  47.517  1.00  0.00    -0.267 OA
ENDROOT
BRANCH   1  13
HETATM   13  C   UNL     1      24.068  48.667  48.726  1.00  0.00     0.035 A 
HETATM   14  C   UNL     1      25.404  48.931  49.032  1.00  0.00     0.061 A 
HETATM   15  C   UNL     1      26.180  47.957  49.661  1.00  0.00     0.146 A 
HETATM   16  C   UNL     1      25.636  46.716  50.005  1.00  0.00     0.096 A 
HETATM   17  F   UNL     1      27.458  48.268  49.918  1.00  0.00    -0.204 F 
HETATM   18  C   UNL     1      24.286  46.462  49.704  1.00  0.00     0.036 A 
HETATM   19  C   UNL     1      23.503  47.438  49.080  1.00  0.00     0.019 A 
BRANCH  16  20
HETATM   20  N   UNL     1      26.396  45.711  50.664  1.00  0.00    -0.242 N 
HETATM   21  C   UNL     1      26.465  45.407  52.008  1.00  0.00     0.120 A 
HETATM   22  C   UNL     1      27.326  44.345  52.147  1.00  0.00     0.040 A 
HETATM   23  C   UNL     1      27.745  44.061  50.843  1.00  0.00     0.140 A 
HETATM   24  N   UNL     1      27.193  44.873  49.942  1.00  0.00    -0.180 NA
ENDBRANCH  16  20
ENDBRANCH   1  13
BRANCH   9  25
HETATM   25  O   UNL     1      17.189  53.603  49.209  1.00  0.00    -0.361 OA
HETATM   26  H   UNL     1      17.438  54.090  48.406  1.00  0.00     0.217 HD
ENDBRANCH   9  25
TORSDOF 3
ENDMDL
MODEL 8
REMARK VINA RESULT:      -8.0      6.945      9.750
REMARK  3 active torsions:
REMARK  status: ('A' for Active; 'I' for Inactive)
REMARK    1  A    between atoms: N_3  and  C_4 
REMARK    2  A    between atoms: C_8  and  C_9 
REMARK       I    between atoms: C_9  and  N_10 
REMARK    3  A    between atoms: C_17  and  O_18 
ROOT
HETATM    1  C   UNL     1      19.127  49.718  49.051  1.00  0.00     0.254 C 
HETATM    2  N   UNL     1      18.376  49.602  47.885  1.00  0.00    -0.343 N 
HETATM    3  C   UNL     1      16.929  49.524  48.036  1.00  0.00     0.165 C 
HETATM    4  C   UNL     1      16.241  48.921  46.830  1.00  0.00    -0.031 A 
HETATM    5  C   UNL     1      16.912  48.770  45.600  1.00  0.00    -0.049 A 
HETATM    6  C   UNL     1      18.370  49.140  45.469  1.00  0.00     0.059 C 
HETATM    7  C   UNL     1      18.829  50.083  46.580  1.00  0.00     0.131 C 
HETATM    8  C   UNL     1      14.897  48.529  46.935  1.00  0.00     0.046 A 
HETATM    9  C   UNL     1      14.248  47.974  45.837  1.00  0.00     0.066 A 
HETATM   10  C   UNL     1      14.908  47.808  44.627  1.00  0.00     0.037 A 
HETATM   11  C   UNL     1      16.240  48.204  44.507  1.00  0.00     0.010 A 
HETATM   12  O   UNL     1      18.624  49.891  50.159  1.00  0.00    -0.267 OA
ENDROOT
BRANCH   1  13
HETATM   13  C   UNL     1      20.599  49.559  48.980  1.00  0.00     0.035 A 
HETATM   14  C   UNL     1      21.410  50.672  49.211  1.00  0.00     0.061 A 
HETATM   15  C   UNL     1      22.798  50.531  49.229  1.00  0.00     0.146 A 
HETATM   16  C   UNL     1      23.396  49.283  49.029  1.00  0.00     0.096 A 
HETATM   17  F   UNL     1      23.520  51.638  49.445  1.00  0.00    -0.204 F 
HETATM   18  C   UNL     1      22.572  48.165  48.808  1.00  0.00     0.036 A 
HETATM   19  C   UNL     1      21.180  48.300  48.798  1.00  0.00     0.019 A 
BRANCH  16  20
HETATM   20  N   UNL     1      24.806  49.104  49.061  1.00  0.00    -0.242 N 
HETATM   21  C   UNL     1      25.787  49.749  48.335  1.00  0.00     0.120 A 
HETATM   22  C   UNL     1      26.998  49.236  48.733  1.00  0.00     0.040 A 
HETATM   23  C   UNL     1      26.673  48.280  49.701  1.00  0.00     0.140 A 
HETATM   24  N   UNL     1      25.360  48.191  49.909  1.00  0.00    -0.180 NA
ENDBRANCH  16  20
ENDBRANCH   1  13
BRANCH   9  25
HETATM   25  O   UNL     1      12.948  47.569  45.910  1.00  0.00    -0.361 OA
HETATM   26  H   UNL     1      12.378  48.299  45.618  1.00  0.00     0.217 HD
ENDBRANCH   9  25
TORSDOF 3
ENDMDL
MODEL 9
REMARK VINA RESULT:      -8.0     13.018     14.018
REMARK  3 active torsions:
REMARK  status: ('A' for Active; 'I' for Inactive)
REMARK    1  A    between atoms: N_3  and  C_4 
REMARK    2  A    between atoms: C_8  and  C_9 
REMARK       I    between atoms: C_9  and  N_10 
REMARK    3  A    between atoms: C_17  and  O_18 
ROOT
HETATM    1  C   UNL     1      31.201  49.688  42.744  1.00  0.00     0.254 C 
HETATM    2  N   UNL     1      30.252  50.285  41.919  1.00  0.00    -0.343 N 
HETATM    3  C   UNL     1      29.102  49.473  41.540  1.00  0.00     0.165 C 
HETATM    4  C   UNL     1      28.403  49.984  40.299  1.00  0.00    -0.031 A 
HETATM    5  C   UNL     1      28.656  51.274  39.790  1.00  0.00    -0.049 A 
HETATM    6  C   UNL     1      29.696  52.162  40.430  1.00  0.00     0.059 C 
HETATM    7  C   UNL     1      30.027  51.728  41.856  1.00  0.00     0.131 C 
HETATM    8  C   UNL     1      27.460  49.164  39.659  1.00  0.00     0.046 A 
HETATM    9  C   UNL     1      26.805  49.616  38.519  1.00  0.00     0.066 A 
HETATM   10  C   UNL     1      27.062  50.880  38.003  1.00  0.00     0.037 A 
HETATM   11  C   UNL     1      27.988  51.709  38.636  1.00  0.00     0.010 A 
HETATM   12  O   UNL     1      31.043  48.584  43.260  1.00  0.00    -0.267 OA
ENDROOT
BRANCH   1  13
HETATM   13  C   UNL     1      32.498  50.373  42.963  1.00  0.00     0.035 A 
HETATM   14  C   UNL     1      33.544  50.140  42.069  1.00  0.00     0.061 A 
HETATM   15  C   UNL     1      34.747  50.832  42.208  1.00  0.00     0.146 A 
HETATM   16  C   UNL     1      34.922  51.771  43.229  1.00  0.00     0.096 A 
HETATM   17  F   UNL     1      35.715  50.555  41.324  1.00  0.00    -0.204 F 
HETATM   18  C   UNL     1      33.859  52.009  44.119  1.00  0.00     0.036 A 
HETATM   19  C   UNL     1      32.649  51.323  43.978  1.00  0.00     0.019 A 
BRANCH  16  20
HETATM   20  N   UNL     1      36.129  52.507  43.384  1.00  0.00    -0.242 N 
HETATM   21  C   UNL     1      37.075  52.434  44.385  1.00  0.00     0.120 A 
HETATM   22  C   UNL     1      38.067  53.336  44.082  1.00  0.00     0.040 A 
HETATM   23  C   UNL     1      37.651  53.923  42.882  1.00  0.00     0.140 A 
HETATM   24  N   UNL     1      36.489  53.434  42.450  1.00  0.00    -0.180 NA
ENDBRANCH  16  20
ENDBRANCH   1  13
BRANCH   9  25
HETATM   25  O   UNL     1      25.897  48.838  37.865  1.00  0.00    -0.361 OA
HETATM   26  H   UNL     1      25.388  49.399  37.257  1.00  0.00     0.217 HD
ENDBRANCH   9  25
TORSDOF 3
ENDMDL
MODEL 10
REMARK VINA RESULT:      -7.9      3.385      8.681
REMARK  3 active torsions:
REMARK  status: ('A' for Active; 'I' for Inactive)
REMARK    1  A    between atoms: N_3  and  C_4 
REMARK    2  A    between atoms: C_8  and  C_9 
REMARK       I    between atoms: C_9  and  N_10 
REMARK    3  A    between atoms: C_17  and  O_18 
ROOT
HETATM    1  C   UNL     1      25.952  43.888  52.401  1.00  0.00     0.254 C 
HETATM    2  N   UNL     1      26.986  43.596  53.284  1.00  0.00    -0.343 N 
HETATM    3  C   UNL     1      27.174  44.507  54.407  1.00  0.00     0.165 C 
HETATM    4  C   UNL     1      28.559  44.421  55.011  1.00  0.00    -0.031 A 
HETATM    5  C   UNL     1      29.426  43.349  54.715  1.00  0.00    -0.049 A 
HETATM    6  C   UNL     1      29.023  42.287  53.721  1.00  0.00     0.059 C 
HETATM    7  C   UNL     1      27.512  42.248  53.498  1.00  0.00     0.131 C 
HETATM    8  C   UNL     1      28.976  45.417  55.907  1.00  0.00     0.046 A 
HETATM    9  C   UNL     1      30.245  45.355  56.474  1.00  0.00     0.066 A 
HETATM   10  C   UNL     1      31.110  44.310  56.174  1.00  0.00     0.037 A 
HETATM   11  C   UNL     1      30.703  43.308  55.294  1.00  0.00     0.010 A 
HETATM   12  O   UNL     1      25.129  44.779  52.601  1.00  0.00    -0.267 OA
ENDROOT
BRANCH   1  13
HETATM   13  C   UNL     1      25.864  43.145  51.121  1.00  0.00     0.035 A 
HETATM   14  C   UNL     1      24.626  42.647  50.713  1.00  0.00     0.061 A 
HETATM   15  C   UNL     1      24.503  42.015  49.475  1.00  0.00     0.146 A 
HETATM   16  C   UNL     1      25.604  41.879  48.624  1.00  0.00     0.096 A 
HETATM   17  F   UNL     1      23.291  41.550  49.147  1.00  0.00    -0.204 F 
HETATM   18  C   UNL     1      26.846  42.394  49.038  1.00  0.00     0.036 A 
HETATM   19  C   UNL     1      26.972  43.036  50.274  1.00  0.00     0.019 A 
BRANCH  16  20
HETATM   20  N   UNL     1      25.506  41.258  47.350  1.00  0.00    -0.242 N 
HETATM   21  C   UNL     1      24.523  41.380  46.390  1.00  0.00     0.120 A 
HETATM   22  C   UNL     1      24.886  40.591  45.324  1.00  0.00     0.040 A 
HETATM   23  C   UNL     1      26.101  40.017  45.712  1.00  0.00     0.140 A 
HETATM   24  N   UNL     1      26.486  40.409  46.926  1.00  0.00    -0.180 NA
ENDBRANCH  16  20
ENDBRANCH   1  13
BRANCH   9  25
HETATM   25  O   UNL     1      30.687  46.315  57.335  1.00  0.00    -0.361 OA
HETATM   26  H   UNL     1      30.182  46.246  58.162  1.00  0.00     0.217 HD
ENDBRANCH   9  25
TORSDOF 3
ENDMDL
