MODEL 1
REMARK VINA RESULT:      -9.3      0.000      0.000
REMARK  5 active torsions:
REMARK  status: ('A' for Active; 'I' for Inactive)
REMARK    1  A    between atoms: C_5  and  C_6 
REMARK    2  A    between atoms: C_10  and  C_11 
REMARK       I    between atoms: C_11  and  N_12 
REMARK    3  A    between atoms: N_12  and  C_13 
REMARK    4  A    between atoms: C_13  and  C_14 
REMARK    5  A    between atoms: C_14  and  O_15 
ROOT
HETATM    1  C   UNL     1      28.442  43.608  53.336  1.00  0.00     0.068 A 
HETATM    2  N   UNL     1      27.758  44.656  52.811  1.00  0.00    -0.248 NA
HETATM    3  C   UNL     1      27.041  44.501  51.685  1.00  0.00     0.068 A 
HETATM    4  C   UNL     1      26.929  43.274  51.009  1.00  0.00     0.008 A 
HETATM    5  C   UNL     1      27.602  42.185  51.603  1.00  0.00     0.046 A 
HETATM    6  C   UNL     1      28.372  42.353  52.756  1.00  0.00     0.050 A 
HETATM    7  C   UNL     1      26.393  45.614  51.165  1.00  0.00     0.032 A 
HETATM    8  C   UNL     1      25.649  45.554  49.985  1.00  0.00     0.002 A 
HETATM    9  C   UNL     1      25.552  44.355  49.295  1.00  0.00     0.001 A 
HETATM   10  C   UNL     1      26.190  43.223  49.798  1.00  0.00     0.015 A 
ENDROOT
BRANCH   5  11
HETATM   11  C   UNL     1      27.567  40.812  51.052  1.00  0.00     0.252 C 
HETATM   12  N   UNL     1      28.774  40.301  50.641  1.00  0.00    -0.354 N 
HETATM   13  H   UNL     1      29.628  40.840  50.741  1.00  0.00     0.162 HD
HETATM   14  O   UNL     1      26.495  40.233  50.936  1.00  0.00    -0.268 OA
BRANCH  12  15
HETATM   15  C   UNL     1      28.916  38.955  50.116  1.00  0.00     0.154 C 
BRANCH  15  16
HETATM   16  C   UNL     1      30.090  38.209  50.764  1.00  0.00     0.132 C 
HETATM   17  C   UNL     1      29.719  36.792  51.185  1.00  0.00     0.041 C 
BRANCH  16  18
HETATM   18  O   UNL     1      31.178  38.153  49.835  1.00  0.00    -0.394 OA
HETATM   19  H   UNL     1      31.057  37.350  49.299  1.00  0.00     0.210 HD
ENDBRANCH  16  18
ENDBRANCH  15  16
ENDBRANCH  12  15
ENDBRANCH   5  11
BRANCH   1  20
HETATM   20  C   UNL     1      29.242  43.903  54.548  1.00  0.00    -0.007 A 
HETATM   21  C   UNL     1      29.032  45.087  55.278  1.00  0.00     0.014 A 
HETATM   22  C   UNL     1      29.780  45.392  56.422  1.00  0.00     0.007 A 
HETATM   23  C   UNL     1      30.776  44.521  56.868  1.00  0.00    -0.062 A 
HETATM   24  C   UNL     1      31.575  44.826  58.099  1.00  0.00     0.048 C 
HETATM   25  C   UNL     1      30.999  43.337  56.161  1.00  0.00     0.007 A 
HETATM   26  C   UNL     1      30.248  43.038  55.016  1.00  0.00     0.014 A 
ENDBRANCH   1  20
TORSDOF 5
ENDMDL
MODEL 2
REMARK VINA RESULT:      -9.1      3.635      5.849
REMARK  5 active torsions:
REMARK  status: ('A' for Active; 'I' for Inactive)
REMARK    1  A    between atoms: C_5  and  C_6 
REMARK    2  A    between atoms: C_10  and  C_11 
REMARK       I    between atoms: C_11  and  N_12 
REMARK    3  A    between atoms: N_12  and  C_13 
REMARK    4  A    between atoms: C_13  and  C_14 
REMARK    5  A    between atoms: C_14  and  O_15 
ROOT
HETATM    1  C   UNL     1      27.635  44.295  52.842  1.00  0.00     0.068 A 
HETATM    2  N   UNL     1      27.259  43.134  52.249  1.00  0.00    -0.248 NA
HETATM    3  C   UNL     1      26.294  43.132  51.313  1.00  0.00     0.068 A 
HETATM    4  C   UNL     1      25.646  44.301  50.877  1.00  0.00     0.008 A 
HETATM    5  C   UNL     1      26.091  45.503  51.467  1.00  0.00     0.046 A 
HETATM    6  C   UNL     1      27.073  45.500  52.460  1.00  0.00     0.050 A 
HETATM    7  C   UNL     1      25.917  41.913  50.766  1.00  0.00     0.032 A 
HETATM    8  C   UNL     1      24.904  41.811  49.810  1.00  0.00     0.002 A 
HETATM    9  C   UNL     1      24.240  42.953  49.390  1.00  0.00     0.001 A 
HETATM   10  C   UNL     1      24.603  44.190  49.921  1.00  0.00     0.015 A 
ENDROOT
BRANCH   5  11
HETATM   11  C   UNL     1      25.550  46.832  51.105  1.00  0.00     0.252 C 
HETATM   12  N   UNL     1      25.813  47.257  49.826  1.00  0.00    -0.354 N 
HETATM   13  H   UNL     1      26.327  46.669  49.177  1.00  0.00     0.162 HD
HETATM   14  O   UNL     1      24.964  47.497  51.948  1.00  0.00    -0.268 OA
BRANCH  12  15
HETATM   15  C   UNL     1      25.319  48.518  49.303  1.00  0.00     0.154 C 
BRANCH  15  16
HETATM   16  C   UNL     1      26.463  49.464  48.913  1.00  0.00     0.132 C 
HETATM   17  C   UNL     1      27.836  48.840  49.130  1.00  0.00     0.041 C 
BRANCH  16  18
HETATM   18  O   UNL     1      26.323  49.823  47.534  1.00  0.00    -0.394 OA
HETATM   19  H   UNL     1      25.610  50.483  47.480  1.00  0.00     0.210 HD
ENDBRANCH  16  18
ENDBRANCH  15  16
ENDBRANCH  12  15
ENDBRANCH   5  11
BRANCH   1  20
HETATM   20  C   UNL     1      28.669  44.174  53.896  1.00  0.00    -0.007 A 
HETATM   21  C   UNL     1      29.519  43.054  53.947  1.00  0.00     0.014 A 
HETATM   22  C   UNL     1      30.498  42.914  54.937  1.00  0.00     0.007 A 
HETATM   23  C   UNL     1      30.653  43.891  55.922  1.00  0.00    -0.062 A 
HETATM   24  C   UNL     1      31.706  43.763  56.980  1.00  0.00     0.048 C 
HETATM   25  C   UNL     1      29.822  45.015  55.889  1.00  0.00     0.007 A 
HETATM   26  C   UNL     1      28.843  45.148  54.896  1.00  0.00     0.014 A 
ENDBRANCH   1  20
TORSDOF 5
ENDMDL
MODEL 3
REMARK VINA RESULT:      -8.8      1.537      1.884
REMARK  5 active torsions:
REMARK  status: ('A' for Active; 'I' for Inactive)
REMARK    1  A    between atoms: C_5  and  C_6 
REMARK    2  A    between atoms: C_10  and  C_11 
REMARK       I    between atoms: C_11  and  N_12 
REMARK    3  A    between atoms: N_12  and  C_13 
REMARK    4  A    between atoms: C_13  and  C_14 
REMARK    5  A    between atoms: C_14  and  O_15 
ROOT
HETATM    1  C   UNL     1      27.991  44.241  52.996  1.00  0.00     0.068 A 
HETATM    2  N   UNL     1      27.207  45.347  52.939  1.00  0.00    -0.248 NA
HETATM    3  C   UNL     1      26.359  45.524  51.911  1.00  0.00     0.068 A 
HETATM    4  C   UNL     1      26.210  44.591  50.870  1.00  0.00     0.008 A 
HETATM    5  C   UNL     1      26.993  43.423  50.979  1.00  0.00     0.046 A 
HETATM    6  C   UNL     1      27.896  43.253  52.031  1.00  0.00     0.050 A 
HETATM    7  C   UNL     1      25.609  46.692  51.876  1.00  0.00     0.032 A 
HETATM    8  C   UNL     1      24.725  46.975  50.834  1.00  0.00     0.002 A 
HETATM    9  C   UNL     1      24.587  46.074  49.788  1.00  0.00     0.001 A 
HETATM   10  C   UNL     1      25.326  44.892  49.801  1.00  0.00     0.015 A 
ENDROOT
BRANCH   5  11
HETATM   11  C   UNL     1      26.941  42.317  49.997  1.00  0.00     0.252 C 
HETATM   12  N   UNL     1      26.562  41.094  50.493  1.00  0.00    -0.354 N 
HETATM   13  H   UNL     1      26.313  40.983  51.471  1.00  0.00     0.162 HD
HETATM   14  O   UNL     1      27.282  42.518  48.839  1.00  0.00    -0.268 OA
BRANCH  12  15
HETATM   15  C   UNL     1      26.422  39.918  49.653  1.00  0.00     0.154 C 
BRANCH  15  16
HETATM   16  C   UNL     1      27.671  39.027  49.703  1.00  0.00     0.132 C 
HETATM   17  C   UNL     1      28.574  39.221  48.491  1.00  0.00     0.041 C 
BRANCH  16  18
HETATM   18  O   UNL     1      28.411  39.324  50.892  1.00  0.00    -0.394 OA
HETATM   19  H   UNL     1      28.381  40.289  51.015  1.00  0.00     0.210 HD
ENDBRANCH  16  18
ENDBRANCH  15  16
ENDBRANCH  12  15
ENDBRANCH   5  11
BRANCH   1  20
HETATM   20  C   UNL     1      28.926  44.173  54.144  1.00  0.00    -0.007 A 
HETATM   21  C   UNL     1      28.960  45.199  55.107  1.00  0.00     0.014 A 
HETATM   22  C   UNL     1      29.839  45.161  56.195  1.00  0.00     0.007 A 
HETATM   23  C   UNL     1      30.726  44.094  56.351  1.00  0.00    -0.062 A 
HETATM   24  C   UNL     1      31.663  44.032  57.519  1.00  0.00     0.048 C 
HETATM   25  C   UNL     1      30.707  43.062  55.409  1.00  0.00     0.007 A 
HETATM   26  C   UNL     1      29.825  43.107  54.321  1.00  0.00     0.014 A 
ENDBRANCH   1  20
TORSDOF 5
ENDMDL
MODEL 4
REMARK VINA RESULT:      -8.8      2.482      5.370
REMARK  5 active torsions:
REMARK  status: ('A' for Active; 'I' for Inactive)
REMARK    1  A    between atoms: C_5  and  C_6 
REMARK    2  A    between atoms: C_10  and  C_11 
REMARK       I    between atoms: C_11  and  N_12 
REMARK    3  A    between atoms: N_12  and  C_13 
REMARK    4  A    between atoms: C_13  and  C_14 
REMARK    5  A    between atoms: C_14  and  O_15 
ROOT
HETATM    1  C   UNL     1      28.664  43.583  53.148  1.00  0.00     0.068 A 
HETATM    2  N   UNL     1      28.861  42.275  52.845  1.00  0.00    -0.248 NA
HETATM    3  C   UNL     1      28.335  41.754  51.723  1.00  0.00     0.068 A 
HETATM    4  C   UNL     1      27.592  42.510  50.800  1.00  0.00     0.008 A 
HETATM    5  C   UNL     1      27.447  43.879  51.108  1.00  0.00     0.046 A 
HETATM    6  C   UNL     1      27.966  44.414  52.288  1.00  0.00     0.050 A 
HETATM    7  C   UNL     1      28.531  40.401  51.478  1.00  0.00     0.032 A 
HETATM    8  C   UNL     1      27.998  39.767  50.354  1.00  0.00     0.002 A 
HETATM    9  C   UNL     1      27.242  40.496  49.449  1.00  0.00     0.001 A 
HETATM   10  C   UNL     1      27.034  41.857  49.670  1.00  0.00     0.015 A 
ENDROOT
BRANCH   5  11
HETATM   11  C   UNL     1      26.727  44.834  50.235  1.00  0.00     0.252 C 
HETATM   12  N   UNL     1      25.440  45.133  50.609  1.00  0.00    -0.354 N 
HETATM   13  H   UNL     1      25.036  44.733  51.450  1.00  0.00     0.162 HD
HETATM   14  O   UNL     1      27.269  45.255  49.222  1.00  0.00    -0.268 OA
BRANCH  12  15
HETATM   15  C   UNL     1      24.615  46.083  49.884  1.00  0.00     0.154 C 
BRANCH  15  16
HETATM   16  C   UNL     1      24.818  47.519  50.386  1.00  0.00     0.132 C 
HETATM   17  C   UNL     1      25.857  48.280  49.572  1.00  0.00     0.041 C 
BRANCH  16  18
HETATM   18  O   UNL     1      23.570  48.216  50.324  1.00  0.00    -0.394 OA
HETATM   19  H   UNL     1      23.084  48.009  51.140  1.00  0.00     0.210 HD
ENDBRANCH  16  18
ENDBRANCH  15  16
ENDBRANCH  12  15
ENDBRANCH   5  11
BRANCH   1  20
HETATM   20  C   UNL     1      29.241  44.040  54.434  1.00  0.00    -0.007 A 
HETATM   21  C   UNL     1      28.731  45.176  55.089  1.00  0.00     0.014 A 
HETATM   22  C   UNL     1      29.264  45.632  56.301  1.00  0.00     0.007 A 
HETATM   23  C   UNL     1      30.340  44.967  56.894  1.00  0.00    -0.062 A 
HETATM   24  C   UNL     1      30.912  45.434  58.198  1.00  0.00     0.048 C 
HETATM   25  C   UNL     1      30.860  43.834  56.263  1.00  0.00     0.007 A 
HETATM   26  C   UNL     1      30.322  43.384  55.050  1.00  0.00     0.014 A 
ENDBRANCH   1  20
TORSDOF 5
ENDMDL
MODEL 5
REMARK VINA RESULT:      -8.6      2.321      4.868
REMARK  5 active torsions:
REMARK  status: ('A' for Active; 'I' for Inactive)
REMARK    1  A    between atoms: C_5  and  C_6 
REMARK    2  A    between atoms: C_10  and  C_11 
REMARK       I    between atoms: C_11  and  N_12 
REMARK    3  A    between atoms: N_12  and  C_13 
REMARK    4  A    between atoms: C_13  and  C_14 
REMARK    5  A    between atoms: C_14  and  O_15 
ROOT
HETATM    1  C   UNL     1      28.829  43.303  53.256  1.00  0.00     0.068 A 
HETATM    2  N   UNL     1      29.207  42.030  52.975  1.00  0.00    -0.248 NA
HETATM    3  C   UNL     1      28.713  41.399  51.897  1.00  0.00     0.068 A 
HETATM    4  C   UNL     1      27.819  42.005  50.996  1.00  0.00     0.008 A 
HETATM    5  C   UNL     1      27.484  43.346  51.276  1.00  0.00     0.046 A 
HETATM    6  C   UNL     1      27.973  43.991  52.413  1.00  0.00     0.050 A 
HETATM    7  C   UNL     1      29.098  40.084  51.675  1.00  0.00     0.032 A 
HETATM    8  C   UNL     1      28.614  39.340  50.598  1.00  0.00     0.002 A 
HETATM    9  C   UNL     1      27.712  39.918  49.716  1.00  0.00     0.001 A 
HETATM   10  C   UNL     1      27.312  41.238  49.914  1.00  0.00     0.015 A 
ENDROOT
BRANCH   5  11
HETATM   11  C   UNL     1      26.586  44.153  50.419  1.00  0.00     0.252 C 
HETATM   12  N   UNL     1      25.255  44.124  50.753  1.00  0.00    -0.354 N 
HETATM   13  H   UNL     1      24.931  43.597  51.557  1.00  0.00     0.162 HD
HETATM   14  O   UNL     1      27.044  44.743  49.449  1.00  0.00    -0.268 OA
BRANCH  12  15
HETATM   15  C   UNL     1      24.252  44.893  50.038  1.00  0.00     0.154 C 
BRANCH  15  16
HETATM   16  C   UNL     1      23.066  44.022  49.601  1.00  0.00     0.132 C 
HETATM   17  C   UNL     1      23.432  42.546  49.504  1.00  0.00     0.041 C 
BRANCH  16  18
HETATM   18  O   UNL     1      21.999  44.180  50.542  1.00  0.00    -0.394 OA
HETATM   19  H   UNL     1      21.287  44.666  50.091  1.00  0.00     0.210 HD
ENDBRANCH  16  18
ENDBRANCH  15  16
ENDBRANCH  12  15
ENDBRANCH   5  11
BRANCH   1  20
HETATM   20  C   UNL     1      29.393  43.884  54.497  1.00  0.00    -0.007 A 
HETATM   21  C   UNL     1      30.423  43.227  55.196  1.00  0.00     0.014 A 
HETATM   22  C   UNL     1      30.967  43.751  56.374  1.00  0.00     0.007 A 
HETATM   23  C   UNL     1      30.487  44.952  56.901  1.00  0.00    -0.062 A 
HETATM   24  C   UNL     1      31.069  45.533  58.154  1.00  0.00     0.048 C 
HETATM   25  C   UNL     1      29.468  45.623  56.222  1.00  0.00     0.007 A 
HETATM   26  C   UNL     1      28.926  45.092  55.043  1.00  0.00     0.014 A 
ENDBRANCH   1  20
TORSDOF 5
ENDMDL
MODEL 6
REMARK VINA RESULT:      -8.5      2.728      4.871
REMARK  5 active torsions:
REMARK  status: ('A' for Active; 'I' for Inactive)
REMARK    1  A    between atoms: C_5  and  C_6 
REMARK    2  A    between atoms: C_10  and  C_11 
REMARK       I    between atoms: C_11  and  N_12 
REMARK    3  A    between atoms: N_12  and  C_13 
REMARK    4  A    between atoms: C_13  and  C_14 
REMARK    5  A    between atoms: C_14  and  O_15 
ROOT
HETATM    1  C   UNL     1      28.275  43.339  53.435  1.00  0.00     0.068 A 
HETATM    2  N   UNL     1      28.639  42.218  52.762  1.00  0.00    -0.248 NA
HETATM    3  C   UNL     1      27.890  41.766  51.742  1.00  0.00     0.068 A 
HETATM    4  C   UNL     1      26.727  42.419  51.297  1.00  0.00     0.008 A 
HETATM    5  C   UNL     1      26.397  43.612  51.975  1.00  0.00     0.046 A 
HETATM    6  C   UNL     1      27.159  44.064  53.054  1.00  0.00     0.050 A 
HETATM    7  C   UNL     1      28.282  40.593  51.112  1.00  0.00     0.032 A 
HETATM    8  C   UNL     1      27.550  40.033  50.063  1.00  0.00     0.002 A 
HETATM    9  C   UNL     1      26.387  40.654  49.631  1.00  0.00     0.001 A 
HETATM   10  C   UNL     1      25.973  41.835  50.245  1.00  0.00     0.015 A 
ENDROOT
BRANCH   5  11
HETATM   11  C   UNL     1      25.230  44.450  51.620  1.00  0.00     0.252 C 
HETATM   12  N   UNL     1      25.352  45.188  50.469  1.00  0.00    -0.354 N 
HETATM   13  H   UNL     1      26.188  45.129  49.898  1.00  0.00     0.162 HD
HETATM   14  O   UNL     1      24.265  44.493  52.371  1.00  0.00    -0.268 OA
BRANCH  12  15
HETATM   15  C   UNL     1      24.282  46.029  49.962  1.00  0.00     0.154 C 
BRANCH  15  16
HETATM   16  C   UNL     1      23.286  45.234  49.106  1.00  0.00     0.132 C 
HETATM   17  C   UNL     1      23.969  44.178  48.246  1.00  0.00     0.041 C 
BRANCH  16  18
HETATM   18  O   UNL     1      22.335  44.596  49.966  1.00  0.00    -0.394 OA
HETATM   19  H   UNL     1      21.494  44.550  49.480  1.00  0.00     0.210 HD
ENDBRANCH  16  18
ENDBRANCH  15  16
ENDBRANCH  12  15
ENDBRANCH   5  11
BRANCH   1  20
HETATM   20  C   UNL     1      29.143  43.716  54.575  1.00  0.00    -0.007 A 
HETATM   21  C   UNL     1      28.971  44.948  55.234  1.00  0.00     0.014 A 
HETATM   22  C   UNL     1      29.783  45.331  56.308  1.00  0.00     0.007 A 
HETATM   23  C   UNL     1      30.808  44.493  56.753  1.00  0.00    -0.062 A 
HETATM   24  C   UNL     1      31.676  44.882  57.911  1.00  0.00     0.048 C 
HETATM   25  C   UNL     1      30.994  43.263  56.116  1.00  0.00     0.007 A 
HETATM   26  C   UNL     1      30.179  42.887  55.040  1.00  0.00     0.014 A 
ENDBRANCH   1  20
TORSDOF 5
ENDMDL
MODEL 7
REMARK VINA RESULT:      -8.3      1.826      2.174
REMARK  5 active torsions:
REMARK  status: ('A' for Active; 'I' for Inactive)
REMARK    1  A    between atoms: C_5  and  C_6 
REMARK    2  A    between atoms: C_10  and  C_11 
REMARK       I    between atoms: C_11  and  N_12 
REMARK    3  A    between atoms: N_12  and  C_13 
REMARK    4  A    between atoms: C_13  and  C_14 
REMARK    5  A    between atoms: C_14  and  O_15 
ROOT
HETATM    1  C   UNL     1      27.844  42.799  52.529  1.00  0.00     0.068 A 
HETATM    2  N   UNL     1      26.573  43.221  52.306  1.00  0.00    -0.248 NA
HETATM    3  C   UNL     1      25.862  42.718  51.283  1.00  0.00     0.068 A 
HETATM    4  C   UNL     1      26.359  41.730  50.415  1.00  0.00     0.008 A 
HETATM    5  C   UNL     1      27.661  41.266  50.699  1.00  0.00     0.046 A 
HETATM    6  C   UNL     1      28.410  41.810  51.744  1.00  0.00     0.050 A 
HETATM    7  C   UNL     1      24.582  43.212  51.071  1.00  0.00     0.032 A 
HETATM    8  C   UNL     1      23.781  42.771  50.016  1.00  0.00     0.002 A 
HETATM    9  C   UNL     1      24.269  41.814  49.139  1.00  0.00     0.001 A 
HETATM   10  C   UNL     1      25.550  41.299  49.331  1.00  0.00     0.015 A 
ENDROOT
BRANCH   5  11
HETATM   11  C   UNL     1      28.332  40.204  49.916  1.00  0.00     0.252 C 
HETATM   12  N   UNL     1      28.429  38.979  50.529  1.00  0.00    -0.354 N 
HETATM   13  H   UNL     1      28.035  38.826  51.452  1.00  0.00     0.162 HD
HETATM   14  O   UNL     1      28.807  40.469  48.820  1.00  0.00    -0.268 OA
BRANCH  12  15
HETATM   15  C   UNL     1      29.022  37.824  49.880  1.00  0.00     0.154 C 
BRANCH  15  16
HETATM   16  C   UNL     1      28.019  37.100  48.971  1.00  0.00     0.132 C 
HETATM   17  C   UNL     1      26.601  37.128  49.529  1.00  0.00     0.041 C 
BRANCH  16  18
HETATM   18  O   UNL     1      28.027  37.719  47.680  1.00  0.00    -0.394 OA
HETATM   19  H   UNL     1      28.127  38.677  47.821  1.00  0.00     0.210 HD
ENDBRANCH  16  18
ENDBRANCH  15  16
ENDBRANCH  12  15
ENDBRANCH   5  11
BRANCH   1  20
HETATM   20  C   UNL     1      28.554  43.458  53.650  1.00  0.00    -0.007 A 
HETATM   21  C   UNL     1      28.044  44.632  54.234  1.00  0.00     0.014 A 
HETATM   22  C   UNL     1      28.700  45.277  55.289  1.00  0.00     0.007 A 
HETATM   23  C   UNL     1      29.901  44.771  55.790  1.00  0.00    -0.062 A 
HETATM   24  C   UNL     1      30.608  45.441  56.929  1.00  0.00     0.048 C 
HETATM   25  C   UNL     1      30.424  43.603  55.228  1.00  0.00     0.007 A 
HETATM   26  C   UNL     1      29.763  42.963  54.170  1.00  0.00     0.014 A 
ENDBRANCH   1  20
TORSDOF 5
ENDMDL
MODEL 8
REMARK VINA RESULT:      -8.1      2.731      6.961
REMARK  5 active torsions:
REMARK  status: ('A' for Active; 'I' for Inactive)
REMARK    1  A    between atoms: C_5  and  C_6 
REMARK    2  A    between atoms: C_10  and  C_11 
REMARK       I    between atoms: C_11  and  N_12 
REMARK    3  A    between atoms: N_12  and  C_13 
REMARK    4  A    between atoms: C_13  and  C_14 
REMARK    5  A    between atoms: C_14  and  O_15 
ROOT
HETATM    1  C   UNL     1      26.320  45.603  50.891  1.00  0.00     0.068 A 
HETATM    2  N   UNL     1      26.449  44.488  50.129  1.00  0.00    -0.248 NA
HETATM    3  C   UNL     1      27.011  43.379  50.640  1.00  0.00     0.068 A 
HETATM    4  C   UNL     1      27.463  43.291  51.969  1.00  0.00     0.008 A 
HETATM    5  C   UNL     1      27.268  44.443  52.759  1.00  0.00     0.046 A 
HETATM    6  C   UNL     1      26.712  45.604  52.218  1.00  0.00     0.050 A 
HETATM    7  C   UNL     1      27.158  42.277  49.808  1.00  0.00     0.032 A 
HETATM    8  C   UNL     1      27.756  41.093  50.244  1.00  0.00     0.002 A 
HETATM    9  C   UNL     1      28.229  41.002  51.545  1.00  0.00     0.001 A 
HETATM   10  C   UNL     1      28.090  42.093  52.402  1.00  0.00     0.015 A 
ENDROOT
BRANCH   5  11
HETATM   11  C   UNL     1      27.648  44.521  54.187  1.00  0.00     0.252 C 
HETATM   12  N   UNL     1      28.934  44.931  54.442  1.00  0.00    -0.354 N 
HETATM   13  H   UNL     1      29.559  45.185  53.684  1.00  0.00     0.162 HD
HETATM   14  O   UNL     1      26.850  44.173  55.047  1.00  0.00    -0.268 OA
BRANCH  12  15
HETATM   15  C   UNL     1      29.449  45.099  55.789  1.00  0.00     0.154 C 
BRANCH  15  16
HETATM   16  C   UNL     1      30.806  44.406  55.973  1.00  0.00     0.132 C 
HETATM   17  C   UNL     1      31.149  44.175  57.440  1.00  0.00     0.041 C 
BRANCH  16  18
HETATM   18  O   UNL     1      30.784  43.147  55.292  1.00  0.00    -0.394 OA
HETATM   19  H   UNL     1      30.135  42.584  55.750  1.00  0.00     0.210 HD
ENDBRANCH  16  18
ENDBRANCH  15  16
ENDBRANCH  12  15
ENDBRANCH   5  11
BRANCH   1  20
HETATM   20  C   UNL     1      25.736  46.783  50.211  1.00  0.00    -0.007 A 
HETATM   21  C   UNL     1      26.563  47.795  49.690  1.00  0.00     0.014 A 
HETATM   22  C   UNL     1      26.036  48.923  49.050  1.00  0.00     0.007 A 
HETATM   23  C   UNL     1      24.655  49.081  48.920  1.00  0.00    -0.062 A 
HETATM   24  C   UNL     1      24.075  50.276  48.225  1.00  0.00     0.048 C 
HETATM   25  C   UNL     1      23.815  48.086  49.426  1.00  0.00     0.007 A 
HETATM   26  C   UNL     1      24.349  46.960  50.067  1.00  0.00     0.014 A 
ENDBRANCH   1  20
TORSDOF 5
ENDMDL
MODEL 9
REMARK VINA RESULT:      -8.0      2.541      5.272
REMARK  5 active torsions:
REMARK  status: ('A' for Active; 'I' for Inactive)
REMARK    1  A    between atoms: C_5  and  C_6 
REMARK    2  A    between atoms: C_10  and  C_11 
REMARK       I    between atoms: C_11  and  N_12 
REMARK    3  A    between atoms: N_12  and  C_13 
REMARK    4  A    between atoms: C_13  and  C_14 
REMARK    5  A    between atoms: C_14  and  O_15 
ROOT
HETATM    1  C   UNL     1      27.860  42.562  52.385  1.00  0.00     0.068 A 
HETATM    2  N   UNL     1      28.489  41.472  51.878  1.00  0.00    -0.248 NA
HETATM    3  C   UNL     1      27.909  40.745  50.908  1.00  0.00     0.068 A 
HETATM    4  C   UNL     1      26.661  41.071  50.348  1.00  0.00     0.008 A 
HETATM    5  C   UNL     1      26.051  42.239  50.851  1.00  0.00     0.046 A 
HETATM    6  C   UNL     1      26.639  42.976  51.880  1.00  0.00     0.050 A 
HETATM    7  C   UNL     1      28.574  39.616  50.451  1.00  0.00     0.032 A 
HETATM    8  C   UNL     1      28.036  38.785  49.466  1.00  0.00     0.002 A 
HETATM    9  C   UNL     1      26.794  39.081  48.924  1.00  0.00     0.001 A 
HETATM   10  C   UNL     1      26.107  40.212  49.363  1.00  0.00     0.015 A 
ENDROOT
BRANCH   5  11
HETATM   11  C   UNL     1      24.754  42.754  50.356  1.00  0.00     0.252 C 
HETATM   12  N   UNL     1      24.760  43.259  49.079  1.00  0.00    -0.354 N 
HETATM   13  H   UNL     1      25.605  43.247  48.518  1.00  0.00     0.162 HD
HETATM   14  O   UNL     1      23.782  42.761  51.099  1.00  0.00    -0.268 OA
BRANCH  12  15
HETATM   15  C   UNL     1      23.562  43.765  48.433  1.00  0.00     0.154 C 
BRANCH  15  16
HETATM   16  C   UNL     1      23.413  45.282  48.610  1.00  0.00     0.132 C 
HETATM   17  C   UNL     1      22.357  45.876  47.686  1.00  0.00     0.041 C 
BRANCH  16  18
HETATM   18  O   UNL     1      23.058  45.561  49.969  1.00  0.00    -0.394 OA
HETATM   19  H   UNL     1      23.881  45.557  50.487  1.00  0.00     0.210 HD
ENDBRANCH  16  18
ENDBRANCH  15  16
ENDBRANCH  12  15
ENDBRANCH   5  11
BRANCH   1  20
HETATM   20  C   UNL     1      28.564  43.258  53.488  1.00  0.00    -0.007 A 
HETATM   21  C   UNL     1      28.035  44.433  54.052  1.00  0.00     0.014 A 
HETATM   22  C   UNL     1      28.686  45.113  55.089  1.00  0.00     0.007 A 
HETATM   23  C   UNL     1      29.900  44.640  55.591  1.00  0.00    -0.062 A 
HETATM   24  C   UNL     1      30.601  45.348  56.710  1.00  0.00     0.048 C 
HETATM   25  C   UNL     1      30.442  43.472  55.048  1.00  0.00     0.007 A 
HETATM   26  C   UNL     1      29.787  42.798  54.009  1.00  0.00     0.014 A 
ENDBRANCH   1  20
TORSDOF 5
ENDMDL
MODEL 10
REMARK VINA RESULT:      -7.8      8.562     12.118
REMARK  5 active torsions:
REMARK  status: ('A' for Active; 'I' for Inactive)
REMARK    1  A    between atoms: C_5  and  C_6 
REMARK    2  A    between atoms: C_10  and  C_11 
REMARK       I    between atoms: C_11  and  N_12 
REMARK    3  A    between atoms: N_12  and  C_13 
REMARK    4  A    between atoms: C_13  and  C_14 
REMARK    5  A    between atoms: C_14  and  O_15 
ROOT
HETATM    1  C   UNL     1      22.113  48.350  48.954  1.00  0.00     0.068 A 
HETATM    2  N   UNL     1      21.696  47.221  48.327  1.00  0.00    -0.248 NA
HETATM    3  C   UNL     1      20.388  46.920  48.274  1.00  0.00     0.068 A 
HETATM    4  C   UNL     1      19.388  47.742  48.822  1.00  0.00     0.008 A 
HETATM    5  C   UNL     1      19.839  48.937  49.420  1.00  0.00     0.046 A 
HETATM    6  C   UNL     1      21.201  49.235  49.502  1.00  0.00     0.050 A 
HETATM    7  C   UNL     1      20.015  45.733  47.657  1.00  0.00     0.032 A 
HETATM    8  C   UNL     1      18.682  45.324  47.579  1.00  0.00     0.002 A 
HETATM    9  C   UNL     1      17.689  46.114  48.139  1.00  0.00     0.001 A 
HETATM   10  C   UNL     1      18.037  47.312  48.761  1.00  0.00     0.015 A 
ENDROOT
BRANCH   5  11
HETATM   11  C   UNL     1      18.928  49.940  50.016  1.00  0.00     0.252 C 
HETATM   12  N   UNL     1      18.765  51.100  49.300  1.00  0.00    -0.354 N 
HETATM   13  H   UNL     1      19.229  51.231  48.408  1.00  0.00     0.162 HD
HETATM   14  O   UNL     1      18.424  49.725  51.110  1.00  0.00    -0.268 OA
BRANCH  12  15
HETATM   15  C   UNL     1      17.875  52.165  49.728  1.00  0.00     0.154 C 
BRANCH  15  16
HETATM   16  C   UNL     1      16.732  52.391  48.729  1.00  0.00     0.132 C 
HETATM   17  C   UNL     1      15.768  51.211  48.669  1.00  0.00     0.041 C 
BRANCH  16  18
HETATM   18  O   UNL     1      16.009  53.568  49.105  1.00  0.00    -0.394 OA
HETATM   19  H   UNL     1      15.359  53.304  49.778  1.00  0.00     0.210 HD
ENDBRANCH  16  18
ENDBRANCH  15  16
ENDBRANCH  12  15
ENDBRANCH   5  11
BRANCH   1  20
HETATM   20  C   UNL     1      23.580  48.557  49.000  1.00  0.00    -0.007 A 
HETATM   21  C   UNL     1      24.182  49.605  48.278  1.00  0.00     0.014 A 
HETATM   22  C   UNL     1      25.565  49.817  48.300  1.00  0.00     0.007 A 
HETATM   23  C   UNL     1      26.398  48.975  49.040  1.00  0.00    -0.062 A 
HETATM   24  C   UNL     1      27.879  49.197  49.085  1.00  0.00     0.048 C 
HETATM   25  C   UNL     1      25.821  47.930  49.767  1.00  0.00     0.007 A 
HETATM   26  C   UNL     1      24.436  47.722  49.740  1.00  0.00     0.014 A 
ENDBRANCH   1  20
TORSDOF 5
ENDMDL
