MODEL 1
REMARK VINA RESULT:     -10.1      0.000      0.000
REMARK  6 active torsions:
REMARK  status: ('A' for Active; 'I' for Inactive)
REMARK    1  A    between atoms: C_2  and  C_3 
REMARK    2  A    between atoms: N_6  and  C_8 
REMARK    3  A    between atoms: C_8  and  C_9 
REMARK    4  A    between atoms: C_12  and  C_13 
REMARK    5  A    between atoms: C_13  and  O_14 
REMARK    6  A    between atoms: N_24  and  C_25 
ROOT
HETATM    1  C   UNL     1      23.913  44.157  50.987  1.00  0.00     0.049 C 
HETATM    2  C   UNL     1      24.639  44.968  49.907  1.00  0.00     0.116 C 
HETATM    3  N   UNL     1      24.965  46.279  50.411  1.00  0.00    -0.324 N 
HETATM    4  C   UNL     1      24.103  47.247  49.932  1.00  0.00     0.326 C 
HETATM    5  O   UNL     1      24.169  48.394  50.329  1.00  0.00    -0.247 OA
HETATM    6  N   UNL     1      23.274  46.688  49.012  1.00  0.00    -0.263 N 
HETATM    7  C   UNL     1      23.597  45.368  48.843  1.00  0.00     0.256 C 
HETATM    8  O   UNL     1      23.144  44.607  48.000  1.00  0.00    -0.270 OA
HETATM    9  H   UNL     1      25.322  46.472  51.341  1.00  0.00     0.165 HD
ENDROOT
BRANCH   2  10
HETATM   10  C   UNL     1      25.846  44.210  49.279  1.00  0.00     0.026 C 
HETATM   11  C   UNL     1      25.715  42.678  49.290  1.00  0.00     0.035 C 
HETATM   12  C   UNL     1      25.995  42.033  50.643  1.00  0.00     0.235 C 
HETATM   13  N   UNL     1      27.342  42.458  51.173  1.00  0.00    -0.067 N 
HETATM   14  H   UNL     1      28.048  42.069  50.535  1.00  0.00     0.280 HD
HETATM   15  C   UNL     1      27.530  43.955  51.212  1.00  0.00     0.235 C 
HETATM   16  C   UNL     1      27.231  44.573  49.855  1.00  0.00     0.035 C 
BRANCH  13  17
HETATM   17  C   UNL     1      27.651  41.875  52.546  1.00  0.00     0.273 C 
BRANCH  17  18
HETATM   18  C   UNL     1      28.018  42.896  53.589  1.00  0.00    -0.033 A 
HETATM   19  C   UNL     1      27.049  43.746  54.141  1.00  0.00     0.010 A 
HETATM   20  C   UNL     1      27.418  44.722  55.073  1.00  0.00     0.018 A 
HETATM   21  C   UNL     1      28.756  44.867  55.465  1.00  0.00     0.039 A 
HETATM   22  C   UNL     1      29.722  44.011  54.925  1.00  0.00     0.018 A 
HETATM   23  C   UNL     1      29.356  43.033  53.997  1.00  0.00     0.010 A 
BRANCH  21  24
HETATM   24  C   UNL     1      29.095  45.936  56.443  1.00  0.00     0.292 C 
HETATM   25  O   UNL     1      28.294  46.778  56.814  1.00  0.00    -0.259 OA
BRANCH  24  26
HETATM   26  O   UNL     1      30.393  45.843  56.819  1.00  0.00    -0.323 OA
HETATM   27  C   UNL     1      30.581  45.626  58.220  1.00  0.00     0.213 C 
ENDBRANCH  24  26
ENDBRANCH  21  24
ENDBRANCH  17  18
ENDBRANCH  13  17
ENDBRANCH   2  10
BRANCH   6  28
HETATM   28  C   UNL     1      22.296  47.382  48.164  1.00  0.00     0.106 C 
HETATM   29  C   UNL     1      20.826  47.222  48.621  1.00  0.00     0.065 C 
HETATM   30  C   UNL     1      20.503  48.570  49.186  1.00  0.00    -0.050 A 
HETATM   31  C   UNL     1      21.487  49.509  48.873  1.00  0.00    -0.050 A 
HETATM   32  C   UNL     1      19.364  48.935  49.886  1.00  0.00     0.007 A 
HETATM   33  C   UNL     1      22.588  48.899  48.067  1.00  0.00     0.065 C 
HETATM   34  C   UNL     1      21.348  50.837  49.245  1.00  0.00     0.007 A 
HETATM   35  C   UNL     1      20.204  51.213  49.953  1.00  0.00     0.001 A 
HETATM   36  C   UNL     1      19.220  50.268  50.274  1.00  0.00     0.001 A 
ENDBRANCH   6  28
TORSDOF 6
ENDMDL
MODEL 2
REMARK VINA RESULT:      -9.5     11.611     13.500
REMARK  6 active torsions:
REMARK  status: ('A' for Active; 'I' for Inactive)
REMARK    1  A    between atoms: C_2  and  C_3 
REMARK    2  A    between atoms: N_6  and  C_8 
REMARK    3  A    between atoms: C_8  and  C_9 
REMARK    4  A    between atoms: C_12  and  C_13 
REMARK    5  A    between atoms: C_13  and  O_14 
REMARK    6  A    between atoms: N_24  and  C_25 
ROOT
HETATM    1  C   UNL     1      24.804  49.563  39.619  1.00  0.00     0.049 C 
HETATM    2  C   UNL     1      26.296  49.245  39.774  1.00  0.00     0.116 C 
HETATM    3  N   UNL     1      26.802  49.831  40.991  1.00  0.00    -0.324 N 
HETATM    4  C   UNL     1      27.526  50.983  40.748  1.00  0.00     0.326 C 
HETATM    5  O   UNL     1      27.944  51.662  41.666  1.00  0.00    -0.247 OA
HETATM    6  N   UNL     1      27.659  51.150  39.407  1.00  0.00    -0.263 N 
HETATM    7  C   UNL     1      27.066  50.104  38.751  1.00  0.00     0.256 C 
HETATM    8  O   UNL     1      27.117  49.871  37.552  1.00  0.00    -0.270 OA
HETATM    9  H   UNL     1      26.315  49.832  41.882  1.00  0.00     0.165 HD
ENDROOT
BRANCH   2  10
HETATM   10  C   UNL     1      26.620  47.729  39.616  1.00  0.00     0.026 C 
HETATM   11  C   UNL     1      27.355  47.105  40.813  1.00  0.00     0.035 C 
HETATM   12  C   UNL     1      28.843  47.431  40.877  1.00  0.00     0.235 C 
HETATM   13  N   UNL     1      29.528  47.071  39.582  1.00  0.00    -0.067 N 
HETATM   14  H   UNL     1      29.477  46.048  39.494  1.00  0.00     0.280 HD
HETATM   15  C   UNL     1      28.870  47.673  38.364  1.00  0.00     0.235 C 
HETATM   16  C   UNL     1      27.386  47.344  38.333  1.00  0.00     0.035 C 
BRANCH  13  17
HETATM   17  C   UNL     1      31.012  47.419  39.578  1.00  0.00     0.273 C 
BRANCH  17  18
HETATM   18  C   UNL     1      31.426  48.392  40.649  1.00  0.00    -0.033 A 
HETATM   19  C   UNL     1      30.488  49.228  41.270  1.00  0.00     0.010 A 
HETATM   20  C   UNL     1      30.900  50.160  42.228  1.00  0.00     0.018 A 
HETATM   21  C   UNL     1      32.252  50.275  42.579  1.00  0.00     0.039 A 
HETATM   22  C   UNL     1      33.188  49.433  41.970  1.00  0.00     0.018 A 
HETATM   23  C   UNL     1      32.779  48.498  41.015  1.00  0.00     0.010 A 
BRANCH  21  24
HETATM   24  C   UNL     1      32.637  51.299  43.587  1.00  0.00     0.292 C 
HETATM   25  O   UNL     1      32.058  51.436  44.652  1.00  0.00    -0.259 OA
BRANCH  24  26
HETATM   26  O   UNL     1      33.676  52.042  43.138  1.00  0.00    -0.323 OA
HETATM   27  C   UNL     1      34.788  52.095  44.035  1.00  0.00     0.213 C 
ENDBRANCH  24  26
ENDBRANCH  21  24
ENDBRANCH  17  18
ENDBRANCH  13  17
ENDBRANCH   2  10
BRANCH   6  28
HETATM   28  C   UNL     1      28.462  52.168  38.717  1.00  0.00     0.106 C 
HETATM   29  C   UNL     1      29.266  53.096  39.660  1.00  0.00     0.065 C 
HETATM   30  C   UNL     1      30.673  52.621  39.477  1.00  0.00    -0.050 A 
HETATM   31  C   UNL     1      30.786  51.752  38.391  1.00  0.00    -0.050 A 
HETATM   32  C   UNL     1      31.788  52.998  40.210  1.00  0.00     0.007 A 
HETATM   33  C   UNL     1      29.467  51.537  37.723  1.00  0.00     0.065 C 
HETATM   34  C   UNL     1      32.020  51.249  38.007  1.00  0.00     0.007 A 
HETATM   35  C   UNL     1      33.148  51.620  38.741  1.00  0.00     0.001 A 
HETATM   36  C   UNL     1      33.032  52.488  39.837  1.00  0.00     0.001 A 
ENDBRANCH   6  28
TORSDOF 6
ENDMDL
MODEL 3
REMARK VINA RESULT:      -9.4     11.669     14.839
REMARK  6 active torsions:
REMARK  status: ('A' for Active; 'I' for Inactive)
REMARK    1  A    between atoms: C_2  and  C_3 
REMARK    2  A    between atoms: N_6  and  C_8 
REMARK    3  A    between atoms: C_8  and  C_9 
REMARK    4  A    between atoms: C_12  and  C_13 
REMARK    5  A    between atoms: C_13  and  O_14 
REMARK    6  A    between atoms: N_24  and  C_25 
ROOT
HETATM    1  C   UNL     1      28.528  46.625  38.188  1.00  0.00     0.049 C 
HETATM    2  C   UNL     1      28.571  47.890  39.054  1.00  0.00     0.116 C 
HETATM    3  N   UNL     1      29.573  48.798  38.552  1.00  0.00    -0.324 N 
HETATM    4  C   UNL     1      30.725  48.770  39.316  1.00  0.00     0.326 C 
HETATM    5  O   UNL     1      31.710  49.399  38.983  1.00  0.00    -0.247 OA
HETATM    6  N   UNL     1      30.518  47.983  40.404  1.00  0.00    -0.263 N 
HETATM    7  C   UNL     1      29.231  47.515  40.396  1.00  0.00     0.256 C 
HETATM    8  O   UNL     1      28.674  46.894  41.290  1.00  0.00    -0.270 OA
HETATM    9  H   UNL     1      29.737  48.998  37.571  1.00  0.00     0.165 HD
ENDROOT
BRANCH   2  10
HETATM   10  C   UNL     1      27.170  48.541  39.260  1.00  0.00     0.026 C 
HETATM   11  C   UNL     1      26.886  49.746  38.349  1.00  0.00     0.035 C 
HETATM   12  C   UNL     1      27.566  51.038  38.784  1.00  0.00     0.235 C 
HETATM   13  N   UNL     1      27.235  51.363  40.219  1.00  0.00    -0.067 N 
HETATM   14  H   UNL     1      26.226  51.562  40.253  1.00  0.00     0.280 HD
HETATM   15  C   UNL     1      27.514  50.229  41.175  1.00  0.00     0.235 C 
HETATM   16  C   UNL     1      26.835  48.950  40.709  1.00  0.00     0.035 C 
BRANCH  13  17
HETATM   17  C   UNL     1      27.928  52.626  40.718  1.00  0.00     0.273 C 
BRANCH  17  18
HETATM   18  C   UNL     1      29.382  52.728  40.343  1.00  0.00    -0.033 A 
HETATM   19  C   UNL     1      29.822  52.394  39.054  1.00  0.00     0.010 A 
HETATM   20  C   UNL     1      31.183  52.449  38.739  1.00  0.00     0.018 A 
HETATM   21  C   UNL     1      32.126  52.833  39.703  1.00  0.00     0.039 A 
HETATM   22  C   UNL     1      31.687  53.178  40.986  1.00  0.00     0.018 A 
HETATM   23  C   UNL     1      30.327  53.128  41.303  1.00  0.00     0.010 A 
BRANCH  21  24
HETATM   24  C   UNL     1      33.563  52.851  39.320  1.00  0.00     0.292 C 
HETATM   25  O   UNL     1      34.154  51.870  38.901  1.00  0.00    -0.259 OA
BRANCH  24  26
HETATM   26  O   UNL     1      34.095  54.080  39.527  1.00  0.00    -0.323 OA
HETATM   27  C   UNL     1      35.485  54.177  39.204  1.00  0.00     0.213 C 
ENDBRANCH  24  26
ENDBRANCH  21  24
ENDBRANCH  17  18
ENDBRANCH  13  17
ENDBRANCH   2  10
BRANCH   6  28
HETATM   28  C   UNL     1      31.430  47.783  41.538  1.00  0.00     0.106 C 
HETATM   29  C   UNL     1      32.918  48.068  41.220  1.00  0.00     0.065 C 
HETATM   30  C   UNL     1      33.169  49.362  41.928  1.00  0.00    -0.050 A 
HETATM   31  C   UNL     1      32.121  49.690  42.790  1.00  0.00    -0.050 A 
HETATM   32  C   UNL     1      34.299  50.160  41.842  1.00  0.00     0.007 A 
HETATM   33  C   UNL     1      31.041  48.657  42.755  1.00  0.00     0.065 C 
HETATM   34  C   UNL     1      32.185  50.818  43.593  1.00  0.00     0.007 A 
HETATM   35  C   UNL     1      33.319  51.629  43.510  1.00  0.00     0.001 A 
HETATM   36  C   UNL     1      34.368  51.303  42.639  1.00  0.00     0.001 A 
ENDBRANCH   6  28
TORSDOF 6
ENDMDL
MODEL 4
REMARK VINA RESULT:      -9.1     18.144     21.135
REMARK  6 active torsions:
REMARK  status: ('A' for Active; 'I' for Inactive)
REMARK    1  A    between atoms: C_2  and  C_3 
REMARK    2  A    between atoms: N_6  and  C_8 
REMARK    3  A    between atoms: C_8  and  C_9 
REMARK    4  A    between atoms: C_12  and  C_13 
REMARK    5  A    between atoms: C_13  and  O_14 
REMARK    6  A    between atoms: N_24  and  C_25 
ROOT
HETATM    1  C   UNL     1      40.352  45.852  66.345  1.00  0.00     0.049 C 
HETATM    2  C   UNL     1      39.077  46.372  65.669  1.00  0.00     0.116 C 
HETATM    3  N   UNL     1      37.971  46.317  66.593  1.00  0.00    -0.324 N 
HETATM    4  C   UNL     1      37.138  45.245  66.337  1.00  0.00     0.326 C 
HETATM    5  O   UNL     1      36.208  44.986  67.077  1.00  0.00    -0.247 OA
HETATM    6  N   UNL     1      37.541  44.630  65.195  1.00  0.00    -0.263 N 
HETATM    7  C   UNL     1      38.610  45.301  64.663  1.00  0.00     0.256 C 
HETATM    8  O   UNL     1      39.132  45.100  63.576  1.00  0.00    -0.270 OA
HETATM    9  H   UNL     1      38.019  46.575  67.573  1.00  0.00     0.165 HD
ENDROOT
BRANCH   2  10
HETATM   10  C   UNL     1      39.268  47.761  64.988  1.00  0.00     0.026 C 
HETATM   11  C   UNL     1      40.192  48.725  65.751  1.00  0.00     0.035 C 
HETATM   12  C   UNL     1      39.546  49.390  66.961  1.00  0.00     0.235 C 
HETATM   13  N   UNL     1      38.259  50.076  66.574  1.00  0.00    -0.067 N 
HETATM   14  H   UNL     1      38.513  50.847  65.942  1.00  0.00     0.280 HD
HETATM   15  C   UNL     1      37.293  49.178  65.841  1.00  0.00     0.235 C 
HETATM   16  C   UNL     1      37.967  48.518  64.648  1.00  0.00     0.035 C 
BRANCH  13  17
HETATM   17  C   UNL     1      37.550  50.721  67.759  1.00  0.00     0.273 C 
BRANCH  17  18
HETATM   18  C   UNL     1      37.403  52.215  67.659  1.00  0.00    -0.033 A 
HETATM   19  C   UNL     1      37.786  52.904  66.499  1.00  0.00     0.010 A 
HETATM   20  C   UNL     1      37.687  54.298  66.444  1.00  0.00     0.018 A 
HETATM   21  C   UNL     1      37.208  55.026  67.542  1.00  0.00     0.039 A 
HETATM   22  C   UNL     1      36.813  54.339  68.695  1.00  0.00     0.018 A 
HETATM   23  C   UNL     1      36.907  52.946  68.752  1.00  0.00     0.010 A 
BRANCH  21  24
HETATM   24  C   UNL     1      37.145  56.509  67.436  1.00  0.00     0.292 C 
HETATM   25  O   UNL     1      38.121  57.202  67.199  1.00  0.00    -0.259 OA
BRANCH  24  26
HETATM   26  O   UNL     1      35.884  56.949  67.660  1.00  0.00    -0.323 OA
HETATM   27  C   UNL     1      35.018  56.846  66.527  1.00  0.00     0.213 C 
ENDBRANCH  24  26
ENDBRANCH  21  24
ENDBRANCH  17  18
ENDBRANCH  13  17
ENDBRANCH   2  10
BRANCH   6  28
HETATM   28  C   UNL     1      36.862  43.533  64.493  1.00  0.00     0.106 C 
HETATM   29  C   UNL     1      37.455  43.198  63.103  1.00  0.00     0.065 C 
HETATM   30  C   UNL     1      38.162  41.902  63.345  1.00  0.00    -0.050 A 
HETATM   31  C   UNL     1      37.828  41.356  64.585  1.00  0.00    -0.050 A 
HETATM   32  C   UNL     1      39.006  41.231  62.473  1.00  0.00     0.007 A 
HETATM   33  C   UNL     1      36.863  42.226  65.324  1.00  0.00     0.065 C 
HETATM   34  C   UNL     1      38.323  40.122  64.977  1.00  0.00     0.007 A 
HETATM   35  C   UNL     1      39.177  39.440  64.107  1.00  0.00     0.001 A 
HETATM   36  C   UNL     1      39.518  39.992  62.864  1.00  0.00     0.001 A 
ENDBRANCH   6  28
TORSDOF 6
ENDMDL
MODEL 5
REMARK VINA RESULT:      -9.1      2.734      4.378
REMARK  6 active torsions:
REMARK  status: ('A' for Active; 'I' for Inactive)
REMARK    1  A    between atoms: C_2  and  C_3 
REMARK    2  A    between atoms: N_6  and  C_8 
REMARK    3  A    between atoms: C_8  and  C_9 
REMARK    4  A    between atoms: C_12  and  C_13 
REMARK    5  A    between atoms: C_13  and  O_14 
REMARK    6  A    between atoms: N_24  and  C_25 
ROOT
HETATM    1  C   UNL     1      20.217  45.607  48.610  1.00  0.00     0.049 C 
HETATM    2  C   UNL     1      21.025  46.883  48.345  1.00  0.00     0.116 C 
HETATM    3  N   UNL     1      20.912  47.781  49.468  1.00  0.00    -0.324 N 
HETATM    4  C   UNL     1      20.032  48.816  49.215  1.00  0.00     0.326 C 
HETATM    5  O   UNL     1      19.740  49.613  50.086  1.00  0.00    -0.247 OA
HETATM    6  N   UNL     1      19.631  48.752  47.919  1.00  0.00    -0.263 N 
HETATM    7  C   UNL     1      20.261  47.711  47.292  1.00  0.00     0.256 C 
HETATM    8  O   UNL     1      20.233  47.452  46.097  1.00  0.00    -0.270 OA
HETATM    9  H   UNL     1      20.946  47.500  50.443  1.00  0.00     0.165 HD
ENDROOT
BRANCH   2  10
HETATM   10  C   UNL     1      22.493  46.599  47.904  1.00  0.00     0.026 C 
HETATM   11  C   UNL     1      23.006  45.194  48.260  1.00  0.00     0.035 C 
HETATM   12  C   UNL     1      23.396  45.019  49.723  1.00  0.00     0.235 C 
HETATM   13  N   UNL     1      24.389  46.074  50.144  1.00  0.00    -0.067 N 
HETATM   14  H   UNL     1      25.251  45.901  49.610  1.00  0.00     0.280 HD
HETATM   15  C   UNL     1      23.936  47.482  49.846  1.00  0.00     0.235 C 
HETATM   16  C   UNL     1      23.541  47.624  48.384  1.00  0.00     0.035 C 
BRANCH  13  17
HETATM   17  C   UNL     1      24.779  45.971  51.614  1.00  0.00     0.273 C 
BRANCH  17  18
HETATM   18  C   UNL     1      25.890  44.995  51.897  1.00  0.00    -0.033 A 
HETATM   19  C   UNL     1      25.981  44.341  53.133  1.00  0.00     0.010 A 
HETATM   20  C   UNL     1      27.048  43.475  53.394  1.00  0.00     0.018 A 
HETATM   21  C   UNL     1      28.040  43.251  52.430  1.00  0.00     0.039 A 
HETATM   22  C   UNL     1      27.944  43.893  51.191  1.00  0.00     0.018 A 
HETATM   23  C   UNL     1      26.877  44.756  50.926  1.00  0.00     0.010 A 
BRANCH  21  24
HETATM   24  C   UNL     1      29.165  42.337  52.770  1.00  0.00     0.292 C 
HETATM   25  O   UNL     1      29.078  41.122  52.706  1.00  0.00    -0.259 OA
BRANCH  24  26
HETATM   26  O   UNL     1      30.248  43.045  53.170  1.00  0.00    -0.323 OA
HETATM   27  C   UNL     1      30.412  43.108  54.590  1.00  0.00     0.213 C 
ENDBRANCH  24  26
ENDBRANCH  21  24
ENDBRANCH  17  18
ENDBRANCH  13  17
ENDBRANCH   2  10
BRANCH   6  28
HETATM   28  C   UNL     1      18.803  49.729  47.200  1.00  0.00     0.106 C 
HETATM   29  C   UNL     1      17.279  49.553  47.406  1.00  0.00     0.065 C 
HETATM   30  C   UNL     1      16.927  50.702  48.298  1.00  0.00    -0.050 A 
HETATM   31  C   UNL     1      17.977  51.617  48.397  1.00  0.00    -0.050 A 
HETATM   32  C   UNL     1      15.716  50.933  48.930  1.00  0.00     0.007 A 
HETATM   33  C   UNL     1      19.157  51.186  47.589  1.00  0.00     0.065 C 
HETATM   34  C   UNL     1      17.833  52.790  49.123  1.00  0.00     0.007 A 
HETATM   35  C   UNL     1      16.616  53.029  49.766  1.00  0.00     0.001 A 
HETATM   36  C   UNL     1      15.565  52.106  49.672  1.00  0.00     0.001 A 
ENDBRANCH   6  28
TORSDOF 6
ENDMDL
MODEL 6
REMARK VINA RESULT:      -9.1      4.774      8.516
REMARK  6 active torsions:
REMARK  status: ('A' for Active; 'I' for Inactive)
REMARK    1  A    between atoms: C_2  and  C_3 
REMARK    2  A    between atoms: N_6  and  C_8 
REMARK    3  A    between atoms: C_8  and  C_9 
REMARK    4  A    between atoms: C_12  and  C_13 
REMARK    5  A    between atoms: C_13  and  O_14 
REMARK    6  A    between atoms: N_24  and  C_25 
ROOT
HETATM    1  C   UNL     1      19.114  52.071  48.111  1.00  0.00     0.049 C 
HETATM    2  C   UNL     1      18.252  51.283  49.105  1.00  0.00     0.116 C 
HETATM    3  N   UNL     1      17.439  50.323  48.401  1.00  0.00    -0.324 N 
HETATM    4  C   UNL     1      16.129  50.744  48.281  1.00  0.00     0.326 C 
HETATM    5  O   UNL     1      15.324  50.106  47.630  1.00  0.00    -0.247 OA
HETATM    6  N   UNL     1      15.964  51.893  48.987  1.00  0.00    -0.263 N 
HETATM    7  C   UNL     1      17.139  52.223  49.609  1.00  0.00     0.256 C 
HETATM    8  O   UNL     1      17.307  53.117  50.427  1.00  0.00    -0.270 OA
HETATM    9  H   UNL     1      17.758  49.747  47.628  1.00  0.00     0.165 HD
ENDROOT
BRANCH   2  10
HETATM   10  C   UNL     1      19.074  50.677  50.283  1.00  0.00     0.026 C 
HETATM   11  C   UNL     1      20.563  51.060  50.287  1.00  0.00     0.035 C 
HETATM   12  C   UNL     1      21.412  50.294  49.280  1.00  0.00     0.235 C 
HETATM   13  N   UNL     1      21.243  48.805  49.457  1.00  0.00    -0.067 N 
HETATM   14  H   UNL     1      21.634  48.570  50.378  1.00  0.00     0.280 HD
HETATM   15  C   UNL     1      19.803  48.355  49.438  1.00  0.00     0.235 C 
HETATM   16  C   UNL     1      18.977  49.145  50.441  1.00  0.00     0.035 C 
BRANCH  13  17
HETATM   17  C   UNL     1      22.039  47.992  48.443  1.00  0.00     0.273 C 
BRANCH  17  18
HETATM   18  C   UNL     1      23.156  47.176  49.038  1.00  0.00    -0.033 A 
HETATM   19  C   UNL     1      24.221  47.790  49.711  1.00  0.00     0.010 A 
HETATM   20  C   UNL     1      25.274  47.019  50.214  1.00  0.00     0.018 A 
HETATM   21  C   UNL     1      25.282  45.627  50.051  1.00  0.00     0.039 A 
HETATM   22  C   UNL     1      24.214  45.011  49.390  1.00  0.00     0.018 A 
HETATM   23  C   UNL     1      23.159  45.779  48.890  1.00  0.00     0.010 A 
BRANCH  21  24
HETATM   24  C   UNL     1      26.439  44.858  50.587  1.00  0.00     0.292 C 
HETATM   25  O   UNL     1      27.468  44.678  49.957  1.00  0.00    -0.259 OA
BRANCH  24  26
HETATM   26  O   UNL     1      26.164  44.389  51.827  1.00  0.00    -0.323 OA
HETATM   27  C   UNL     1      27.281  44.411  52.721  1.00  0.00     0.213 C 
ENDBRANCH  24  26
ENDBRANCH  21  24
ENDBRANCH  17  18
ENDBRANCH  13  17
ENDBRANCH   2  10
BRANCH   6  28
HETATM   28  C   UNL     1      14.705  52.607  49.235  1.00  0.00     0.106 C 
HETATM   29  C   UNL     1      14.344  52.767  50.732  1.00  0.00     0.065 C 
HETATM   30  C   UNL     1      14.604  54.219  50.985  1.00  0.00    -0.050 A 
HETATM   31  C   UNL     1      14.804  54.922  49.796  1.00  0.00    -0.050 A 
HETATM   32  C   UNL     1      14.599  54.871  52.208  1.00  0.00     0.007 A 
HETATM   33  C   UNL     1      14.709  54.022  48.606  1.00  0.00     0.065 C 
HETATM   34  C   UNL     1      14.993  56.295  49.803  1.00  0.00     0.007 A 
HETATM   35  C   UNL     1      14.994  56.960  51.032  1.00  0.00     0.001 A 
HETATM   36  C   UNL     1      14.800  56.252  52.227  1.00  0.00     0.001 A 
ENDBRANCH   6  28
TORSDOF 6
ENDMDL
MODEL 7
REMARK VINA RESULT:      -8.9     19.215     21.875
REMARK  6 active torsions:
REMARK  status: ('A' for Active; 'I' for Inactive)
REMARK    1  A    between atoms: C_2  and  C_3 
REMARK    2  A    between atoms: N_6  and  C_8 
REMARK    3  A    between atoms: C_8  and  C_9 
REMARK    4  A    between atoms: C_12  and  C_13 
REMARK    5  A    between atoms: C_13  and  O_14 
REMARK    6  A    between atoms: N_24  and  C_25 
ROOT
HETATM    1  C   UNL     1      40.334  47.528  66.876  1.00  0.00     0.049 C 
HETATM    2  C   UNL     1      39.555  47.020  65.657  1.00  0.00     0.116 C 
HETATM    3  N   UNL     1      38.673  45.947  66.046  1.00  0.00    -0.324 N 
HETATM    4  C   UNL     1      39.174  44.710  65.686  1.00  0.00     0.326 C 
HETATM    5  O   UNL     1      38.611  43.687  66.022  1.00  0.00    -0.247 OA
HETATM    6  N   UNL     1      40.300  44.885  64.945  1.00  0.00    -0.263 N 
HETATM    7  C   UNL     1      40.535  46.223  64.773  1.00  0.00     0.256 C 
HETATM    8  O   UNL     1      41.381  46.729  64.050  1.00  0.00    -0.270 OA
HETATM    9  H   UNL     1      38.114  45.932  66.893  1.00  0.00     0.165 HD
ENDROOT
BRANCH   2  10
HETATM   10  C   UNL     1      38.853  48.160  64.859  1.00  0.00     0.026 C 
HETATM   11  C   UNL     1      39.558  49.524  64.941  1.00  0.00     0.035 C 
HETATM   12  C   UNL     1      39.326  50.275  66.247  1.00  0.00     0.235 C 
HETATM   13  N   UNL     1      37.851  50.418  66.530  1.00  0.00    -0.067 N 
HETATM   14  H   UNL     1      37.465  51.025  65.795  1.00  0.00     0.280 HD
HETATM   15  C   UNL     1      37.100  49.110  66.490  1.00  0.00     0.235 C 
HETATM   16  C   UNL     1      37.360  48.376  65.184  1.00  0.00     0.035 C 
BRANCH  13  17
HETATM   17  C   UNL     1      37.565  51.124  67.850  1.00  0.00     0.273 C 
BRANCH  17  18
HETATM   18  C   UNL     1      37.392  52.614  67.735  1.00  0.00    -0.033 A 
HETATM   19  C   UNL     1      36.894  53.371  68.805  1.00  0.00     0.010 A 
HETATM   20  C   UNL     1      36.695  54.747  68.661  1.00  0.00     0.018 A 
HETATM   21  C   UNL     1      36.985  55.390  67.450  1.00  0.00     0.039 A 
HETATM   22  C   UNL     1      37.495  54.639  66.385  1.00  0.00     0.018 A 
HETATM   23  C   UNL     1      37.699  53.264  66.527  1.00  0.00     0.010 A 
BRANCH  21  24
HETATM   24  C   UNL     1      36.733  56.853  67.347  1.00  0.00     0.292 C 
HETATM   25  O   UNL     1      37.571  57.648  66.955  1.00  0.00    -0.259 OA
BRANCH  24  26
HETATM   26  O   UNL     1      35.479  57.150  67.765  1.00  0.00    -0.323 OA
HETATM   27  C   UNL     1      34.475  56.994  66.758  1.00  0.00     0.213 C 
ENDBRANCH  24  26
ENDBRANCH  21  24
ENDBRANCH  17  18
ENDBRANCH  13  17
ENDBRANCH   2  10
BRANCH   6  28
HETATM   28  C   UNL     1      41.073  43.846  64.252  1.00  0.00     0.106 C 
HETATM   29  C   UNL     1      41.579  42.706  65.169  1.00  0.00     0.065 C 
HETATM   30  C   UNL     1      40.697  41.558  64.793  1.00  0.00    -0.050 A 
HETATM   31  C   UNL     1      39.965  41.828  63.635  1.00  0.00    -0.050 A 
HETATM   32  C   UNL     1      40.608  40.326  65.423  1.00  0.00     0.007 A 
HETATM   33  C   UNL     1      40.266  43.192  63.104  1.00  0.00     0.065 C 
HETATM   34  C   UNL     1      39.136  40.868  63.076  1.00  0.00     0.007 A 
HETATM   35  C   UNL     1      39.038  39.625  63.707  1.00  0.00     0.001 A 
HETATM   36  C   UNL     1      39.768  39.357  64.873  1.00  0.00     0.001 A 
ENDBRANCH   6  28
TORSDOF 6
ENDMDL
MODEL 8
REMARK VINA RESULT:      -8.8     12.632     14.275
REMARK  6 active torsions:
REMARK  status: ('A' for Active; 'I' for Inactive)
REMARK    1  A    between atoms: C_2  and  C_3 
REMARK    2  A    between atoms: N_6  and  C_8 
REMARK    3  A    between atoms: C_8  and  C_9 
REMARK    4  A    between atoms: C_12  and  C_13 
REMARK    5  A    between atoms: C_13  and  O_14 
REMARK    6  A    between atoms: N_24  and  C_25 
ROOT
HETATM    1  C   UNL     1      28.774  53.088  38.327  1.00  0.00     0.049 C 
HETATM    2  C   UNL     1      29.368  52.222  39.444  1.00  0.00     0.116 C 
HETATM    3  N   UNL     1      30.315  51.286  38.891  1.00  0.00    -0.324 N 
HETATM    4  C   UNL     1      29.785  50.013  38.792  1.00  0.00     0.326 C 
HETATM    5  O   UNL     1      30.409  49.117  38.257  1.00  0.00    -0.247 OA
HETATM    6  N   UNL     1      28.558  49.995  39.376  1.00  0.00    -0.263 N 
HETATM    7  C   UNL     1      28.278  51.230  39.897  1.00  0.00     0.256 C 
HETATM    8  O   UNL     1      27.324  51.526  40.602  1.00  0.00    -0.270 OA
HETATM    9  H   UNL     1      30.996  51.504  38.171  1.00  0.00     0.165 HD
ENDROOT
BRANCH   2  10
HETATM   10  C   UNL     1      29.923  53.057  40.637  1.00  0.00     0.026 C 
HETATM   11  C   UNL     1      31.359  53.571  40.445  1.00  0.00     0.035 C 
HETATM   12  C   UNL     1      32.439  52.518  40.660  1.00  0.00     0.235 C 
HETATM   13  N   UNL     1      32.284  51.857  42.007  1.00  0.00    -0.067 N 
HETATM   14  H   UNL     1      32.465  52.581  42.715  1.00  0.00     0.280 HD
HETATM   15  C   UNL     1      30.901  51.306  42.254  1.00  0.00     0.235 C 
HETATM   16  C   UNL     1      29.844  52.374  42.019  1.00  0.00     0.035 C 
BRANCH  13  17
HETATM   17  C   UNL     1      33.315  50.762  42.255  1.00  0.00     0.273 C 
BRANCH  17  18
HETATM   18  C   UNL     1      34.610  51.249  42.848  1.00  0.00    -0.033 A 
HETATM   19  C   UNL     1      34.621  52.099  43.963  1.00  0.00     0.010 A 
HETATM   20  C   UNL     1      35.832  52.579  44.470  1.00  0.00     0.018 A 
HETATM   21  C   UNL     1      37.049  52.222  43.873  1.00  0.00     0.039 A 
HETATM   22  C   UNL     1      37.041  51.364  42.769  1.00  0.00     0.018 A 
HETATM   23  C   UNL     1      35.833  50.879  42.262  1.00  0.00     0.010 A 
BRANCH  21  24
HETATM   24  C   UNL     1      38.307  52.781  44.441  1.00  0.00     0.292 C 
HETATM   25  O   UNL     1      39.005  53.585  43.847  1.00  0.00    -0.259 OA
BRANCH  24  26
HETATM   26  O   UNL     1      38.552  52.252  45.663  1.00  0.00    -0.323 OA
HETATM   27  C   UNL     1      38.791  53.226  46.683  1.00  0.00     0.213 C 
ENDBRANCH  24  26
ENDBRANCH  21  24
ENDBRANCH  17  18
ENDBRANCH  13  17
ENDBRANCH   2  10
BRANCH   6  28
HETATM   28  C   UNL     1      27.706  48.822  39.608  1.00  0.00     0.106 C 
HETATM   29  C   UNL     1      27.107  48.202  38.322  1.00  0.00     0.065 C 
HETATM   30  C   UNL     1      27.894  46.939  38.162  1.00  0.00    -0.050 A 
HETATM   31  C   UNL     1      28.649  46.655  39.301  1.00  0.00    -0.050 A 
HETATM   32  C   UNL     1      27.882  46.074  37.079  1.00  0.00     0.007 A 
HETATM   33  C   UNL     1      28.461  47.697  40.356  1.00  0.00     0.065 C 
HETATM   34  C   UNL     1      29.400  45.492  39.386  1.00  0.00     0.007 A 
HETATM   35  C   UNL     1      29.395  44.617  38.298  1.00  0.00     0.001 A 
HETATM   36  C   UNL     1      28.643  44.907  37.151  1.00  0.00     0.001 A 
ENDBRANCH   6  28
TORSDOF 6
ENDMDL
MODEL 9
REMARK VINA RESULT:      -8.7      6.415     10.421
REMARK  6 active torsions:
REMARK  status: ('A' for Active; 'I' for Inactive)
REMARK    1  A    between atoms: C_2  and  C_3 
REMARK    2  A    between atoms: N_6  and  C_8 
REMARK    3  A    between atoms: C_8  and  C_9 
REMARK    4  A    between atoms: C_12  and  C_13 
REMARK    5  A    between atoms: C_13  and  O_14 
REMARK    6  A    between atoms: N_24  and  C_25 
ROOT
HETATM    1  C   UNL     1      16.737  49.678  43.672  1.00  0.00     0.049 C 
HETATM    2  C   UNL     1      16.608  49.251  45.139  1.00  0.00     0.116 C 
HETATM    3  N   UNL     1      17.825  49.557  45.851  1.00  0.00    -0.324 N 
HETATM    4  C   UNL     1      18.602  48.432  46.053  1.00  0.00     0.326 C 
HETATM    5  O   UNL     1      19.708  48.518  46.550  1.00  0.00    -0.247 OA
HETATM    6  N   UNL     1      17.917  47.336  45.632  1.00  0.00    -0.263 N 
HETATM    7  C   UNL     1      16.678  47.711  45.187  1.00  0.00     0.256 C 
HETATM    8  O   UNL     1      15.761  46.968  44.866  1.00  0.00    -0.270 OA
HETATM    9  H   UNL     1      18.361  50.412  45.745  1.00  0.00     0.165 HD
ENDROOT
BRANCH   2  10
HETATM   10  C   UNL     1      15.318  49.793  45.825  1.00  0.00     0.026 C 
HETATM   11  C   UNL     1      15.180  51.324  45.806  1.00  0.00     0.035 C 
HETATM   12  C   UNL     1      16.046  52.047  46.831  1.00  0.00     0.235 C 
HETATM   13  N   UNL     1      15.802  51.505  48.218  1.00  0.00    -0.067 N 
HETATM   14  H   UNL     1      14.833  51.744  48.464  1.00  0.00     0.280 HD
HETATM   15  C   UNL     1      15.946  50.006  48.314  1.00  0.00     0.235 C 
HETATM   16  C   UNL     1      15.083  49.312  47.272  1.00  0.00     0.035 C 
BRANCH  13  17
HETATM   17  C   UNL     1      16.678  52.165  49.276  1.00  0.00     0.273 C 
BRANCH  17  18
HETATM   18  C   UNL     1      18.094  51.656  49.318  1.00  0.00    -0.033 A 
HETATM   19  C   UNL     1      18.480  50.664  50.231  1.00  0.00     0.010 A 
HETATM   20  C   UNL     1      19.811  50.240  50.288  1.00  0.00     0.018 A 
HETATM   21  C   UNL     1      20.777  50.799  49.440  1.00  0.00     0.039 A 
HETATM   22  C   UNL     1      20.392  51.780  48.520  1.00  0.00     0.018 A 
HETATM   23  C   UNL     1      19.062  52.204  48.459  1.00  0.00     0.010 A 
BRANCH  21  24
HETATM   24  C   UNL     1      22.183  50.325  49.560  1.00  0.00     0.292 C 
HETATM   25  O   UNL     1      23.120  51.072  49.788  1.00  0.00    -0.259 OA
BRANCH  24  26
HETATM   26  O   UNL     1      22.253  48.988  49.356  1.00  0.00    -0.323 OA
HETATM   27  C   UNL     1      23.587  48.472  49.320  1.00  0.00     0.213 C 
ENDBRANCH  24  26
ENDBRANCH  21  24
ENDBRANCH  17  18
ENDBRANCH  13  17
ENDBRANCH   2  10
BRANCH   6  28
HETATM   28  C   UNL     1      18.317  45.931  45.782  1.00  0.00     0.106 C 
HETATM   29  C   UNL     1      19.674  45.578  45.126  1.00  0.00     0.065 C 
HETATM   30  C   UNL     1      20.582  45.413  46.304  1.00  0.00    -0.050 A 
HETATM   31  C   UNL     1      19.868  45.369  47.502  1.00  0.00    -0.050 A 
HETATM   32  C   UNL     1      21.958  45.251  46.286  1.00  0.00     0.007 A 
HETATM   33  C   UNL     1      18.398  45.508  47.269  1.00  0.00     0.065 C 
HETATM   34  C   UNL     1      20.515  45.154  48.709  1.00  0.00     0.007 A 
HETATM   35  C   UNL     1      21.902  44.994  48.701  1.00  0.00     0.001 A 
HETATM   36  C   UNL     1      22.620  45.044  47.497  1.00  0.00     0.001 A 
ENDBRANCH   6  28
TORSDOF 6
ENDMDL
MODEL 10
REMARK VINA RESULT:      -8.6     18.124     22.027
REMARK  6 active torsions:
REMARK  status: ('A' for Active; 'I' for Inactive)
REMARK    1  A    between atoms: C_2  and  C_3 
REMARK    2  A    between atoms: N_6  and  C_8 
REMARK    3  A    between atoms: C_8  and  C_9 
REMARK    4  A    between atoms: C_12  and  C_13 
REMARK    5  A    between atoms: C_13  and  O_14 
REMARK    6  A    between atoms: N_24  and  C_25 
ROOT
HETATM    1  C   UNL     1      38.994  43.228  66.209  1.00  0.00     0.049 C 
HETATM    2  C   UNL     1      39.474  42.574  64.908  1.00  0.00     0.116 C 
HETATM    3  N   UNL     1      38.586  41.499  64.539  1.00  0.00    -0.324 N 
HETATM    4  C   UNL     1      39.121  40.261  64.839  1.00  0.00     0.326 C 
HETATM    5  O   UNL     1      38.469  39.246  64.686  1.00  0.00    -0.247 OA
HETATM    6  N   UNL     1      40.397  40.421  65.278  1.00  0.00    -0.263 N 
HETATM    7  C   UNL     1      40.734  41.748  65.237  1.00  0.00     0.256 C 
HETATM    8  O   UNL     1      41.842  42.227  65.434  1.00  0.00    -0.270 OA
HETATM    9  H   UNL     1      37.574  41.535  64.600  1.00  0.00     0.165 HD
ENDROOT
BRANCH   2  10
HETATM   10  C   UNL     1      39.738  43.601  63.767  1.00  0.00     0.026 C 
HETATM   11  C   UNL     1      40.159  44.999  64.249  1.00  0.00     0.035 C 
HETATM   12  C   UNL     1      39.012  45.855  64.774  1.00  0.00     0.235 C 
HETATM   13  N   UNL     1      37.904  45.952  63.755  1.00  0.00    -0.067 N 
HETATM   14  H   UNL     1      38.284  46.470  62.952  1.00  0.00     0.280 HD
HETATM   15  C   UNL     1      37.424  44.612  63.256  1.00  0.00     0.235 C 
HETATM   16  C   UNL     1      38.589  43.774  62.751  1.00  0.00     0.035 C 
BRANCH  13  17
HETATM   17  C   UNL     1      36.712  46.763  64.250  1.00  0.00     0.273 C 
BRANCH  17  18
HETATM   18  C   UNL     1      37.076  47.960  65.086  1.00  0.00    -0.033 A 
HETATM   19  C   UNL     1      37.930  48.955  64.591  1.00  0.00     0.010 A 
HETATM   20  C   UNL     1      38.296  50.036  65.400  1.00  0.00     0.018 A 
HETATM   21  C   UNL     1      37.819  50.139  66.714  1.00  0.00     0.039 A 
HETATM   22  C   UNL     1      36.956  49.153  67.205  1.00  0.00     0.018 A 
HETATM   23  C   UNL     1      36.586  48.075  66.398  1.00  0.00     0.010 A 
BRANCH  21  24
HETATM   24  C   UNL     1      38.258  51.298  67.538  1.00  0.00     0.292 C 
HETATM   25  O   UNL     1      39.288  51.298  68.191  1.00  0.00    -0.259 OA
BRANCH  24  26
HETATM   26  O   UNL     1      37.353  52.302  67.467  1.00  0.00    -0.323 OA
HETATM   27  C   UNL     1      37.867  53.514  66.907  1.00  0.00     0.213 C 
ENDBRANCH  24  26
ENDBRANCH  21  24
ENDBRANCH  17  18
ENDBRANCH  13  17
ENDBRANCH   2  10
BRANCH   6  28
HETATM   28  C   UNL     1      41.369  39.363  65.579  1.00  0.00     0.106 C 
HETATM   29  C   UNL     1      41.665  39.175  67.086  1.00  0.00     0.065 C 
HETATM   30  C   UNL     1      40.964  37.893  67.408  1.00  0.00    -0.050 A 
HETATM   31  C   UNL     1      40.551  37.228  66.253  1.00  0.00    -0.050 A 
HETATM   32  C   UNL     1      40.766  37.337  68.662  1.00  0.00     0.007 A 
HETATM   33  C   UNL     1      40.920  37.990  65.021  1.00  0.00     0.065 C 
HETATM   34  C   UNL     1      39.939  35.986  66.326  1.00  0.00     0.007 A 
HETATM   35  C   UNL     1      39.733  35.420  67.586  1.00  0.00     0.001 A 
HETATM   36  C   UNL     1      40.142  36.091  68.746  1.00  0.00     0.001 A 
ENDBRANCH   6  28
TORSDOF 6
ENDMDL
