MODEL 1
REMARK VINA RESULT:      -8.6      0.000      0.000
REMARK  5 active torsions:
REMARK  status: ('A' for Active; 'I' for Inactive)
REMARK    1  A    between atoms: C_7  and  C_8 
REMARK    2  A    between atoms: N_9  and  C_10 
REMARK    3  A    between atoms: C_10  and  C_11 
REMARK       I    between atoms: C_11  and  N_12 
REMARK    4  A    between atoms: N_12  and  C_13 
REMARK    5  A    between atoms: C_13  and  C_14 
ROOT
HETATM    1  C   UNL     1      27.180  43.645  51.311  1.00  0.00     0.158 A 
HETATM    2  N   UNL     1      26.860  43.639  52.728  1.00  0.00    -0.326 N 
HETATM    3  C   UNL     1      26.318  44.835  53.158  1.00  0.00     0.255 A 
HETATM    4  O   UNL     1      25.976  45.140  54.283  1.00  0.00    -0.267 OA
HETATM    5  C   UNL     1      26.294  45.734  52.000  1.00  0.00     0.040 A 
HETATM    6  C   UNL     1      26.815  45.046  50.903  1.00  0.00    -0.015 A 
HETATM    7  C   UNL     1      25.887  47.053  51.937  1.00  0.00     0.017 A 
HETATM    8  C   UNL     1      26.008  47.702  50.709  1.00  0.00     0.001 A 
HETATM    9  C   UNL     1      26.533  47.027  49.590  1.00  0.00     0.001 A 
HETATM   10  C   UNL     1      26.944  45.692  49.683  1.00  0.00     0.011 A 
ENDROOT
BRANCH   1  11
HETATM   11  C   UNL     1      26.305  42.735  50.489  1.00  0.00     0.004 A 
HETATM   12  C   UNL     1      24.937  42.807  50.207  1.00  0.00     0.017 A 
HETATM   13  C   UNL     1      23.897  43.776  50.672  1.00  0.00     0.069 C 
HETATM   14  N   UNL     1      24.641  41.800  49.308  1.00  0.00    -0.354 N 
HETATM   15  C   UNL     1      23.352  41.590  48.677  1.00  0.00     0.156 C 
HETATM   16  C   UNL     1      25.752  41.020  49.067  1.00  0.00     0.045 A 
HETATM   17  C   UNL     1      26.806  41.580  49.788  1.00  0.00     0.001 A 
HETATM   18  C   UNL     1      25.922  39.880  48.262  1.00  0.00     0.030 A 
HETATM   19  C   UNL     1      28.083  40.979  49.688  1.00  0.00     0.014 A 
HETATM   20  C   UNL     1      28.262  39.848  48.884  1.00  0.00     0.001 A 
HETATM   21  C   UNL     1      27.194  39.307  48.182  1.00  0.00     0.002 A 
ENDBRANCH   1  11
BRANCH   2  22
HETATM   22  C   UNL     1      27.166  42.516  53.604  1.00  0.00     0.229 C 
BRANCH  22  23
HETATM   23  C   UNL     1      28.654  42.310  53.924  1.00  0.00     0.235 C 
HETATM   24  N   UNL     1      29.257  43.320  54.632  1.00  0.00    -0.357 N 
HETATM   25  H   UNL     1      28.715  44.143  54.855  1.00  0.00     0.162 HD
HETATM   26  O   UNL     1      29.235  41.264  53.635  1.00  0.00    -0.272 OA
BRANCH  24  27
HETATM   27  C   UNL     1      30.577  43.215  55.226  1.00  0.00     0.154 C 
BRANCH  27  28
HETATM   28  C   UNL     1      30.962  44.403  56.109  1.00  0.00     0.139 C 
HETATM   29  O   UNL     1      31.500  43.966  57.377  1.00  0.00    -0.384 OA
HETATM   30  C   UNL     1      31.029  44.869  58.390  1.00  0.00     0.168 C 
HETATM   31  C   UNL     1      30.378  46.035  57.677  1.00  0.00     0.029 C 
HETATM   32  C   UNL     1      29.839  45.372  56.434  1.00  0.00     0.035 C 
ENDBRANCH  27  28
ENDBRANCH  24  27
ENDBRANCH  22  23
ENDBRANCH   2  22
TORSDOF 5
ENDMDL
MODEL 2
REMARK VINA RESULT:      -8.5     16.174     17.965
REMARK  5 active torsions:
REMARK  status: ('A' for Active; 'I' for Inactive)
REMARK    1  A    between atoms: C_7  and  C_8 
REMARK    2  A    between atoms: N_9  and  C_10 
REMARK    3  A    between atoms: C_10  and  C_11 
REMARK       I    between atoms: C_11  and  N_12 
REMARK    4  A    between atoms: N_12  and  C_13 
REMARK    5  A    between atoms: C_13  and  C_14 
ROOT
HETATM    1  C   UNL     1      38.032  42.734  63.965  1.00  0.00     0.158 A 
HETATM    2  N   UNL     1      38.280  44.161  63.870  1.00  0.00    -0.326 N 
HETATM    3  C   UNL     1      37.330  44.913  64.534  1.00  0.00     0.255 A 
HETATM    4  O   UNL     1      37.254  46.123  64.613  1.00  0.00    -0.267 OA
HETATM    5  C   UNL     1      36.349  43.973  65.084  1.00  0.00     0.040 A 
HETATM    6  C   UNL     1      36.746  42.679  64.742  1.00  0.00    -0.015 A 
HETATM    7  C   UNL     1      35.190  44.243  65.786  1.00  0.00     0.017 A 
HETATM    8  C   UNL     1      34.401  43.156  66.162  1.00  0.00     0.001 A 
HETATM    9  C   UNL     1      34.782  41.844  65.825  1.00  0.00     0.001 A 
HETATM   10  C   UNL     1      35.959  41.598  65.107  1.00  0.00     0.011 A 
ENDROOT
BRANCH   1  11
HETATM   11  C   UNL     1      39.049  41.997  64.798  1.00  0.00     0.004 A 
HETATM   12  C   UNL     1      39.606  42.318  66.040  1.00  0.00     0.017 A 
HETATM   13  C   UNL     1      39.413  43.518  66.911  1.00  0.00     0.069 C 
HETATM   14  N   UNL     1      40.398  41.256  66.431  1.00  0.00    -0.354 N 
HETATM   15  C   UNL     1      41.075  41.139  67.708  1.00  0.00     0.156 C 
HETATM   16  C   UNL     1      40.446  40.294  65.444  1.00  0.00     0.045 A 
HETATM   17  C   UNL     1      39.612  40.727  64.414  1.00  0.00     0.001 A 
HETATM   18  C   UNL     1      41.140  39.073  65.379  1.00  0.00     0.030 A 
HETATM   19  C   UNL     1      39.460  39.896  63.279  1.00  0.00     0.014 A 
HETATM   20  C   UNL     1      40.141  38.676  63.208  1.00  0.00     0.001 A 
HETATM   21  C   UNL     1      40.971  38.272  64.246  1.00  0.00     0.002 A 
ENDBRANCH   1  11
BRANCH   2  22
HETATM   22  C   UNL     1      39.369  44.726  63.084  1.00  0.00     0.229 C 
BRANCH  22  23
HETATM   23  C   UNL     1      40.463  45.446  63.887  1.00  0.00     0.235 C 
HETATM   24  N   UNL     1      40.204  46.756  64.207  1.00  0.00    -0.357 N 
HETATM   25  H   UNL     1      39.353  47.177  63.863  1.00  0.00     0.162 HD
HETATM   26  O   UNL     1      41.463  44.851  64.288  1.00  0.00    -0.272 OA
BRANCH  24  27
HETATM   27  C   UNL     1      40.995  47.531  65.144  1.00  0.00     0.154 C 
BRANCH  27  28
HETATM   28  C   UNL     1      40.216  48.641  65.852  1.00  0.00     0.139 C 
HETATM   29  O   UNL     1      39.177  48.101  66.699  1.00  0.00    -0.384 OA
HETATM   30  C   UNL     1      38.037  48.969  66.606  1.00  0.00     0.168 C 
HETATM   31  C   UNL     1      38.485  50.211  65.863  1.00  0.00     0.029 C 
HETATM   32  C   UNL     1      39.542  49.653  64.943  1.00  0.00     0.035 C 
ENDBRANCH  27  28
ENDBRANCH  24  27
ENDBRANCH  22  23
ENDBRANCH   2  22
TORSDOF 5
ENDMDL
MODEL 3
REMARK VINA RESULT:      -8.3      8.386     11.778
REMARK  5 active torsions:
REMARK  status: ('A' for Active; 'I' for Inactive)
REMARK    1  A    between atoms: C_7  and  C_8 
REMARK    2  A    between atoms: N_9  and  C_10 
REMARK    3  A    between atoms: C_10  and  C_11 
REMARK       I    between atoms: C_11  and  N_12 
REMARK    4  A    between atoms: N_12  and  C_13 
REMARK    5  A    between atoms: C_13  and  C_14 
ROOT
HETATM    1  C   UNL     1      18.873  49.797  48.635  1.00  0.00     0.158 A 
HETATM    2  N   UNL     1      20.214  49.708  48.084  1.00  0.00    -0.326 N 
HETATM    3  C   UNL     1      20.499  48.456  47.575  1.00  0.00     0.255 A 
HETATM    4  O   UNL     1      21.538  48.070  47.075  1.00  0.00    -0.267 OA
HETATM    5  C   UNL     1      19.321  47.618  47.816  1.00  0.00     0.040 A 
HETATM    6  C   UNL     1      18.356  48.397  48.456  1.00  0.00    -0.015 A 
HETATM    7  C   UNL     1      19.140  46.278  47.531  1.00  0.00     0.017 A 
HETATM    8  C   UNL     1      17.926  45.703  47.907  1.00  0.00     0.001 A 
HETATM    9  C   UNL     1      16.940  46.470  48.555  1.00  0.00     0.001 A 
HETATM   10  C   UNL     1      17.152  47.825  48.838  1.00  0.00     0.011 A 
ENDROOT
BRANCH   1  11
HETATM   11  C   UNL     1      17.950  50.683  47.840  1.00  0.00     0.004 A 
HETATM   12  C   UNL     1      17.811  50.836  46.457  1.00  0.00     0.017 A 
HETATM   13  C   UNL     1      18.569  50.212  45.328  1.00  0.00     0.069 C 
HETATM   14  N   UNL     1      16.741  51.680  46.233  1.00  0.00    -0.354 N 
HETATM   15  C   UNL     1      16.193  52.018  44.933  1.00  0.00     0.156 C 
HETATM   16  C   UNL     1      16.236  52.153  47.427  1.00  0.00     0.045 A 
HETATM   17  C   UNL     1      16.968  51.546  48.447  1.00  0.00     0.001 A 
HETATM   18  C   UNL     1      15.186  53.050  47.694  1.00  0.00     0.030 A 
HETATM   19  C   UNL     1      16.626  51.842  49.787  1.00  0.00     0.014 A 
HETATM   20  C   UNL     1      15.579  52.728  50.062  1.00  0.00     0.001 A 
HETATM   21  C   UNL     1      14.870  53.324  49.027  1.00  0.00     0.002 A 
ENDBRANCH   1  11
BRANCH   2  22
HETATM   22  C   UNL     1      21.171  50.804  48.149  1.00  0.00     0.229 C 
BRANCH  22  23
HETATM   23  C   UNL     1      22.453  50.519  48.947  1.00  0.00     0.235 C 
HETATM   24  N   UNL     1      23.468  49.915  48.247  1.00  0.00    -0.357 N 
HETATM   25  H   UNL     1      23.303  49.654  47.285  1.00  0.00     0.162 HD
HETATM   26  O   UNL     1      22.581  50.892  50.112  1.00  0.00    -0.272 OA
BRANCH  24  27
HETATM   27  C   UNL     1      24.823  49.773  48.748  1.00  0.00     0.154 C 
BRANCH  27  28
HETATM   28  C   UNL     1      25.175  48.357  49.208  1.00  0.00     0.139 C 
HETATM   29  O   UNL     1      24.293  47.909  50.262  1.00  0.00    -0.384 OA
HETATM   30  C   UNL     1      25.074  47.145  51.194  1.00  0.00     0.168 C 
HETATM   31  C   UNL     1      26.430  46.919  50.557  1.00  0.00     0.029 C 
HETATM   32  C   UNL     1      26.590  48.168  49.726  1.00  0.00     0.035 C 
ENDBRANCH  27  28
ENDBRANCH  24  27
ENDBRANCH  22  23
ENDBRANCH   2  22
TORSDOF 5
ENDMDL
MODEL 4
REMARK VINA RESULT:      -8.2     12.640     14.275
REMARK  5 active torsions:
REMARK  status: ('A' for Active; 'I' for Inactive)
REMARK    1  A    between atoms: C_7  and  C_8 
REMARK    2  A    between atoms: N_9  and  C_10 
REMARK    3  A    between atoms: C_10  and  C_11 
REMARK       I    between atoms: C_11  and  N_12 
REMARK    4  A    between atoms: N_12  and  C_13 
REMARK    5  A    between atoms: C_13  and  C_14 
ROOT
HETATM    1  C   UNL     1      30.258  49.696  39.884  1.00  0.00     0.158 A 
HETATM    2  N   UNL     1      30.860  49.980  41.175  1.00  0.00    -0.326 N 
HETATM    3  C   UNL     1      30.714  51.301  41.553  1.00  0.00     0.255 A 
HETATM    4  O   UNL     1      31.129  51.842  42.559  1.00  0.00    -0.267 OA
HETATM    5  C   UNL     1      30.014  51.984  40.461  1.00  0.00     0.040 A 
HETATM    6  C   UNL     1      29.750  51.047  39.460  1.00  0.00    -0.015 A 
HETATM    7  C   UNL     1      29.679  53.319  40.348  1.00  0.00     0.017 A 
HETATM    8  C   UNL     1      29.047  53.724  39.173  1.00  0.00     0.001 A 
HETATM    9  C   UNL     1      28.774  52.796  38.150  1.00  0.00     0.001 A 
HETATM   10  C   UNL     1      29.129  51.448  38.287  1.00  0.00     0.011 A 
ENDROOT
BRANCH   1  11
HETATM   11  C   UNL     1      29.044  48.807  39.965  1.00  0.00     0.004 A 
HETATM   12  C   UNL     1      27.840  48.979  40.654  1.00  0.00     0.017 A 
HETATM   13  C   UNL     1      27.392  50.072  41.572  1.00  0.00     0.069 C 
HETATM   14  N   UNL     1      27.004  47.936  40.306  1.00  0.00    -0.354 N 
HETATM   15  C   UNL     1      25.621  47.793  40.718  1.00  0.00     0.156 C 
HETATM   16  C   UNL     1      27.658  47.042  39.484  1.00  0.00     0.045 A 
HETATM   17  C   UNL     1      28.932  47.560  39.251  1.00  0.00     0.001 A 
HETATM   18  C   UNL     1      27.229  45.831  38.912  1.00  0.00     0.030 A 
HETATM   19  C   UNL     1      29.805  46.840  38.403  1.00  0.00     0.014 A 
HETATM   20  C   UNL     1      29.385  45.638  37.824  1.00  0.00     0.001 A 
HETATM   21  C   UNL     1      28.113  45.141  38.078  1.00  0.00     0.002 A 
ENDBRANCH   1  11
BRANCH   2  22
HETATM   22  C   UNL     1      31.609  48.989  41.935  1.00  0.00     0.229 C 
BRANCH  22  23
HETATM   23  C   UNL     1      33.115  48.926  41.640  1.00  0.00     0.235 C 
HETATM   24  N   UNL     1      33.830  50.057  41.945  1.00  0.00    -0.357 N 
HETATM   25  H   UNL     1      33.331  50.864  42.292  1.00  0.00     0.162 HD
HETATM   26  O   UNL     1      33.649  47.892  41.238  1.00  0.00    -0.272 OA
BRANCH  24  27
HETATM   27  C   UNL     1      35.280  50.119  41.958  1.00  0.00     0.154 C 
BRANCH  27  28
HETATM   28  C   UNL     1      35.864  51.283  41.156  1.00  0.00     0.139 C 
HETATM   29  O   UNL     1      34.864  52.289  40.879  1.00  0.00    -0.384 OA
HETATM   30  C   UNL     1      35.100  52.792  39.554  1.00  0.00     0.168 C 
HETATM   31  C   UNL     1      36.438  52.242  39.103  1.00  0.00     0.029 C 
HETATM   32  C   UNL     1      36.480  50.914  39.817  1.00  0.00     0.035 C 
ENDBRANCH  27  28
ENDBRANCH  24  27
ENDBRANCH  22  23
ENDBRANCH   2  22
TORSDOF 5
ENDMDL
MODEL 5
REMARK VINA RESULT:      -8.2     12.306     15.570
REMARK  5 active torsions:
REMARK  status: ('A' for Active; 'I' for Inactive)
REMARK    1  A    between atoms: C_7  and  C_8 
REMARK    2  A    between atoms: N_9  and  C_10 
REMARK    3  A    between atoms: C_10  and  C_11 
REMARK       I    between atoms: C_11  and  N_12 
REMARK    4  A    between atoms: N_12  and  C_13 
REMARK    5  A    between atoms: C_13  and  C_14 
ROOT
HETATM    1  C   UNL     1      30.527  50.714  41.021  1.00  0.00     0.158 A 
HETATM    2  N   UNL     1      30.243  49.563  40.182  1.00  0.00    -0.326 N 
HETATM    3  C   UNL     1      29.622  49.907  38.997  1.00  0.00     0.255 A 
HETATM    4  O   UNL     1      29.241  49.168  38.110  1.00  0.00    -0.267 OA
HETATM    5  C   UNL     1      29.426  51.359  39.022  1.00  0.00     0.040 A 
HETATM    6  C   UNL     1      29.945  51.848  40.222  1.00  0.00    -0.015 A 
HETATM    7  C   UNL     1      28.807  52.165  38.086  1.00  0.00     0.017 A 
HETATM    8  C   UNL     1      28.713  53.526  38.376  1.00  0.00     0.001 A 
HETATM    9  C   UNL     1      29.229  54.040  39.581  1.00  0.00     0.001 A 
HETATM   10  C   UNL     1      29.846  53.199  40.516  1.00  0.00     0.011 A 
ENDROOT
BRANCH   1  11
HETATM   11  C   UNL     1      31.997  51.017  41.155  1.00  0.00     0.004 A 
HETATM   12  C   UNL     1      33.001  51.077  40.184  1.00  0.00     0.017 A 
HETATM   13  C   UNL     1      32.949  50.809  38.713  1.00  0.00     0.069 C 
HETATM   14  N   UNL     1      34.157  51.512  40.802  1.00  0.00    -0.354 N 
HETATM   15  C   UNL     1      35.408  51.811  40.131  1.00  0.00     0.156 C 
HETATM   16  C   UNL     1      33.961  51.650  42.160  1.00  0.00     0.045 A 
HETATM   17  C   UNL     1      32.622  51.350  42.410  1.00  0.00     0.001 A 
HETATM   18  C   UNL     1      34.844  52.029  43.186  1.00  0.00     0.030 A 
HETATM   19  C   UNL     1      32.149  51.446  43.739  1.00  0.00     0.014 A 
HETATM   20  C   UNL     1      33.019  51.829  44.766  1.00  0.00     0.001 A 
HETATM   21  C   UNL     1      34.350  52.116  44.490  1.00  0.00     0.002 A 
ENDBRANCH   1  11
BRANCH   2  22
HETATM   22  C   UNL     1      30.510  48.194  40.600  1.00  0.00     0.229 C 
BRANCH  22  23
HETATM   23  C   UNL     1      29.331  47.217  40.466  1.00  0.00     0.235 C 
HETATM   24  N   UNL     1      28.109  47.699  40.864  1.00  0.00    -0.357 N 
HETATM   25  H   UNL     1      28.062  48.628  41.259  1.00  0.00     0.162 HD
HETATM   26  O   UNL     1      29.471  46.108  39.951  1.00  0.00    -0.272 OA
BRANCH  24  27
HETATM   27  C   UNL     1      26.850  47.025  40.605  1.00  0.00     0.154 C 
BRANCH  27  28
HETATM   28  C   UNL     1      25.931  47.767  39.633  1.00  0.00     0.139 C 
HETATM   29  O   UNL     1      26.133  47.324  38.272  1.00  0.00    -0.384 OA
HETATM   30  C   UNL     1      26.022  48.472  37.415  1.00  0.00     0.168 C 
HETATM   31  C   UNL     1      25.496  49.610  38.264  1.00  0.00     0.029 C 
HETATM   32  C   UNL     1      26.076  49.279  39.616  1.00  0.00     0.035 C 
ENDBRANCH  27  28
ENDBRANCH  24  27
ENDBRANCH  22  23
ENDBRANCH   2  22
TORSDOF 5
ENDMDL
MODEL 6
REMARK VINA RESULT:      -8.1     13.722     16.318
REMARK  5 active torsions:
REMARK  status: ('A' for Active; 'I' for Inactive)
REMARK    1  A    between atoms: C_7  and  C_8 
REMARK    2  A    between atoms: N_9  and  C_10 
REMARK    3  A    between atoms: C_10  and  C_11 
REMARK       I    between atoms: C_11  and  N_12 
REMARK    4  A    between atoms: N_12  and  C_13 
REMARK    5  A    between atoms: C_13  and  C_14 
ROOT
HETATM    1  C   UNL     1      32.471  51.925  40.738  1.00  0.00     0.158 A 
HETATM    2  N   UNL     1      33.868  51.538  40.658  1.00  0.00    -0.326 N 
HETATM    3  C   UNL     1      34.446  51.367  41.901  1.00  0.00     0.255 A 
HETATM    4  O   UNL     1      35.597  51.071  42.158  1.00  0.00    -0.267 OA
HETATM    5  C   UNL     1      33.421  51.689  42.898  1.00  0.00     0.040 A 
HETATM    6  C   UNL     1      32.249  52.035  42.222  1.00  0.00    -0.015 A 
HETATM    7  C   UNL     1      33.529  51.713  44.275  1.00  0.00     0.017 A 
HETATM    8  C   UNL     1      32.402  52.100  44.999  1.00  0.00     0.001 A 
HETATM    9  C   UNL     1      31.212  52.455  44.337  1.00  0.00     0.001 A 
HETATM   10  C   UNL     1      31.130  52.428  42.939  1.00  0.00     0.011 A 
ENDROOT
BRANCH   1  11
HETATM   11  C   UNL     1      31.519  50.861  40.257  1.00  0.00     0.004 A 
HETATM   12  C   UNL     1      31.567  49.471  40.402  1.00  0.00     0.017 A 
HETATM   13  C   UNL     1      32.601  48.594  41.033  1.00  0.00     0.069 C 
HETATM   14  N   UNL     1      30.394  48.955  39.887  1.00  0.00    -0.354 N 
HETATM   15  C   UNL     1      29.996  47.561  39.935  1.00  0.00     0.156 C 
HETATM   16  C   UNL     1      29.625  49.956  39.329  1.00  0.00     0.045 A 
HETATM   17  C   UNL     1      30.300  51.156  39.547  1.00  0.00     0.001 A 
HETATM   18  C   UNL     1      28.386  49.906  38.667  1.00  0.00     0.030 A 
HETATM   19  C   UNL     1      29.703  52.355  39.093  1.00  0.00     0.014 A 
HETATM   20  C   UNL     1      28.466  52.316  38.439  1.00  0.00     0.001 A 
HETATM   21  C   UNL     1      27.819  51.106  38.229  1.00  0.00     0.002 A 
ENDBRANCH   1  11
BRANCH   2  22
HETATM   22  C   UNL     1      34.590  51.430  39.398  1.00  0.00     0.229 C 
BRANCH  22  23
HETATM   23  C   UNL     1      35.729  52.441  39.197  1.00  0.00     0.235 C 
HETATM   24  N   UNL     1      35.785  53.465  40.110  1.00  0.00    -0.357 N 
HETATM   25  H   UNL     1      35.064  53.523  40.814  1.00  0.00     0.162 HD
HETATM   26  O   UNL     1      36.582  52.283  38.324  1.00  0.00    -0.272 OA
BRANCH  24  27
HETATM   27  C   UNL     1      36.905  54.380  40.231  1.00  0.00     0.154 C 
BRANCH  27  28
HETATM   28  C   UNL     1      36.580  55.823  39.840  1.00  0.00     0.139 C 
HETATM   29  O   UNL     1      35.280  56.223  40.329  1.00  0.00    -0.384 OA
HETATM   30  C   UNL     1      34.670  57.052  39.328  1.00  0.00     0.168 C 
HETATM   31  C   UNL     1      35.736  57.362  38.298  1.00  0.00     0.029 C 
HETATM   32  C   UNL     1      36.585  56.116  38.350  1.00  0.00     0.035 C 
ENDBRANCH  27  28
ENDBRANCH  24  27
ENDBRANCH  22  23
ENDBRANCH   2  22
TORSDOF 5
ENDMDL
MODEL 7
REMARK VINA RESULT:      -8.0     16.242     18.479
REMARK  5 active torsions:
REMARK  status: ('A' for Active; 'I' for Inactive)
REMARK    1  A    between atoms: C_7  and  C_8 
REMARK    2  A    between atoms: N_9  and  C_10 
REMARK    3  A    between atoms: C_10  and  C_11 
REMARK       I    between atoms: C_11  and  N_12 
REMARK    4  A    between atoms: N_12  and  C_13 
REMARK    5  A    between atoms: C_13  and  C_14 
ROOT
HETATM    1  C   UNL     1      37.091  44.835  64.664  1.00  0.00     0.158 A 
HETATM    2  N   UNL     1      36.225  43.927  65.394  1.00  0.00    -0.326 N 
HETATM    3  C   UNL     1      36.526  42.599  65.161  1.00  0.00     0.255 A 
HETATM    4  O   UNL     1      35.967  41.615  65.604  1.00  0.00    -0.267 OA
HETATM    5  C   UNL     1      37.626  42.574  64.193  1.00  0.00     0.040 A 
HETATM    6  C   UNL     1      37.961  43.893  63.880  1.00  0.00    -0.015 A 
HETATM    7  C   UNL     1      38.244  41.483  63.612  1.00  0.00     0.017 A 
HETATM    8  C   UNL     1      39.247  41.738  62.678  1.00  0.00     0.001 A 
HETATM    9  C   UNL     1      39.599  43.060  62.346  1.00  0.00     0.001 A 
HETATM   10  C   UNL     1      38.952  44.148  62.945  1.00  0.00     0.011 A 
ENDROOT
BRANCH   1  11
HETATM   11  C   UNL     1      38.026  45.621  65.547  1.00  0.00     0.004 A 
HETATM   12  C   UNL     1      38.932  45.185  66.520  1.00  0.00     0.017 A 
HETATM   13  C   UNL     1      39.224  43.811  67.032  1.00  0.00     0.069 C 
HETATM   14  N   UNL     1      39.638  46.289  66.959  1.00  0.00    -0.354 N 
HETATM   15  C   UNL     1      40.748  46.260  67.892  1.00  0.00     0.156 C 
HETATM   16  C   UNL     1      39.158  47.440  66.370  1.00  0.00     0.045 A 
HETATM   17  C   UNL     1      38.154  47.054  65.483  1.00  0.00     0.001 A 
HETATM   18  C   UNL     1      39.536  48.784  66.531  1.00  0.00     0.030 A 
HETATM   19  C   UNL     1      37.512  48.057  64.719  1.00  0.00     0.014 A 
HETATM   20  C   UNL     1      37.885  49.397  64.868  1.00  0.00     0.001 A 
HETATM   21  C   UNL     1      38.884  49.754  65.764  1.00  0.00     0.002 A 
ENDBRANCH   1  11
BRANCH   2  22
HETATM   22  C   UNL     1      35.108  44.382  66.211  1.00  0.00     0.229 C 
BRANCH  22  23
HETATM   23  C   UNL     1      35.470  44.846  67.631  1.00  0.00     0.235 C 
HETATM   24  N   UNL     1      35.081  46.121  67.958  1.00  0.00    -0.357 N 
HETATM   25  H   UNL     1      34.635  46.686  67.251  1.00  0.00     0.162 HD
HETATM   26  O   UNL     1      35.996  44.084  68.441  1.00  0.00    -0.272 OA
BRANCH  24  27
HETATM   27  C   UNL     1      35.123  46.658  69.306  1.00  0.00     0.154 C 
BRANCH  27  28
HETATM   28  C   UNL     1      35.973  47.921  69.451  1.00  0.00     0.139 C 
HETATM   29  O   UNL     1      35.413  48.826  70.429  1.00  0.00    -0.384 OA
HETATM   30  C   UNL     1      35.603  50.166  69.950  1.00  0.00     0.168 C 
HETATM   31  C   UNL     1      36.526  50.082  68.751  1.00  0.00     0.029 C 
HETATM   32  C   UNL     1      36.165  48.732  68.182  1.00  0.00     0.035 C 
ENDBRANCH  27  28
ENDBRANCH  24  27
ENDBRANCH  22  23
ENDBRANCH   2  22
TORSDOF 5
ENDMDL
MODEL 8
REMARK VINA RESULT:      -7.9     15.715     18.976
REMARK  5 active torsions:
REMARK  status: ('A' for Active; 'I' for Inactive)
REMARK    1  A    between atoms: C_7  and  C_8 
REMARK    2  A    between atoms: N_9  and  C_10 
REMARK    3  A    between atoms: C_10  and  C_11 
REMARK       I    between atoms: C_11  and  N_12 
REMARK    4  A    between atoms: N_12  and  C_13 
REMARK    5  A    between atoms: C_13  and  C_14 
ROOT
HETATM    1  C   UNL     1      39.984  43.314  63.864  1.00  0.00     0.158 A 
HETATM    2  N   UNL     1      38.565  43.405  63.568  1.00  0.00    -0.326 N 
HETATM    3  C   UNL     1      37.864  42.284  63.967  1.00  0.00     0.255 A 
HETATM    4  O   UNL     1      36.677  42.056  63.834  1.00  0.00    -0.267 OA
HETATM    5  C   UNL     1      38.840  41.347  64.531  1.00  0.00     0.040 A 
HETATM    6  C   UNL     1      40.102  41.940  64.463  1.00  0.00    -0.015 A 
HETATM    7  C   UNL     1      38.634  40.071  65.019  1.00  0.00     0.017 A 
HETATM    8  C   UNL     1      39.753  39.367  65.462  1.00  0.00     0.001 A 
HETATM    9  C   UNL     1      41.035  39.945  65.401  1.00  0.00     0.001 A 
HETATM   10  C   UNL     1      41.217  41.238  64.895  1.00  0.00     0.011 A 
ENDROOT
BRANCH   1  11
HETATM   11  C   UNL     1      40.442  44.271  64.934  1.00  0.00     0.004 A 
HETATM   12  C   UNL     1      39.879  44.575  66.177  1.00  0.00     0.017 A 
HETATM   13  C   UNL     1      38.618  44.090  66.819  1.00  0.00     0.069 C 
HETATM   14  N   UNL     1      40.747  45.426  66.834  1.00  0.00    -0.354 N 
HETATM   15  C   UNL     1      40.591  45.898  68.196  1.00  0.00     0.156 C 
HETATM   16  C   UNL     1      41.812  45.756  66.022  1.00  0.00     0.045 A 
HETATM   17  C   UNL     1      41.650  45.049  64.831  1.00  0.00     0.001 A 
HETATM   18  C   UNL     1      42.911  46.604  66.243  1.00  0.00     0.030 A 
HETATM   19  C   UNL     1      42.636  45.190  63.828  1.00  0.00     0.014 A 
HETATM   20  C   UNL     1      43.737  46.027  64.041  1.00  0.00     0.001 A 
HETATM   21  C   UNL     1      43.870  46.725  65.234  1.00  0.00     0.002 A 
ENDBRANCH   1  11
BRANCH   2  22
HETATM   22  C   UNL     1      37.976  44.527  62.850  1.00  0.00     0.229 C 
BRANCH  22  23
HETATM   23  C   UNL     1      37.202  45.535  63.714  1.00  0.00     0.235 C 
HETATM   24  N   UNL     1      37.850  46.717  63.975  1.00  0.00    -0.357 N 
HETATM   25  H   UNL     1      38.794  46.835  63.636  1.00  0.00     0.162 HD
HETATM   26  O   UNL     1      36.043  45.322  64.068  1.00  0.00    -0.272 OA
BRANCH  24  27
HETATM   27  C   UNL     1      37.210  47.876  64.569  1.00  0.00     0.154 C 
BRANCH  27  28
HETATM   28  C   UNL     1      38.179  48.989  64.972  1.00  0.00     0.139 C 
HETATM   29  O   UNL     1      39.481  48.460  65.308  1.00  0.00    -0.384 OA
HETATM   30  C   UNL     1      39.992  49.219  66.416  1.00  0.00     0.168 C 
HETATM   31  C   UNL     1      39.070  50.406  66.603  1.00  0.00     0.029 C 
HETATM   32  C   UNL     1      37.746  49.840  66.153  1.00  0.00     0.035 C 
ENDBRANCH  27  28
ENDBRANCH  24  27
ENDBRANCH  22  23
ENDBRANCH   2  22
TORSDOF 5
ENDMDL
MODEL 9
REMARK VINA RESULT:      -7.9     10.685     14.145
REMARK  5 active torsions:
REMARK  status: ('A' for Active; 'I' for Inactive)
REMARK    1  A    between atoms: C_7  and  C_8 
REMARK    2  A    between atoms: N_9  and  C_10 
REMARK    3  A    between atoms: C_10  and  C_11 
REMARK       I    between atoms: C_11  and  N_12 
REMARK    4  A    between atoms: N_12  and  C_13 
REMARK    5  A    between atoms: C_13  and  C_14 
ROOT
HETATM    1  C   UNL     1      16.703  51.051  48.081  1.00  0.00     0.158 A 
HETATM    2  N   UNL     1      18.070  51.240  47.628  1.00  0.00    -0.326 N 
HETATM    3  C   UNL     1      18.408  50.399  46.586  1.00  0.00     0.255 A 
HETATM    4  O   UNL     1      19.477  50.305  46.015  1.00  0.00    -0.267 OA
HETATM    5  C   UNL     1      17.239  49.555  46.321  1.00  0.00     0.040 A 
HETATM    6  C   UNL     1      16.227  49.922  47.210  1.00  0.00    -0.015 A 
HETATM    7  C   UNL     1      17.101  48.529  45.406  1.00  0.00     0.017 A 
HETATM    8  C   UNL     1      15.885  47.848  45.387  1.00  0.00     0.001 A 
HETATM    9  C   UNL     1      14.852  48.200  46.276  1.00  0.00     0.001 A 
HETATM   10  C   UNL     1      15.020  49.240  47.198  1.00  0.00     0.011 A 
ENDROOT
BRANCH   1  11
HETATM   11  C   UNL     1      15.798  52.216  47.776  1.00  0.00     0.004 A 
HETATM   12  C   UNL     1      15.503  52.839  46.559  1.00  0.00     0.017 A 
HETATM   13  C   UNL     1      16.030  52.584  45.183  1.00  0.00     0.069 C 
HETATM   14  N   UNL     1      14.522  53.782  46.797  1.00  0.00    -0.354 N 
HETATM   15  C   UNL     1      13.858  54.579  45.784  1.00  0.00     0.156 C 
HETATM   16  C   UNL     1      14.235  53.856  48.144  1.00  0.00     0.045 A 
HETATM   17  C   UNL     1      15.013  52.889  48.780  1.00  0.00     0.001 A 
HETATM   18  C   UNL     1      13.343  54.680  48.853  1.00  0.00     0.030 A 
HETATM   19  C   UNL     1      14.883  52.736  50.180  1.00  0.00     0.014 A 
HETATM   20  C   UNL     1      13.994  53.547  50.893  1.00  0.00     0.001 A 
HETATM   21  C   UNL     1      13.235  54.507  50.235  1.00  0.00     0.002 A 
ENDBRANCH   1  11
BRANCH   2  22
HETATM   22  C   UNL     1      18.998  52.159  48.273  1.00  0.00     0.229 C 
BRANCH  22  23
HETATM   23  C   UNL     1      20.119  51.503  49.093  1.00  0.00     0.235 C 
HETATM   24  N   UNL     1      21.278  51.232  48.408  1.00  0.00    -0.357 N 
HETATM   25  H   UNL     1      21.310  51.428  47.418  1.00  0.00     0.162 HD
HETATM   26  O   UNL     1      20.006  51.318  50.305  1.00  0.00    -0.272 OA
BRANCH  24  27
HETATM   27  C   UNL     1      22.519  50.831  49.045  1.00  0.00     0.154 C 
BRANCH  27  28
HETATM   28  C   UNL     1      22.586  49.347  49.408  1.00  0.00     0.139 C 
HETATM   29  O   UNL     1      23.867  49.000  49.980  1.00  0.00    -0.384 OA
HETATM   30  C   UNL     1      24.226  47.695  49.497  1.00  0.00     0.168 C 
HETATM   31  C   UNL     1      23.006  47.130  48.799  1.00  0.00     0.029 C 
HETATM   32  C   UNL     1      22.355  48.380  48.260  1.00  0.00     0.035 C 
ENDBRANCH  27  28
ENDBRANCH  24  27
ENDBRANCH  22  23
ENDBRANCH   2  22
TORSDOF 5
ENDMDL
MODEL 10
REMARK VINA RESULT:      -7.8     15.739     18.441
REMARK  5 active torsions:
REMARK  status: ('A' for Active; 'I' for Inactive)
REMARK    1  A    between atoms: C_7  and  C_8 
REMARK    2  A    between atoms: N_9  and  C_10 
REMARK    3  A    between atoms: C_10  and  C_11 
REMARK       I    between atoms: C_11  and  N_12 
REMARK    4  A    between atoms: N_12  and  C_13 
REMARK    5  A    between atoms: C_13  and  C_14 
ROOT
HETATM    1  C   UNL     1      38.594  45.458  64.508  1.00  0.00     0.158 A 
HETATM    2  N   UNL     1      38.590  44.177  63.824  1.00  0.00    -0.326 N 
HETATM    3  C   UNL     1      39.861  43.730  63.521  1.00  0.00     0.255 A 
HETATM    4  O   UNL     1      40.178  42.713  62.934  1.00  0.00    -0.267 OA
HETATM    5  C   UNL     1      40.797  44.762  63.976  1.00  0.00     0.040 A 
HETATM    6  C   UNL     1      40.058  45.798  64.550  1.00  0.00    -0.015 A 
HETATM    7  C   UNL     1      42.173  44.798  63.854  1.00  0.00     0.017 A 
HETATM    8  C   UNL     1      42.829  45.929  64.338  1.00  0.00     0.001 A 
HETATM    9  C   UNL     1      42.102  46.986  64.918  1.00  0.00     0.001 A 
HETATM   10  C   UNL     1      40.708  46.927  65.024  1.00  0.00     0.011 A 
ENDROOT
BRANCH   1  11
HETATM   11  C   UNL     1      38.147  45.378  65.945  1.00  0.00     0.004 A 
HETATM   12  C   UNL     1      38.582  44.548  66.983  1.00  0.00     0.017 A 
HETATM   13  C   UNL     1      39.586  43.440  66.986  1.00  0.00     0.069 C 
HETATM   14  N   UNL     1      37.943  44.952  68.139  1.00  0.00    -0.354 N 
HETATM   15  C   UNL     1      38.190  44.421  69.466  1.00  0.00     0.156 C 
HETATM   16  C   UNL     1      37.040  45.959  67.869  1.00  0.00     0.045 A 
HETATM   17  C   UNL     1      37.147  46.248  66.509  1.00  0.00     0.001 A 
HETATM   18  C   UNL     1      36.152  46.651  68.711  1.00  0.00     0.030 A 
HETATM   19  C   UNL     1      36.339  47.279  65.976  1.00  0.00     0.014 A 
HETATM   20  C   UNL     1      35.456  47.977  66.807  1.00  0.00     0.001 A 
HETATM   21  C   UNL     1      35.365  47.665  68.157  1.00  0.00     0.002 A 
ENDBRANCH   1  11
BRANCH   2  22
HETATM   22  C   UNL     1      37.366  43.493  63.430  1.00  0.00     0.229 C 
BRANCH  22  23
HETATM   23  C   UNL     1      36.734  42.593  64.504  1.00  0.00     0.235 C 
HETATM   24  N   UNL     1      35.470  42.944  64.907  1.00  0.00    -0.357 N 
HETATM   25  H   UNL     1      35.055  43.781  64.523  1.00  0.00     0.162 HD
HETATM   26  O   UNL     1      37.299  41.575  64.903  1.00  0.00    -0.272 OA
BRANCH  24  27
HETATM   27  C   UNL     1      34.621  42.103  65.730  1.00  0.00     0.154 C 
BRANCH  27  28
HETATM   28  C   UNL     1      33.802  42.868  66.772  1.00  0.00     0.139 C 
HETATM   29  O   UNL     1      34.645  43.699  67.600  1.00  0.00    -0.384 OA
HETATM   30  C   UNL     1      34.127  43.656  68.939  1.00  0.00     0.168 C 
HETATM   31  C   UNL     1      32.781  42.965  68.872  1.00  0.00     0.029 C 
HETATM   32  C   UNL     1      32.983  42.011  67.721  1.00  0.00     0.035 C 
ENDBRANCH  27  28
ENDBRANCH  24  27
ENDBRANCH  22  23
ENDBRANCH   2  22
TORSDOF 5
ENDMDL
