MODEL 1
REMARK VINA RESULT:      -9.6      0.000      0.000
REMARK  8 active torsions:
REMARK  status: ('A' for Active; 'I' for Inactive)
REMARK    1  A    between atoms: O_2  and  C_3 
REMARK    2  A    between atoms: C_4  and  O_5 
REMARK    3  A    between atoms: C_13  and  C_14 
REMARK    4  A    between atoms: C_14  and  N_15 
REMARK    5  A    between atoms: N_15  and  C_16 
REMARK    6  A    between atoms: C_17  and  C_18 
REMARK       I    between atoms: C_18  and  N_19 
REMARK    7  A    between atoms: N_19  and  C_20 
REMARK    8  A    between atoms: C_20  and  C_21 
ROOT
HETATM    1  N   UNL     1      23.967  46.952  50.421  1.00  0.00    -0.285 NA
HETATM    2  H   UNL     1      23.684  47.376  51.311  1.00  0.00     0.128 HD
ENDROOT
BRANCH   1   3
HETATM    3  C   UNL     1      24.925  45.853  50.636  1.00  0.00     0.171 C 
BRANCH   3   4
HETATM    4  C   UNL     1      25.744  45.976  51.916  1.00  0.00     0.120 A 
HETATM    5  N   UNL     1      25.449  46.989  52.786  1.00  0.00    -0.310 N 
HETATM    6  C   UNL     1      26.118  47.176  53.971  1.00  0.00     0.259 A 
HETATM    7  H   UNL     1      24.687  47.627  52.593  1.00  0.00     0.170 HD
HETATM    8  C   UNL     1      27.185  46.208  54.265  1.00  0.00     0.064 A 
HETATM    9  O   UNL     1      25.850  48.079  54.753  1.00  0.00    -0.267 OA
HETATM   10  C   UNL     1      27.418  45.207  53.327  1.00  0.00     0.077 A 
HETATM   11  C   UNL     1      27.917  46.275  55.451  1.00  0.00     0.059 A 
HETATM   12  C   UNL     1      28.415  44.263  53.586  1.00  0.00     0.072 A 
HETATM   13  N   UNL     1      26.684  45.110  52.135  1.00  0.00    -0.233 NA
HETATM   14  C   UNL     1      29.173  44.321  54.765  1.00  0.00     0.103 A 
HETATM   15  C   UNL     1      28.893  45.313  55.719  1.00  0.00     0.102 A 
BRANCH  14  16
HETATM   16  O   UNL     1      30.163  43.411  55.035  1.00  0.00    -0.353 OA
HETATM   17  C   UNL     1      30.494  42.543  53.956  1.00  0.00     0.210 C 
ENDBRANCH  14  16
BRANCH  15  18
HETATM   18  O   UNL     1      29.545  45.498  56.911  1.00  0.00    -0.353 OA
HETATM   19  C   UNL     1      28.829  46.242  57.891  1.00  0.00     0.210 C 
ENDBRANCH  15  18
ENDBRANCH   3   4
ENDBRANCH   1   3
BRANCH   1  20
HETATM   20  C   UNL     1      24.396  48.018  49.573  1.00  0.00     0.024 A 
HETATM   21  C   UNL     1      23.458  48.818  48.871  1.00  0.00     0.053 A 
HETATM   22  C   UNL     1      23.887  49.889  48.061  1.00  0.00     0.019 A 
HETATM   23  C   UNL     1      25.240  50.172  47.912  1.00  0.00     0.001 A 
HETATM   24  C   UNL     1      26.175  49.389  48.572  1.00  0.00     0.002 A 
HETATM   25  C   UNL     1      25.759  48.329  49.387  1.00  0.00     0.024 A 
BRANCH  21  26
HETATM   26  C   UNL     1      21.984  48.589  48.887  1.00  0.00     0.253 C 
HETATM   27  N   UNL     1      21.251  49.437  49.678  1.00  0.00    -0.351 N 
HETATM   28  H   UNL     1      21.733  50.206  50.133  1.00  0.00     0.163 HD
HETATM   29  O   UNL     1      21.493  47.658  48.260  1.00  0.00    -0.268 OA
BRANCH  27  30
HETATM   30  C   UNL     1      19.827  49.293  49.848  1.00  0.00     0.187 C 
BRANCH  30  31
HETATM   31  C   UNL     1      19.175  50.586  49.540  1.00  0.00     0.070 A 
HETATM   32  O   UNL     1      18.095  50.918  50.300  1.00  0.00    -0.325 OA
HETATM   33  C   UNL     1      17.630  52.106  49.832  1.00  0.00     0.142 A 
HETATM   34  C   UNL     1      18.411  52.553  48.793  1.00  0.00     0.027 A 
HETATM   35  C   UNL     1      19.414  51.573  48.605  1.00  0.00     0.036 A 
ENDBRANCH  30  31
ENDBRANCH  27  30
ENDBRANCH  21  26
ENDBRANCH   1  20
TORSDOF 8
ENDMDL
MODEL 2
REMARK VINA RESULT:      -9.6      1.440      2.389
REMARK  8 active torsions:
REMARK  status: ('A' for Active; 'I' for Inactive)
REMARK    1  A    between atoms: O_2  and  C_3 
REMARK    2  A    between atoms: C_4  and  O_5 
REMARK    3  A    between atoms: C_13  and  C_14 
REMARK    4  A    between atoms: C_14  and  N_15 
REMARK    5  A    between atoms: N_15  and  C_16 
REMARK    6  A    between atoms: C_17  and  C_18 
REMARK       I    between atoms: C_18  and  N_19 
REMARK    7  A    between atoms: N_19  and  C_20 
REMARK    8  A    between atoms: C_20  and  C_21 
ROOT
HETATM    1  N   UNL     1      24.987  46.606  50.594  1.00  0.00    -0.285 NA
HETATM    2  H   UNL     1      24.018  46.422  50.312  1.00  0.00     0.128 HD
ENDROOT
BRANCH   1   3
HETATM    3  C   UNL     1      25.103  46.714  52.060  1.00  0.00     0.171 C 
BRANCH   3   4
HETATM    4  C   UNL     1      26.230  45.883  52.663  1.00  0.00     0.120 A 
HETATM    5  N   UNL     1      26.502  44.658  52.120  1.00  0.00    -0.310 N 
HETATM    6  C   UNL     1      27.505  43.841  52.581  1.00  0.00     0.259 A 
HETATM    7  H   UNL     1      25.980  44.323  51.319  1.00  0.00     0.170 HD
HETATM    8  C   UNL     1      28.291  44.364  53.708  1.00  0.00     0.064 A 
HETATM    9  O   UNL     1      27.753  42.747  52.091  1.00  0.00    -0.267 OA
HETATM   10  C   UNL     1      27.949  45.620  54.200  1.00  0.00     0.077 A 
HETATM   11  C   UNL     1      29.355  43.640  54.247  1.00  0.00     0.059 A 
HETATM   12  C   UNL     1      28.688  46.151  55.260  1.00  0.00     0.072 A 
HETATM   13  N   UNL     1      26.893  46.374  53.664  1.00  0.00    -0.233 NA
HETATM   14  C   UNL     1      29.752  45.434  55.826  1.00  0.00     0.103 A 
HETATM   15  C   UNL     1      30.109  44.186  55.288  1.00  0.00     0.102 A 
BRANCH  14  16
HETATM   16  O   UNL     1      30.484  45.930  56.873  1.00  0.00    -0.353 OA
HETATM   17  C   UNL     1      29.743  46.175  58.065  1.00  0.00     0.210 C 
ENDBRANCH  14  16
BRANCH  15  18
HETATM   18  O   UNL     1      31.118  43.371  55.732  1.00  0.00    -0.353 OA
HETATM   19  C   UNL     1      30.913  42.785  57.014  1.00  0.00     0.210 C 
ENDBRANCH  15  18
ENDBRANCH   3   4
ENDBRANCH   1   3
BRANCH   1  20
HETATM   20  C   UNL     1      25.432  47.729  49.832  1.00  0.00     0.024 A 
HETATM   21  C   UNL     1      24.513  48.537  49.115  1.00  0.00     0.053 A 
HETATM   22  C   UNL     1      24.956  49.663  48.391  1.00  0.00     0.019 A 
HETATM   23  C   UNL     1      26.305  49.994  48.342  1.00  0.00     0.001 A 
HETATM   24  C   UNL     1      27.223  49.204  49.018  1.00  0.00     0.002 A 
HETATM   25  C   UNL     1      26.793  48.089  49.749  1.00  0.00     0.024 A 
BRANCH  21  26
HETATM   26  C   UNL     1      23.050  48.264  49.026  1.00  0.00     0.253 C 
HETATM   27  N   UNL     1      22.224  49.236  49.532  1.00  0.00    -0.351 N 
HETATM   28  H   UNL     1      22.643  50.102  49.856  1.00  0.00     0.163 HD
HETATM   29  O   UNL     1      22.642  47.203  48.569  1.00  0.00    -0.268 OA
BRANCH  27  30
HETATM   30  C   UNL     1      20.791  49.081  49.579  1.00  0.00     0.187 C 
BRANCH  30  31
HETATM   31  C   UNL     1      20.158  50.385  49.280  1.00  0.00     0.070 A 
HETATM   32  O   UNL     1      19.075  50.721  50.034  1.00  0.00    -0.325 OA
HETATM   33  C   UNL     1      18.629  51.920  49.577  1.00  0.00     0.142 A 
HETATM   34  C   UNL     1      19.426  52.371  48.551  1.00  0.00     0.027 A 
HETATM   35  C   UNL     1      20.419  51.380  48.360  1.00  0.00     0.036 A 
ENDBRANCH  30  31
ENDBRANCH  27  30
ENDBRANCH  21  26
ENDBRANCH   1  20
TORSDOF 8
ENDMDL
MODEL 3
REMARK VINA RESULT:      -9.3      2.259     10.274
REMARK  8 active torsions:
REMARK  status: ('A' for Active; 'I' for Inactive)
REMARK    1  A    between atoms: O_2  and  C_3 
REMARK    2  A    between atoms: C_4  and  O_5 
REMARK    3  A    between atoms: C_13  and  C_14 
REMARK    4  A    between atoms: C_14  and  N_15 
REMARK    5  A    between atoms: N_15  and  C_16 
REMARK    6  A    between atoms: C_17  and  C_18 
REMARK       I    between atoms: C_18  and  N_19 
REMARK    7  A    between atoms: N_19  and  C_20 
REMARK    8  A    between atoms: C_20  and  C_21 
ROOT
HETATM    1  N   UNL     1      23.055  47.856  49.615  1.00  0.00    -0.285 NA
HETATM    2  H   UNL     1      23.285  46.938  50.012  1.00  0.00     0.128 HD
ENDROOT
BRANCH   1   3
HETATM    3  C   UNL     1      22.023  47.740  48.569  1.00  0.00     0.171 C 
BRANCH   3   4
HETATM    4  C   UNL     1      20.778  48.585  48.818  1.00  0.00     0.120 A 
HETATM    5  N   UNL     1      20.220  48.574  50.067  1.00  0.00    -0.310 N 
HETATM    6  C   UNL     1      19.110  49.312  50.396  1.00  0.00     0.259 A 
HETATM    7  H   UNL     1      20.641  48.035  50.814  1.00  0.00     0.170 HD
HETATM    8  C   UNL     1      18.542  50.134  49.317  1.00  0.00     0.064 A 
HETATM    9  O   UNL     1      18.613  49.308  51.515  1.00  0.00    -0.267 OA
HETATM   10  C   UNL     1      19.173  50.087  48.077  1.00  0.00     0.077 A 
HETATM   11  C   UNL     1      17.431  50.948  49.535  1.00  0.00     0.059 A 
HETATM   12  C   UNL     1      18.667  50.870  47.037  1.00  0.00     0.072 A 
HETATM   13  N   UNL     1      20.301  49.287  47.838  1.00  0.00    -0.233 NA
HETATM   14  C   UNL     1      17.541  51.685  47.229  1.00  0.00     0.103 A 
HETATM   15  C   UNL     1      16.946  51.751  48.500  1.00  0.00     0.102 A 
BRANCH  14  16
HETATM   16  O   UNL     1      17.022  52.453  46.220  1.00  0.00    -0.353 OA
HETATM   17  C   UNL     1      17.358  52.026  44.903  1.00  0.00     0.210 C 
ENDBRANCH  14  16
BRANCH  15  18
HETATM   18  O   UNL     1      15.846  52.495  48.841  1.00  0.00    -0.353 OA
HETATM   19  C   UNL     1      16.003  53.331  49.983  1.00  0.00     0.210 C 
ENDBRANCH  15  18
ENDBRANCH   3   4
ENDBRANCH   1   3
BRANCH   1  20
HETATM   20  C   UNL     1      24.290  48.461  49.231  1.00  0.00     0.024 A 
HETATM   21  C   UNL     1      25.532  47.927  49.662  1.00  0.00     0.053 A 
HETATM   22  C   UNL     1      26.748  48.510  49.253  1.00  0.00     0.019 A 
HETATM   23  C   UNL     1      26.760  49.636  48.437  1.00  0.00     0.001 A 
HETATM   24  C   UNL     1      25.558  50.187  48.022  1.00  0.00     0.002 A 
HETATM   25  C   UNL     1      24.343  49.609  48.414  1.00  0.00     0.024 A 
BRANCH  21  26
HETATM   26  C   UNL     1      25.667  46.765  50.588  1.00  0.00     0.253 C 
HETATM   27  N   UNL     1      25.336  46.998  51.899  1.00  0.00    -0.351 N 
HETATM   28  H   UNL     1      24.948  47.903  52.143  1.00  0.00     0.163 HD
HETATM   29  O   UNL     1      26.100  45.693  50.181  1.00  0.00    -0.268 OA
BRANCH  27  30
HETATM   30  C   UNL     1      25.482  45.990  52.920  1.00  0.00     0.187 C 
BRANCH  30  31
HETATM   31  C   UNL     1      26.268  46.555  54.040  1.00  0.00     0.070 A 
HETATM   32  O   UNL     1      25.785  47.695  54.606  1.00  0.00    -0.325 OA
HETATM   33  C   UNL     1      26.665  48.062  55.574  1.00  0.00     0.142 A 
HETATM   34  C   UNL     1      27.699  47.159  55.652  1.00  0.00     0.027 A 
HETATM   35  C   UNL     1      27.442  46.181  54.662  1.00  0.00     0.036 A 
ENDBRANCH  30  31
ENDBRANCH  27  30
ENDBRANCH  21  26
ENDBRANCH   1  20
TORSDOF 8
ENDMDL
MODEL 4
REMARK VINA RESULT:      -9.2      3.636      5.235
REMARK  8 active torsions:
REMARK  status: ('A' for Active; 'I' for Inactive)
REMARK    1  A    between atoms: O_2  and  C_3 
REMARK    2  A    between atoms: C_4  and  O_5 
REMARK    3  A    between atoms: C_13  and  C_14 
REMARK    4  A    between atoms: C_14  and  N_15 
REMARK    5  A    between atoms: N_15  and  C_16 
REMARK    6  A    between atoms: C_17  and  C_18 
REMARK       I    between atoms: C_18  and  N_19 
REMARK    7  A    between atoms: N_19  and  C_20 
REMARK    8  A    between atoms: C_20  and  C_21 
ROOT
HETATM    1  N   UNL     1      26.676  42.970  49.766  1.00  0.00    -0.285 NA
HETATM    2  H   UNL     1      27.321  42.888  48.972  1.00  0.00     0.128 HD
ENDROOT
BRANCH   1   3
HETATM    3  C   UNL     1      27.201  42.271  50.953  1.00  0.00     0.171 C 
BRANCH   3   4
HETATM    4  C   UNL     1      27.615  43.193  52.094  1.00  0.00     0.120 A 
HETATM    5  N   UNL     1      26.835  44.282  52.370  1.00  0.00    -0.310 N 
HETATM    6  C   UNL     1      27.114  45.164  53.385  1.00  0.00     0.259 A 
HETATM    7  H   UNL     1      25.988  44.456  51.842  1.00  0.00     0.170 HD
HETATM    8  C   UNL     1      28.315  44.869  54.179  1.00  0.00     0.064 A 
HETATM    9  O   UNL     1      26.413  46.135  53.637  1.00  0.00    -0.267 OA
HETATM   10  C   UNL     1      29.051  43.740  53.832  1.00  0.00     0.077 A 
HETATM   11  C   UNL     1      28.688  45.674  55.255  1.00  0.00     0.059 A 
HETATM   12  C   UNL     1      30.189  43.424  54.579  1.00  0.00     0.072 A 
HETATM   13  N   UNL     1      28.687  42.905  52.764  1.00  0.00    -0.233 NA
HETATM   14  C   UNL     1      30.590  44.228  55.656  1.00  0.00     0.103 A 
HETATM   15  C   UNL     1      29.810  45.339  56.017  1.00  0.00     0.102 A 
BRANCH  14  16
HETATM   16  O   UNL     1      31.709  43.943  56.395  1.00  0.00    -0.353 OA
HETATM   17  C   UNL     1      31.565  42.864  57.314  1.00  0.00     0.210 C 
ENDBRANCH  14  16
BRANCH  15  18
HETATM   18  O   UNL     1      30.073  46.216  57.038  1.00  0.00    -0.353 OA
HETATM   19  C   UNL     1      29.343  45.992  58.240  1.00  0.00     0.210 C 
ENDBRANCH  15  18
ENDBRANCH   3   4
ENDBRANCH   1   3
BRANCH   1  20
HETATM   20  C   UNL     1      25.390  42.562  49.298  1.00  0.00     0.024 A 
HETATM   21  C   UNL     1      24.226  43.312  49.606  1.00  0.00     0.053 A 
HETATM   22  C   UNL     1      22.965  42.921  49.114  1.00  0.00     0.019 A 
HETATM   23  C   UNL     1      22.827  41.777  48.336  1.00  0.00     0.001 A 
HETATM   24  C   UNL     1      23.949  41.016  48.042  1.00  0.00     0.002 A 
HETATM   25  C   UNL     1      25.208  41.402  48.517  1.00  0.00     0.024 A 
BRANCH  21  26
HETATM   26  C   UNL     1      24.217  44.521  50.480  1.00  0.00     0.253 C 
HETATM   27  N   UNL     1      24.563  45.704  49.876  1.00  0.00    -0.351 N 
HETATM   28  H   UNL     1      24.722  45.702  48.874  1.00  0.00     0.163 HD
HETATM   29  O   UNL     1      23.959  44.423  51.674  1.00  0.00    -0.268 OA
BRANCH  27  30
HETATM   30  C   UNL     1      24.665  46.941  50.609  1.00  0.00     0.187 C 
BRANCH  30  31
HETATM   31  C   UNL     1      25.563  47.860  49.875  1.00  0.00     0.070 A 
HETATM   32  O   UNL     1      24.980  48.944  49.293  1.00  0.00    -0.325 OA
HETATM   33  C   UNL     1      25.961  49.624  48.646  1.00  0.00     0.142 A 
HETATM   34  C   UNL     1      27.174  49.002  48.822  1.00  0.00     0.027 A 
HETATM   35  C   UNL     1      26.920  47.862  49.620  1.00  0.00     0.036 A 
ENDBRANCH  30  31
ENDBRANCH  27  30
ENDBRANCH  21  26
ENDBRANCH   1  20
TORSDOF 8
ENDMDL
MODEL 5
REMARK VINA RESULT:      -9.2      2.977      9.675
REMARK  8 active torsions:
REMARK  status: ('A' for Active; 'I' for Inactive)
REMARK    1  A    between atoms: O_2  and  C_3 
REMARK    2  A    between atoms: C_4  and  O_5 
REMARK    3  A    between atoms: C_13  and  C_14 
REMARK    4  A    between atoms: C_14  and  N_15 
REMARK    5  A    between atoms: N_15  and  C_16 
REMARK    6  A    between atoms: C_17  and  C_18 
REMARK       I    between atoms: C_18  and  N_19 
REMARK    7  A    between atoms: N_19  and  C_20 
REMARK    8  A    between atoms: C_20  and  C_21 
ROOT
HETATM    1  N   UNL     1      27.369  44.939  53.888  1.00  0.00    -0.285 NA
HETATM    2  H   UNL     1      27.752  44.466  53.062  1.00  0.00     0.128 HD
ENDROOT
BRANCH   1   3
HETATM    3  C   UNL     1      26.740  46.221  53.524  1.00  0.00     0.171 C 
BRANCH   3   4
HETATM    4  C   UNL     1      25.797  46.141  52.329  1.00  0.00     0.120 A 
HETATM    5  N   UNL     1      25.125  44.971  52.105  1.00  0.00    -0.310 N 
HETATM    6  C   UNL     1      24.242  44.803  51.066  1.00  0.00     0.259 A 
HETATM    7  H   UNL     1      25.234  44.186  52.735  1.00  0.00     0.170 HD
HETATM    8  C   UNL     1      24.050  45.970  50.192  1.00  0.00     0.064 A 
HETATM    9  O   UNL     1      23.635  43.759  50.869  1.00  0.00    -0.267 OA
HETATM   10  C   UNL     1      24.772  47.120  50.492  1.00  0.00     0.077 A 
HETATM   11  C   UNL     1      23.159  45.932  49.120  1.00  0.00     0.059 A 
HETATM   12  C   UNL     1      24.599  48.251  49.689  1.00  0.00     0.072 A 
HETATM   13  N   UNL     1      25.663  47.187  51.575  1.00  0.00    -0.233 NA
HETATM   14  C   UNL     1      23.719  48.231  48.597  1.00  0.00     0.103 A 
HETATM   15  C   UNL     1      22.967  47.073  48.337  1.00  0.00     0.102 A 
BRANCH  14  16
HETATM   16  O   UNL     1      23.541  49.324  47.790  1.00  0.00    -0.353 OA
HETATM   17  C   UNL     1      23.738  50.583  48.428  1.00  0.00     0.210 C 
ENDBRANCH  14  16
BRANCH  15  18
HETATM   18  O   UNL     1      22.073  46.901  47.312  1.00  0.00    -0.353 OA
HETATM   19  C   UNL     1      20.722  47.233  47.615  1.00  0.00     0.210 C 
ENDBRANCH  15  18
ENDBRANCH   3   4
ENDBRANCH   1   3
BRANCH   1  20
HETATM   20  C   UNL     1      28.418  44.992  54.856  1.00  0.00     0.024 A 
HETATM   21  C   UNL     1      29.492  44.066  54.823  1.00  0.00     0.053 A 
HETATM   22  C   UNL     1      30.540  44.144  55.762  1.00  0.00     0.019 A 
HETATM   23  C   UNL     1      30.534  45.115  56.758  1.00  0.00     0.001 A 
HETATM   24  C   UNL     1      29.482  46.015  56.822  1.00  0.00     0.002 A 
HETATM   25  C   UNL     1      28.441  45.953  55.888  1.00  0.00     0.024 A 
BRANCH  21  26
HETATM   26  C   UNL     1      29.595  42.938  53.853  1.00  0.00     0.253 C 
HETATM   27  N   UNL     1      28.457  42.193  53.672  1.00  0.00    -0.351 N 
HETATM   28  H   UNL     1      27.607  42.495  54.136  1.00  0.00     0.163 HD
HETATM   29  O   UNL     1      30.661  42.685  53.304  1.00  0.00    -0.268 OA
BRANCH  27  30
HETATM   30  C   UNL     1      28.425  41.031  52.820  1.00  0.00     0.187 C 
BRANCH  30  31
HETATM   31  C   UNL     1      27.967  41.438  51.472  1.00  0.00     0.070 A 
HETATM   32  O   UNL     1      27.390  42.667  51.373  1.00  0.00    -0.325 OA
HETATM   33  C   UNL     1      27.010  42.825  50.079  1.00  0.00     0.142 A 
HETATM   34  C   UNL     1      27.355  41.720  49.338  1.00  0.00     0.027 A 
HETATM   35  C   UNL     1      27.978  40.822  50.237  1.00  0.00     0.036 A 
ENDBRANCH  30  31
ENDBRANCH  27  30
ENDBRANCH  21  26
ENDBRANCH   1  20
TORSDOF 8
ENDMDL
MODEL 6
REMARK VINA RESULT:      -9.2      4.510      8.862
REMARK  8 active torsions:
REMARK  status: ('A' for Active; 'I' for Inactive)
REMARK    1  A    between atoms: O_2  and  C_3 
REMARK    2  A    between atoms: C_4  and  O_5 
REMARK    3  A    between atoms: C_13  and  C_14 
REMARK    4  A    between atoms: C_14  and  N_15 
REMARK    5  A    between atoms: N_15  and  C_16 
REMARK    6  A    between atoms: C_17  and  C_18 
REMARK       I    between atoms: C_18  and  N_19 
REMARK    7  A    between atoms: N_19  and  C_20 
REMARK    8  A    between atoms: C_20  and  C_21 
ROOT
HETATM    1  N   UNL     1      28.811  43.616  53.497  1.00  0.00    -0.285 NA
HETATM    2  H   UNL     1      27.817  43.826  53.648  1.00  0.00     0.128 HD
ENDROOT
BRANCH   1   3
HETATM    3  C   UNL     1      28.998  42.227  53.042  1.00  0.00     0.171 C 
BRANCH   3   4
HETATM    4  C   UNL     1      28.143  41.839  51.841  1.00  0.00     0.120 A 
HETATM    5  N   UNL     1      28.685  41.020  50.890  1.00  0.00    -0.310 N 
HETATM    6  C   UNL     1      27.992  40.601  49.780  1.00  0.00     0.259 A 
HETATM    7  H   UNL     1      29.625  40.660  50.996  1.00  0.00     0.170 HD
HETATM    8  C   UNL     1      26.608  41.085  49.667  1.00  0.00     0.064 A 
HETATM    9  O   UNL     1      28.474  39.862  48.932  1.00  0.00    -0.267 OA
HETATM   10  C   UNL     1      26.135  41.914  50.679  1.00  0.00     0.077 A 
HETATM   11  C   UNL     1      25.794  40.707  48.600  1.00  0.00     0.059 A 
HETATM   12  C   UNL     1      24.819  42.377  50.608  1.00  0.00     0.072 A 
HETATM   13  N   UNL     1      26.931  42.296  51.771  1.00  0.00    -0.233 NA
HETATM   14  C   UNL     1      23.987  42.022  49.537  1.00  0.00     0.103 A 
HETATM   15  C   UNL     1      24.470  41.149  48.547  1.00  0.00     0.102 A 
BRANCH  14  16
HETATM   16  O   UNL     1      22.696  42.472  49.441  1.00  0.00    -0.353 OA
HETATM   17  C   UNL     1      22.504  43.835  49.810  1.00  0.00     0.210 C 
ENDBRANCH  14  16
BRANCH  15  18
HETATM   18  O   UNL     1      23.781  40.715  47.445  1.00  0.00    -0.353 OA
HETATM   19  C   UNL     1      23.891  41.539  46.289  1.00  0.00     0.210 C 
ENDBRANCH  15  18
ENDBRANCH   3   4
ENDBRANCH   1   3
BRANCH   1  20
HETATM   20  C   UNL     1      29.498  43.998  54.690  1.00  0.00     0.024 A 
HETATM   21  C   UNL     1      29.152  45.184  55.387  1.00  0.00     0.053 A 
HETATM   22  C   UNL     1      29.813  45.537  56.580  1.00  0.00     0.019 A 
HETATM   23  C   UNL     1      30.836  44.746  57.089  1.00  0.00     0.001 A 
HETATM   24  C   UNL     1      31.206  43.594  56.412  1.00  0.00     0.002 A 
HETATM   25  C   UNL     1      30.548  43.228  55.231  1.00  0.00     0.024 A 
BRANCH  21  26
HETATM   26  C   UNL     1      28.121  46.157  54.923  1.00  0.00     0.253 C 
HETATM   27  N   UNL     1      26.904  45.626  54.578  1.00  0.00    -0.351 N 
HETATM   28  H   UNL     1      26.751  44.635  54.732  1.00  0.00     0.163 HD
HETATM   29  O   UNL     1      28.392  47.347  54.819  1.00  0.00    -0.268 OA
BRANCH  27  30
HETATM   30  C   UNL     1      25.834  46.434  54.047  1.00  0.00     0.187 C 
BRANCH  30  31
HETATM   31  C   UNL     1      25.939  46.457  52.571  1.00  0.00     0.070 A 
HETATM   32  O   UNL     1      25.440  47.558  51.943  1.00  0.00    -0.325 OA
HETATM   33  C   UNL     1      25.597  47.360  50.608  1.00  0.00     0.142 A 
HETATM   34  C   UNL     1      26.211  46.154  50.370  1.00  0.00     0.027 A 
HETATM   35  C   UNL     1      26.437  45.569  51.639  1.00  0.00     0.036 A 
ENDBRANCH  30  31
ENDBRANCH  27  30
ENDBRANCH  21  26
ENDBRANCH   1  20
TORSDOF 8
ENDMDL
MODEL 7
REMARK VINA RESULT:      -9.1      4.715      9.186
REMARK  8 active torsions:
REMARK  status: ('A' for Active; 'I' for Inactive)
REMARK    1  A    between atoms: O_2  and  C_3 
REMARK    2  A    between atoms: C_4  and  O_5 
REMARK    3  A    between atoms: C_13  and  C_14 
REMARK    4  A    between atoms: C_14  and  N_15 
REMARK    5  A    between atoms: N_15  and  C_16 
REMARK    6  A    between atoms: C_17  and  C_18 
REMARK       I    between atoms: C_18  and  N_19 
REMARK    7  A    between atoms: N_19  and  C_20 
REMARK    8  A    between atoms: C_20  and  C_21 
ROOT
HETATM    1  N   UNL     1      28.731  43.364  53.362  1.00  0.00    -0.285 NA
HETATM    2  H   UNL     1      28.035  44.096  53.182  1.00  0.00     0.128 HD
ENDROOT
BRANCH   1   3
HETATM    3  C   UNL     1      28.104  42.031  53.397  1.00  0.00     0.171 C 
BRANCH   3   4
HETATM    4  C   UNL     1      28.286  41.218  52.120  1.00  0.00     0.120 A 
HETATM    5  N   UNL     1      29.001  40.053  52.183  1.00  0.00    -0.310 N 
HETATM    6  C   UNL     1      29.209  39.243  51.094  1.00  0.00     0.259 A 
HETATM    7  H   UNL     1      29.378  39.729  53.065  1.00  0.00     0.170 HD
HETATM    8  C   UNL     1      28.608  39.698  49.832  1.00  0.00     0.064 A 
HETATM    9  O   UNL     1      29.843  38.198  51.151  1.00  0.00    -0.267 OA
HETATM   10  C   UNL     1      27.896  40.893  49.856  1.00  0.00     0.077 A 
HETATM   11  C   UNL     1      28.725  38.948  48.662  1.00  0.00     0.059 A 
HETATM   12  C   UNL     1      27.299  41.343  48.675  1.00  0.00     0.072 A 
HETATM   13  N   UNL     1      27.751  41.658  51.024  1.00  0.00    -0.233 NA
HETATM   14  C   UNL     1      27.417  40.612  47.484  1.00  0.00     0.103 A 
HETATM   15  C   UNL     1      28.103  39.387  47.491  1.00  0.00     0.102 A 
BRANCH  14  16
HETATM   16  O   UNL     1      26.848  41.040  46.313  1.00  0.00    -0.353 OA
HETATM   17  C   UNL     1      25.458  40.760  46.179  1.00  0.00     0.210 C 
ENDBRANCH  14  16
BRANCH  15  18
HETATM   18  O   UNL     1      28.303  38.564  46.412  1.00  0.00    -0.353 OA
HETATM   19  C   UNL     1      28.879  37.296  46.707  1.00  0.00     0.210 C 
ENDBRANCH  15  18
ENDBRANCH   3   4
ENDBRANCH   1   3
BRANCH   1  20
HETATM   20  C   UNL     1      29.455  43.762  54.527  1.00  0.00     0.024 A 
HETATM   21  C   UNL     1      29.136  44.961  55.214  1.00  0.00     0.053 A 
HETATM   22  C   UNL     1      29.833  45.331  56.381  1.00  0.00     0.019 A 
HETATM   23  C   UNL     1      30.868  44.543  56.873  1.00  0.00     0.001 A 
HETATM   24  C   UNL     1      31.212  43.378  56.204  1.00  0.00     0.002 A 
HETATM   25  C   UNL     1      30.517  42.996  55.049  1.00  0.00     0.024 A 
BRANCH  21  26
HETATM   26  C   UNL     1      28.096  45.932  54.765  1.00  0.00     0.253 C 
HETATM   27  N   UNL     1      26.907  45.390  54.346  1.00  0.00    -0.351 N 
HETATM   28  H   UNL     1      26.776  44.388  54.441  1.00  0.00     0.163 HD
HETATM   29  O   UNL     1      28.338  47.133  54.735  1.00  0.00    -0.268 OA
BRANCH  27  30
HETATM   30  C   UNL     1      25.836  46.199  53.820  1.00  0.00     0.187 C 
BRANCH  30  31
HETATM   31  C   UNL     1      26.004  46.321  52.354  1.00  0.00     0.070 A 
HETATM   32  O   UNL     1      25.816  47.561  51.823  1.00  0.00    -0.325 OA
HETATM   33  C   UNL     1      25.976  47.445  50.479  1.00  0.00     0.142 A 
HETATM   34  C   UNL     1      26.286  46.150  50.141  1.00  0.00     0.027 A 
HETATM   35  C   UNL     1      26.308  45.420  51.354  1.00  0.00     0.036 A 
ENDBRANCH  30  31
ENDBRANCH  27  30
ENDBRANCH  21  26
ENDBRANCH   1  20
TORSDOF 8
ENDMDL
MODEL 8
REMARK VINA RESULT:      -9.1      4.835      8.862
REMARK  8 active torsions:
REMARK  status: ('A' for Active; 'I' for Inactive)
REMARK    1  A    between atoms: O_2  and  C_3 
REMARK    2  A    between atoms: C_4  and  O_5 
REMARK    3  A    between atoms: C_13  and  C_14 
REMARK    4  A    between atoms: C_14  and  N_15 
REMARK    5  A    between atoms: N_15  and  C_16 
REMARK    6  A    between atoms: C_17  and  C_18 
REMARK       I    between atoms: C_18  and  N_19 
REMARK    7  A    between atoms: N_19  and  C_20 
REMARK    8  A    between atoms: C_20  and  C_21 
ROOT
HETATM    1  N   UNL     1      28.876  43.576  53.528  1.00  0.00    -0.285 NA
HETATM    2  H   UNL     1      28.021  44.135  53.440  1.00  0.00     0.128 HD
ENDROOT
BRANCH   1   3
HETATM    3  C   UNL     1      28.584  42.136  53.410  1.00  0.00     0.171 C 
BRANCH   3   4
HETATM    4  C   UNL     1      27.823  41.751  52.146  1.00  0.00     0.120 A 
HETATM    5  N   UNL     1      26.537  42.193  51.998  1.00  0.00    -0.310 N 
HETATM    6  C   UNL     1      25.774  41.915  50.891  1.00  0.00     0.259 A 
HETATM    7  H   UNL     1      26.112  42.783  52.702  1.00  0.00     0.170 HD
HETATM    8  C   UNL     1      26.424  41.105  49.850  1.00  0.00     0.064 A 
HETATM    9  O   UNL     1      24.625  42.315  50.754  1.00  0.00    -0.267 OA
HETATM   10  C   UNL     1      27.734  40.697  50.081  1.00  0.00     0.077 A 
HETATM   11  C   UNL     1      25.761  40.779  48.667  1.00  0.00     0.059 A 
HETATM   12  C   UNL     1      28.384  39.940  49.103  1.00  0.00     0.072 A 
HETATM   13  N   UNL     1      28.427  41.026  51.256  1.00  0.00    -0.233 NA
HETATM   14  C   UNL     1      27.732  39.588  47.912  1.00  0.00     0.103 A 
HETATM   15  C   UNL     1      26.424  40.045  47.680  1.00  0.00     0.102 A 
BRANCH  14  16
HETATM   16  O   UNL     1      28.346  38.837  46.944  1.00  0.00    -0.353 OA
HETATM   17  C   UNL     1      28.375  37.436  47.196  1.00  0.00     0.210 C 
ENDBRANCH  14  16
BRANCH  15  18
HETATM   18  O   UNL     1      25.659  39.785  46.572  1.00  0.00    -0.353 OA
HETATM   19  C   UNL     1      24.257  39.701  46.801  1.00  0.00     0.210 C 
ENDBRANCH  15  18
ENDBRANCH   3   4
ENDBRANCH   1   3
BRANCH   1  20
HETATM   20  C   UNL     1      29.527  44.001  54.727  1.00  0.00     0.024 A 
HETATM   21  C   UNL     1      29.136  45.194  55.387  1.00  0.00     0.053 A 
HETATM   22  C   UNL     1      29.761  45.591  56.586  1.00  0.00     0.019 A 
HETATM   23  C   UNL     1      30.790  44.836  57.138  1.00  0.00     0.001 A 
HETATM   24  C   UNL     1      31.202  43.678  56.497  1.00  0.00     0.002 A 
HETATM   25  C   UNL     1      30.581  43.269  55.310  1.00  0.00     0.024 A 
BRANCH  21  26
HETATM   26  C   UNL     1      28.094  46.131  54.876  1.00  0.00     0.253 C 
HETATM   27  N   UNL     1      26.947  45.553  54.395  1.00  0.00    -0.351 N 
HETATM   28  H   UNL     1      26.842  44.548  54.487  1.00  0.00     0.163 HD
HETATM   29  O   UNL     1      28.301  47.339  54.855  1.00  0.00    -0.268 OA
BRANCH  27  30
HETATM   30  C   UNL     1      25.883  46.327  53.807  1.00  0.00     0.187 C 
BRANCH  30  31
HETATM   31  C   UNL     1      26.027  46.297  52.334  1.00  0.00     0.070 A 
HETATM   32  O   UNL     1      26.683  45.224  51.810  1.00  0.00    -0.325 OA
HETATM   33  C   UNL     1      26.740  45.411  50.465  1.00  0.00     0.142 A 
HETATM   34  C   UNL     1      26.108  46.581  50.115  1.00  0.00     0.027 A 
HETATM   35  C   UNL     1      25.643  47.154  51.323  1.00  0.00     0.036 A 
ENDBRANCH  30  31
ENDBRANCH  27  30
ENDBRANCH  21  26
ENDBRANCH   1  20
TORSDOF 8
ENDMDL
MODEL 9
REMARK VINA RESULT:      -8.9     11.607     13.393
REMARK  8 active torsions:
REMARK  status: ('A' for Active; 'I' for Inactive)
REMARK    1  A    between atoms: O_2  and  C_3 
REMARK    2  A    between atoms: C_4  and  O_5 
REMARK    3  A    between atoms: C_13  and  C_14 
REMARK    4  A    between atoms: C_14  and  N_15 
REMARK    5  A    between atoms: N_15  and  C_16 
REMARK    6  A    between atoms: C_17  and  C_18 
REMARK       I    between atoms: C_18  and  N_19 
REMARK    7  A    between atoms: N_19  and  C_20 
REMARK    8  A    between atoms: C_20  and  C_21 
ROOT
HETATM    1  N   UNL     1      26.775  48.552  41.308  1.00  0.00    -0.285 NA
HETATM    2  H   UNL     1      26.996  49.548  41.194  1.00  0.00     0.128 HD
ENDROOT
BRANCH   1   3
HETATM    3  C   UNL     1      27.990  47.723  41.212  1.00  0.00     0.171 C 
BRANCH   3   4
HETATM    4  C   UNL     1      29.274  48.514  40.988  1.00  0.00     0.120 A 
HETATM    5  N   UNL     1      29.688  48.738  39.704  1.00  0.00    -0.310 N 
HETATM    6  C   UNL     1      30.821  49.451  39.397  1.00  0.00     0.259 A 
HETATM    7  H   UNL     1      29.139  48.405  38.921  1.00  0.00     0.170 HD
HETATM    8  C   UNL     1      31.578  49.977  40.542  1.00  0.00     0.064 A 
HETATM    9  O   UNL     1      31.189  49.657  38.247  1.00  0.00    -0.267 OA
HETATM   10  C   UNL     1      31.086  49.705  41.815  1.00  0.00     0.077 A 
HETATM   11  C   UNL     1      32.731  50.741  40.359  1.00  0.00     0.059 A 
HETATM   12  C   UNL     1      31.775  50.205  42.922  1.00  0.00     0.072 A 
HETATM   13  N   UNL     1      29.920  48.952  42.024  1.00  0.00    -0.233 NA
HETATM   14  C   UNL     1      32.944  50.963  42.762  1.00  0.00     0.103 A 
HETATM   15  C   UNL     1      33.401  51.263  41.467  1.00  0.00     0.102 A 
BRANCH  14  16
HETATM   16  O   UNL     1      33.642  51.455  43.834  1.00  0.00    -0.353 OA
HETATM   17  C   UNL     1      32.839  52.006  44.874  1.00  0.00     0.210 C 
ENDBRANCH  14  16
BRANCH  15  18
HETATM   18  O   UNL     1      34.521  51.986  41.151  1.00  0.00    -0.353 OA
HETATM   19  C   UNL     1      34.703  52.261  39.766  1.00  0.00     0.210 C 
ENDBRANCH  15  18
ENDBRANCH   3   4
ENDBRANCH   1   3
BRANCH   1  20
HETATM   20  C   UNL     1      25.723  48.255  40.389  1.00  0.00     0.024 A 
HETATM   21  C   UNL     1      25.749  48.753  39.061  1.00  0.00     0.053 A 
HETATM   22  C   UNL     1      24.724  48.429  38.150  1.00  0.00     0.019 A 
HETATM   23  C   UNL     1      23.650  47.636  38.537  1.00  0.00     0.001 A 
HETATM   24  C   UNL     1      23.593  47.157  39.837  1.00  0.00     0.002 A 
HETATM   25  C   UNL     1      24.612  47.464  40.748  1.00  0.00     0.024 A 
BRANCH  21  26
HETATM   26  C   UNL     1      26.803  49.664  38.529  1.00  0.00     0.253 C 
HETATM   27  N   UNL     1      26.939  50.869  39.172  1.00  0.00    -0.351 N 
HETATM   28  H   UNL     1      26.383  51.033  40.005  1.00  0.00     0.163 HD
HETATM   29  O   UNL     1      27.459  49.348  37.543  1.00  0.00    -0.268 OA
BRANCH  27  30
HETATM   30  C   UNL     1      27.867  51.878  38.728  1.00  0.00     0.187 C 
BRANCH  30  31
HETATM   31  C   UNL     1      28.634  52.370  39.895  1.00  0.00     0.070 A 
HETATM   32  O   UNL     1      29.753  53.097  39.623  1.00  0.00    -0.325 OA
HETATM   33  C   UNL     1      30.321  53.412  40.816  1.00  0.00     0.142 A 
HETATM   34  C   UNL     1      29.569  52.915  41.853  1.00  0.00     0.027 A 
HETATM   35  C   UNL     1      28.474  52.244  41.260  1.00  0.00     0.036 A 
ENDBRANCH  30  31
ENDBRANCH  27  30
ENDBRANCH  21  26
ENDBRANCH   1  20
TORSDOF 8
ENDMDL
MODEL 10
REMARK VINA RESULT:      -8.9      1.898      3.087
REMARK  8 active torsions:
REMARK  status: ('A' for Active; 'I' for Inactive)
REMARK    1  A    between atoms: O_2  and  C_3 
REMARK    2  A    between atoms: C_4  and  O_5 
REMARK    3  A    between atoms: C_13  and  C_14 
REMARK    4  A    between atoms: C_14  and  N_15 
REMARK    5  A    between atoms: N_15  and  C_16 
REMARK    6  A    between atoms: C_17  and  C_18 
REMARK       I    between atoms: C_18  and  N_19 
REMARK    7  A    between atoms: N_19  and  C_20 
REMARK    8  A    between atoms: C_20  and  C_21 
ROOT
HETATM    1  N   UNL     1      22.995  47.148  49.628  1.00  0.00    -0.285 NA
HETATM    2  H   UNL     1      23.245  47.185  50.622  1.00  0.00     0.128 HD
ENDROOT
BRANCH   1   3
HETATM    3  C   UNL     1      23.680  46.032  48.949  1.00  0.00     0.171 C 
BRANCH   3   4
HETATM    4  C   UNL     1      24.793  45.388  49.768  1.00  0.00     0.120 A 
HETATM    5  N   UNL     1      25.550  44.409  49.185  1.00  0.00    -0.310 N 
HETATM    6  C   UNL     1      26.584  43.779  49.832  1.00  0.00     0.259 A 
HETATM    7  H   UNL     1      25.389  44.139  48.222  1.00  0.00     0.170 HD
HETATM    8  C   UNL     1      26.844  44.221  51.210  1.00  0.00     0.064 A 
HETATM    9  O   UNL     1      27.267  42.908  49.309  1.00  0.00    -0.267 OA
HETATM   10  C   UNL     1      26.027  45.222  51.726  1.00  0.00     0.077 A 
HETATM   11  C   UNL     1      27.885  43.676  51.961  1.00  0.00     0.059 A 
HETATM   12  C   UNL     1      26.260  45.675  53.027  1.00  0.00     0.072 A 
HETATM   13  N   UNL     1      24.983  45.797  50.984  1.00  0.00    -0.233 NA
HETATM   14  C   UNL     1      27.292  45.131  53.806  1.00  0.00     0.103 A 
HETATM   15  C   UNL     1      28.132  44.151  53.251  1.00  0.00     0.102 A 
BRANCH  14  16
HETATM   16  O   UNL     1      27.531  45.553  55.088  1.00  0.00    -0.353 OA
HETATM   17  C   UNL     1      28.306  46.743  55.196  1.00  0.00     0.210 C 
ENDBRANCH  14  16
BRANCH  15  18
HETATM   18  O   UNL     1      29.176  43.527  53.885  1.00  0.00    -0.353 OA
HETATM   19  C   UNL     1      30.142  42.929  53.028  1.00  0.00     0.210 C 
ENDBRANCH  15  18
ENDBRANCH   3   4
ENDBRANCH   1   3
BRANCH   1  20
HETATM   20  C   UNL     1      23.218  48.454  49.096  1.00  0.00     0.024 A 
HETATM   21  C   UNL     1      22.150  49.375  48.944  1.00  0.00     0.053 A 
HETATM   22  C   UNL     1      22.383  50.674  48.449  1.00  0.00     0.019 A 
HETATM   23  C   UNL     1      23.660  51.075  48.074  1.00  0.00     0.001 A 
HETATM   24  C   UNL     1      24.715  50.184  48.193  1.00  0.00     0.002 A 
HETATM   25  C   UNL     1      24.496  48.894  48.694  1.00  0.00     0.024 A 
BRANCH  21  26
HETATM   26  C   UNL     1      20.724  49.059  49.245  1.00  0.00     0.253 C 
HETATM   27  N   UNL     1      20.045  49.989  49.992  1.00  0.00    -0.351 N 
HETATM   28  H   UNL     1      20.518  50.857  50.223  1.00  0.00     0.163 HD
HETATM   29  O   UNL     1      20.230  48.000  48.876  1.00  0.00    -0.268 OA
BRANCH  27  30
HETATM   30  C   UNL     1      18.683  49.788  50.419  1.00  0.00     0.187 C 
BRANCH  30  31
HETATM   31  C   UNL     1      17.843  50.875  49.867  1.00  0.00     0.070 A 
HETATM   32  O   UNL     1      16.789  50.494  49.093  1.00  0.00    -0.325 OA
HETATM   33  C   UNL     1      16.183  51.630  48.660  1.00  0.00     0.142 A 
HETATM   34  C   UNL     1      16.821  52.738  49.164  1.00  0.00     0.027 A 
HETATM   35  C   UNL     1      17.894  52.251  49.949  1.00  0.00     0.036 A 
ENDBRANCH  30  31
ENDBRANCH  27  30
ENDBRANCH  21  26
ENDBRANCH   1  20
TORSDOF 8
ENDMDL
