MODEL 1
REMARK VINA RESULT:      -9.2      0.000      0.000
REMARK  3 active torsions:
REMARK  status: ('A' for Active; 'I' for Inactive)
REMARK    1  A    between atoms: C_5  and  N_6 
REMARK       I    between atoms: N_6  and  C_7 
REMARK    2  A    between atoms: C_7  and  C_8 
REMARK    3  A    between atoms: C_9  and  C_10 
ROOT
HETATM    1  C   UNL     1      26.592  42.850  52.288  1.00  0.00     0.062 C 
HETATM    2  C   UNL     1      25.365  43.624  51.781  1.00  0.00     0.199 C 
HETATM    3  N   UNL     1      24.715  42.893  50.698  1.00  0.00    -0.092 N 
HETATM    4  C   UNL     1      25.289  41.864  50.008  1.00  0.00     0.735 A 
HETATM    5  N   UNL     1      26.522  41.447  50.365  1.00  0.00    -0.191 N 
HETATM    6  N   UNL     1      23.467  43.113  50.259  1.00  0.00     0.012 NA
HETATM    7  N   UNL     1      23.312  42.246  49.262  1.00  0.00     0.033 NA
HETATM    8  N   UNL     1      24.441  41.462  49.095  1.00  0.00     0.030 NA
HETATM    9  C   UNL     1      27.152  41.865  51.536  1.00  0.00     0.037 C 
HETATM   10  C   UNL     1      28.458  41.176  51.844  1.00  0.00     0.070 C 
HETATM   11  H   UNL     1      26.930  40.659  49.865  1.00  0.00     0.184 HD
ENDROOT
BRANCH   1  12
HETATM   12  C   UNL     1      27.056  43.290  53.640  1.00  0.00     0.256 C 
HETATM   13  N   UNL     1      28.267  43.949  53.638  1.00  0.00    -0.323 N 
HETATM   14  H   UNL     1      28.720  44.103  52.747  1.00  0.00     0.169 HD
HETATM   15  O   UNL     1      26.407  42.970  54.627  1.00  0.00    -0.267 OA
BRANCH  13  16
HETATM   16  C   UNL     1      28.951  44.474  54.758  1.00  0.00     0.035 A 
HETATM   17  C   UNL     1      30.146  43.955  55.258  1.00  0.00     0.030 A 
HETATM   18  C   UNL     1      30.756  44.527  56.379  1.00  0.00     0.009 A 
HETATM   19  C   UNL     1      30.182  45.626  57.023  1.00  0.00    -0.062 A 
HETATM   20  C   UNL     1      30.823  46.198  58.252  1.00  0.00     0.048 C 
HETATM   21  C   UNL     1      28.980  46.141  56.530  1.00  0.00     0.009 A 
HETATM   22  C   UNL     1      28.378  45.578  55.400  1.00  0.00     0.030 A 
ENDBRANCH  13  16
ENDBRANCH   1  12
BRANCH   2  23
HETATM   23  C   UNL     1      25.702  45.030  51.308  1.00  0.00    -0.011 A 
HETATM   24  C   UNL     1      25.241  46.166  51.975  1.00  0.00     0.125 A 
HETATM   25  N   UNL     1      25.484  47.436  51.579  1.00  0.00    -0.272 NA
HETATM   26  C   UNL     1      26.223  47.592  50.460  1.00  0.00     0.116 A 
HETATM   27  C   UNL     1      26.735  46.537  49.724  1.00  0.00     0.020 A 
HETATM   28  C   UNL     1      26.471  45.240  50.157  1.00  0.00     0.012 A 
ENDBRANCH   2  23
TORSDOF 3
ENDMDL
MODEL 2
REMARK VINA RESULT:      -8.9      1.688      2.417
REMARK  3 active torsions:
REMARK  status: ('A' for Active; 'I' for Inactive)
REMARK    1  A    between atoms: C_5  and  N_6 
REMARK       I    between atoms: N_6  and  C_7 
REMARK    2  A    between atoms: C_7  and  C_8 
REMARK    3  A    between atoms: C_9  and  C_10 
ROOT
HETATM    1  C   UNL     1      26.081  42.353  50.099  1.00  0.00     0.062 C 
HETATM    2  C   UNL     1      24.836  43.214  50.361  1.00  0.00     0.199 C 
HETATM    3  N   UNL     1      23.852  43.021  49.300  1.00  0.00    -0.092 N 
HETATM    4  C   UNL     1      24.124  42.442  48.093  1.00  0.00     0.735 A 
HETATM    5  N   UNL     1      25.365  41.966  47.862  1.00  0.00    -0.191 N 
HETATM    6  N   UNL     1      22.557  43.357  49.377  1.00  0.00     0.012 NA
HETATM    7  N   UNL     1      22.059  43.027  48.189  1.00  0.00     0.033 NA
HETATM    8  N   UNL     1      23.025  42.456  47.379  1.00  0.00     0.030 NA
HETATM    9  C   UNL     1      26.325  41.840  48.864  1.00  0.00     0.037 C 
HETATM   10  C   UNL     1      27.600  41.148  48.449  1.00  0.00     0.070 C 
HETATM   11  H   UNL     1      25.549  41.508  46.971  1.00  0.00     0.184 HD
ENDROOT
BRANCH   1  12
HETATM   12  C   UNL     1      26.934  42.157  51.313  1.00  0.00     0.256 C 
HETATM   13  N   UNL     1      27.674  43.264  51.671  1.00  0.00    -0.323 N 
HETATM   14  H   UNL     1      27.564  44.105  51.120  1.00  0.00     0.169 HD
HETATM   15  O   UNL     1      26.990  41.050  51.831  1.00  0.00    -0.267 OA
BRANCH  13  16
HETATM   16  C   UNL     1      28.564  43.374  52.763  1.00  0.00     0.035 A 
HETATM   17  C   UNL     1      29.756  42.657  52.875  1.00  0.00     0.030 A 
HETATM   18  C   UNL     1      30.579  42.816  53.995  1.00  0.00     0.009 A 
HETATM   19  C   UNL     1      30.225  43.691  55.025  1.00  0.00    -0.062 A 
HETATM   20  C   UNL     1      31.094  43.814  56.240  1.00  0.00     0.048 C 
HETATM   21  C   UNL     1      29.026  44.403  54.920  1.00  0.00     0.009 A 
HETATM   22  C   UNL     1      28.211  44.255  53.793  1.00  0.00     0.030 A 
ENDBRANCH  13  16
ENDBRANCH   1  12
BRANCH   2  23
HETATM   23  C   UNL     1      25.153  44.697  50.489  1.00  0.00    -0.011 A 
HETATM   24  C   UNL     1      25.733  45.423  49.447  1.00  0.00     0.125 A 
HETATM   25  N   UNL     1      26.063  46.732  49.520  1.00  0.00    -0.272 NA
HETATM   26  C   UNL     1      25.807  47.358  50.688  1.00  0.00     0.116 A 
HETATM   27  C   UNL     1      25.231  46.738  51.782  1.00  0.00     0.020 A 
HETATM   28  C   UNL     1      24.898  45.390  51.679  1.00  0.00     0.012 A 
ENDBRANCH   2  23
TORSDOF 3
ENDMDL
MODEL 3
REMARK VINA RESULT:      -8.2      4.958      8.716
REMARK  3 active torsions:
REMARK  status: ('A' for Active; 'I' for Inactive)
REMARK    1  A    between atoms: C_5  and  N_6 
REMARK       I    between atoms: N_6  and  C_7 
REMARK    2  A    between atoms: C_7  and  C_8 
REMARK    3  A    between atoms: C_9  and  C_10 
ROOT
HETATM    1  C   UNL     1      24.095  47.524  49.521  1.00  0.00     0.062 C 
HETATM    2  C   UNL     1      23.599  46.218  50.159  1.00  0.00     0.199 C 
HETATM    3  N   UNL     1      24.605  45.684  51.072  1.00  0.00    -0.092 N 
HETATM    4  C   UNL     1      25.911  46.084  51.100  1.00  0.00     0.735 A 
HETATM    5  N   UNL     1      26.309  47.069  50.269  1.00  0.00    -0.191 N 
HETATM    6  N   UNL     1      24.378  44.759  52.016  1.00  0.00     0.012 NA
HETATM    7  N   UNL     1      25.568  44.563  52.578  1.00  0.00     0.033 NA
HETATM    8  N   UNL     1      26.532  45.382  52.015  1.00  0.00     0.030 NA
HETATM    9  C   UNL     1      25.415  47.849  49.538  1.00  0.00     0.037 C 
HETATM   10  C   UNL     1      26.034  49.000  48.783  1.00  0.00     0.070 C 
HETATM   11  H   UNL     1      27.277  47.382  50.319  1.00  0.00     0.184 HD
ENDROOT
BRANCH   1  12
HETATM   12  C   UNL     1      22.998  48.348  48.924  1.00  0.00     0.256 C 
HETATM   13  N   UNL     1      22.322  49.136  49.831  1.00  0.00    -0.323 N 
HETATM   14  H   UNL     1      22.629  49.119  50.794  1.00  0.00     0.169 HD
HETATM   15  O   UNL     1      22.722  48.205  47.741  1.00  0.00    -0.267 OA
BRANCH  13  16
HETATM   16  C   UNL     1      21.245  50.011  49.560  1.00  0.00     0.035 A 
HETATM   17  C   UNL     1      21.321  51.097  48.687  1.00  0.00     0.030 A 
HETATM   18  C   UNL     1      20.210  51.922  48.480  1.00  0.00     0.009 A 
HETATM   19  C   UNL     1      19.005  51.679  49.145  1.00  0.00    -0.062 A 
HETATM   20  C   UNL     1      17.838  52.600  48.949  1.00  0.00     0.048 C 
HETATM   21  C   UNL     1      18.930  50.598  50.027  1.00  0.00     0.009 A 
HETATM   22  C   UNL     1      20.036  49.763  50.221  1.00  0.00     0.030 A 
ENDBRANCH  13  16
ENDBRANCH   1  12
BRANCH   2  23
HETATM   23  C   UNL     1      23.237  45.154  49.133  1.00  0.00    -0.011 A 
HETATM   24  C   UNL     1      21.911  44.832  48.837  1.00  0.00     0.125 A 
HETATM   25  N   UNL     1      21.536  43.875  47.959  1.00  0.00    -0.272 NA
HETATM   26  C   UNL     1      22.525  43.197  47.340  1.00  0.00     0.116 A 
HETATM   27  C   UNL     1      23.871  43.437  47.553  1.00  0.00     0.020 A 
HETATM   28  C   UNL     1      24.230  44.430  48.461  1.00  0.00     0.012 A 
ENDBRANCH   2  23
TORSDOF 3
ENDMDL
MODEL 4
REMARK VINA RESULT:      -8.0      2.995      4.455
REMARK  3 active torsions:
REMARK  status: ('A' for Active; 'I' for Inactive)
REMARK    1  A    between atoms: C_5  and  N_6 
REMARK       I    between atoms: N_6  and  C_7 
REMARK    2  A    between atoms: C_7  and  C_8 
REMARK    3  A    between atoms: C_9  and  C_10 
ROOT
HETATM    1  C   UNL     1      24.724  46.052  49.950  1.00  0.00     0.062 C 
HETATM    2  C   UNL     1      24.231  47.507  49.968  1.00  0.00     0.199 C 
HETATM    3  N   UNL     1      22.930  47.611  49.315  1.00  0.00    -0.092 N 
HETATM    4  C   UNL     1      22.391  46.646  48.511  1.00  0.00     0.735 A 
HETATM    5  N   UNL     1      23.068  45.493  48.333  1.00  0.00    -0.191 N 
HETATM    6  N   UNL     1      22.084  48.644  49.437  1.00  0.00     0.012 NA
HETATM    7  N   UNL     1      21.055  48.321  48.659  1.00  0.00     0.033 NA
HETATM    8  N   UNL     1      21.234  47.079  48.075  1.00  0.00     0.030 NA
HETATM    9  C   UNL     1      24.183  45.145  49.094  1.00  0.00     0.037 C 
HETATM   10  C   UNL     1      24.714  43.753  48.858  1.00  0.00     0.070 C 
HETATM   11  H   UNL     1      22.645  44.767  47.758  1.00  0.00     0.184 HD
ENDROOT
BRANCH   1  12
HETATM   12  C   UNL     1      25.809  45.780  50.944  1.00  0.00     0.256 C 
HETATM   13  N   UNL     1      25.553  46.266  52.209  1.00  0.00    -0.323 N 
HETATM   14  H   UNL     1      24.669  46.728  52.369  1.00  0.00     0.169 HD
HETATM   15  O   UNL     1      26.845  45.252  50.567  1.00  0.00    -0.267 OA
BRANCH  13  16
HETATM   16  C   UNL     1      26.390  46.162  53.344  1.00  0.00     0.035 A 
HETATM   17  C   UNL     1      26.782  44.953  53.918  1.00  0.00     0.030 A 
HETATM   18  C   UNL     1      27.605  44.936  55.049  1.00  0.00     0.009 A 
HETATM   19  C   UNL     1      28.048  46.128  55.629  1.00  0.00    -0.062 A 
HETATM   20  C   UNL     1      28.891  46.094  56.869  1.00  0.00     0.048 C 
HETATM   21  C   UNL     1      27.648  47.341  55.062  1.00  0.00     0.009 A 
HETATM   22  C   UNL     1      26.838  47.357  53.922  1.00  0.00     0.030 A 
ENDBRANCH  13  16
ENDBRANCH   1  12
BRANCH   2  23
HETATM   23  C   UNL     1      25.203  48.475  49.309  1.00  0.00    -0.011 A 
HETATM   24  C   UNL     1      24.798  49.375  48.322  1.00  0.00     0.125 A 
HETATM   25  N   UNL     1      25.625  50.232  47.684  1.00  0.00    -0.272 NA
HETATM   26  C   UNL     1      26.926  50.197  48.039  1.00  0.00     0.116 A 
HETATM   27  C   UNL     1      27.436  49.350  49.008  1.00  0.00     0.020 A 
HETATM   28  C   UNL     1      26.561  48.479  49.651  1.00  0.00     0.012 A 
ENDBRANCH   2  23
TORSDOF 3
ENDMDL
MODEL 5
REMARK VINA RESULT:      -8.0      2.714      5.232
REMARK  3 active torsions:
REMARK  status: ('A' for Active; 'I' for Inactive)
REMARK    1  A    between atoms: C_5  and  N_6 
REMARK       I    between atoms: N_6  and  C_7 
REMARK    2  A    between atoms: C_7  and  C_8 
REMARK    3  A    between atoms: C_9  and  C_10 
ROOT
HETATM    1  C   UNL     1      26.061  42.173  49.251  1.00  0.00     0.062 C 
HETATM    2  C   UNL     1      26.795  41.391  48.150  1.00  0.00     0.199 C 
HETATM    3  N   UNL     1      25.884  41.081  47.053  1.00  0.00    -0.092 N 
HETATM    4  C   UNL     1      24.522  41.162  47.135  1.00  0.00     0.735 A 
HETATM    5  N   UNL     1      23.963  41.601  48.281  1.00  0.00    -0.191 N 
HETATM    6  N   UNL     1      26.257  40.706  45.822  1.00  0.00     0.012 NA
HETATM    7  N   UNL     1      25.112  40.508  45.176  1.00  0.00     0.033 NA
HETATM    8  N   UNL     1      24.023  40.788  45.983  1.00  0.00     0.030 NA
HETATM    9  C   UNL     1      24.703  42.180  49.311  1.00  0.00     0.037 C 
HETATM   10  C   UNL     1      23.889  42.749  50.446  1.00  0.00     0.070 C 
HETATM   11  H   UNL     1      22.949  41.689  48.322  1.00  0.00     0.184 HD
ENDROOT
BRANCH   1  12
HETATM   12  C   UNL     1      26.983  42.889  50.186  1.00  0.00     0.256 C 
HETATM   13  N   UNL     1      27.204  42.233  51.378  1.00  0.00    -0.323 N 
HETATM   14  H   UNL     1      26.763  41.333  51.512  1.00  0.00     0.169 HD
HETATM   15  O   UNL     1      27.388  44.004  49.887  1.00  0.00    -0.267 OA
BRANCH  13  16
HETATM   16  C   UNL     1      28.020  42.666  52.448  1.00  0.00     0.035 A 
HETATM   17  C   UNL     1      27.578  43.486  53.486  1.00  0.00     0.030 A 
HETATM   18  C   UNL     1      28.453  43.878  54.505  1.00  0.00     0.009 A 
HETATM   19  C   UNL     1      29.787  43.463  54.502  1.00  0.00    -0.062 A 
HETATM   20  C   UNL     1      30.724  43.931  55.574  1.00  0.00     0.048 C 
HETATM   21  C   UNL     1      30.235  42.650  53.457  1.00  0.00     0.009 A 
HETATM   22  C   UNL     1      29.356  42.244  52.447  1.00  0.00     0.030 A 
ENDBRANCH  13  16
ENDBRANCH   1  12
BRANCH   2  23
HETATM   23  C   UNL     1      27.429  40.103  48.656  1.00  0.00    -0.011 A 
HETATM   24  C   UNL     1      26.664  39.038  49.133  1.00  0.00     0.125 A 
HETATM   25  N   UNL     1      27.178  37.887  49.622  1.00  0.00    -0.272 NA
HETATM   26  C   UNL     1      28.523  37.784  49.642  1.00  0.00     0.116 A 
HETATM   27  C   UNL     1      29.377  38.775  49.190  1.00  0.00     0.020 A 
HETATM   28  C   UNL     1      28.821  39.949  48.689  1.00  0.00     0.012 A 
ENDBRANCH   2  23
TORSDOF 3
ENDMDL
MODEL 6
REMARK VINA RESULT:      -7.8     12.663     15.742
REMARK  3 active torsions:
REMARK  status: ('A' for Active; 'I' for Inactive)
REMARK    1  A    between atoms: C_5  and  N_6 
REMARK       I    between atoms: N_6  and  C_7 
REMARK    2  A    between atoms: C_7  and  C_8 
REMARK    3  A    between atoms: C_9  and  C_10 
ROOT
HETATM    1  C   UNL     1      31.551  49.570  40.447  1.00  0.00     0.062 C 
HETATM    2  C   UNL     1      31.933  50.635  39.408  1.00  0.00     0.199 C 
HETATM    3  N   UNL     1      33.088  51.400  39.864  1.00  0.00    -0.092 N 
HETATM    4  C   UNL     1      33.547  51.410  41.151  1.00  0.00     0.735 A 
HETATM    5  N   UNL     1      32.935  50.632  42.068  1.00  0.00    -0.191 N 
HETATM    6  N   UNL     1      33.865  52.166  39.085  1.00  0.00     0.012 NA
HETATM    7  N   UNL     1      34.762  52.683  39.919  1.00  0.00     0.033 NA
HETATM    8  N   UNL     1      34.575  52.220  41.211  1.00  0.00     0.030 NA
HETATM    9  C   UNL     1      31.999  49.657  41.728  1.00  0.00     0.037 C 
HETATM   10  C   UNL     1      31.538  48.783  42.868  1.00  0.00     0.070 C 
HETATM   11  H   UNL     1      33.304  50.621  43.017  1.00  0.00     0.184 HD
ENDROOT
BRANCH   1  12
HETATM   12  C   UNL     1      30.680  48.487  39.895  1.00  0.00     0.256 C 
HETATM   13  N   UNL     1      29.338  48.638  40.177  1.00  0.00    -0.323 N 
HETATM   14  H   UNL     1      29.053  49.458  40.695  1.00  0.00     0.169 HD
HETATM   15  O   UNL     1      31.199  47.531  39.336  1.00  0.00    -0.267 OA
BRANCH  13  16
HETATM   16  C   UNL     1      28.287  47.776  39.792  1.00  0.00     0.035 A 
HETATM   17  C   UNL     1      27.563  47.908  38.607  1.00  0.00     0.030 A 
HETATM   18  C   UNL     1      26.527  47.017  38.302  1.00  0.00     0.009 A 
HETATM   19  C   UNL     1      26.195  45.981  39.179  1.00  0.00    -0.062 A 
HETATM   20  C   UNL     1      25.051  45.064  38.861  1.00  0.00     0.048 C 
HETATM   21  C   UNL     1      26.912  45.853  40.372  1.00  0.00     0.009 A 
HETATM   22  C   UNL     1      27.957  46.734  40.668  1.00  0.00     0.030 A 
ENDBRANCH  13  16
ENDBRANCH   1  12
BRANCH   2  23
HETATM   23  C   UNL     1      30.793  51.590  39.086  1.00  0.00    -0.011 A 
HETATM   24  C   UNL     1      30.206  51.644  37.821  1.00  0.00     0.125 A 
HETATM   25  N   UNL     1      29.214  52.494  37.474  1.00  0.00    -0.272 NA
HETATM   26  C   UNL     1      28.778  53.340  38.431  1.00  0.00     0.116 A 
HETATM   27  C   UNL     1      29.283  53.369  39.719  1.00  0.00     0.020 A 
HETATM   28  C   UNL     1      30.303  52.481  40.049  1.00  0.00     0.012 A 
ENDBRANCH   2  23
TORSDOF 3
ENDMDL
MODEL 7
REMARK VINA RESULT:      -7.6     15.830     17.813
REMARK  3 active torsions:
REMARK  status: ('A' for Active; 'I' for Inactive)
REMARK    1  A    between atoms: C_5  and  N_6 
REMARK       I    between atoms: N_6  and  C_7 
REMARK    2  A    between atoms: C_7  and  C_8 
REMARK    3  A    between atoms: C_9  and  C_10 
ROOT
HETATM    1  C   UNL     1      38.775  43.378  65.333  1.00  0.00     0.062 C 
HETATM    2  C   UNL     1      37.657  44.116  66.084  1.00  0.00     0.199 C 
HETATM    3  N   UNL     1      36.435  43.318  66.090  1.00  0.00    -0.092 N 
HETATM    4  C   UNL     1      36.209  42.248  65.271  1.00  0.00     0.735 A 
HETATM    5  N   UNL     1      37.184  41.856  64.425  1.00  0.00    -0.191 N 
HETATM    6  N   UNL     1      35.393  43.507  66.912  1.00  0.00     0.012 NA
HETATM    7  N   UNL     1      34.513  42.579  66.547  1.00  0.00     0.033 NA
HETATM    8  N   UNL     1      35.009  41.788  65.525  1.00  0.00     0.030 NA
HETATM    9  C   UNL     1      38.486  42.348  64.492  1.00  0.00     0.037 C 
HETATM   10  C   UNL     1      39.473  41.683  63.566  1.00  0.00     0.070 C 
HETATM   11  H   UNL     1      37.018  41.039  63.841  1.00  0.00     0.184 HD
ENDROOT
BRANCH   1  12
HETATM   12  C   UNL     1      40.142  43.903  65.636  1.00  0.00     0.256 C 
HETATM   13  N   UNL     1      40.574  44.891  64.776  1.00  0.00    -0.323 N 
HETATM   14  H   UNL     1      39.942  45.194  64.047  1.00  0.00     0.169 HD
HETATM   15  O   UNL     1      40.798  43.382  66.528  1.00  0.00    -0.267 OA
BRANCH  13  16
HETATM   16  C   UNL     1      41.815  45.568  64.814  1.00  0.00     0.035 A 
HETATM   17  C   UNL     1      42.870  45.315  63.938  1.00  0.00     0.030 A 
HETATM   18  C   UNL     1      44.072  46.023  64.047  1.00  0.00     0.009 A 
HETATM   19  C   UNL     1      44.241  46.994  65.037  1.00  0.00    -0.062 A 
HETATM   20  C   UNL     1      45.551  47.711  65.172  1.00  0.00     0.048 C 
HETATM   21  C   UNL     1      43.189  47.243  65.923  1.00  0.00     0.009 A 
HETATM   22  C   UNL     1      41.982  46.545  65.802  1.00  0.00     0.030 A 
ENDBRANCH  13  16
ENDBRANCH   1  12
BRANCH   2  23
HETATM   23  C   UNL     1      37.356  45.490  65.504  1.00  0.00    -0.011 A 
HETATM   24  C   UNL     1      36.864  45.657  64.209  1.00  0.00     0.125 A 
HETATM   25  N   UNL     1      36.611  46.855  63.636  1.00  0.00    -0.272 NA
HETATM   26  C   UNL     1      36.859  47.950  64.384  1.00  0.00     0.116 A 
HETATM   27  C   UNL     1      37.342  47.902  65.681  1.00  0.00     0.020 A 
HETATM   28  C   UNL     1      37.591  46.655  66.247  1.00  0.00     0.012 A 
ENDBRANCH   2  23
TORSDOF 3
ENDMDL
MODEL 8
REMARK VINA RESULT:      -7.5     13.368     15.007
REMARK  3 active torsions:
REMARK  status: ('A' for Active; 'I' for Inactive)
REMARK    1  A    between atoms: C_5  and  N_6 
REMARK       I    between atoms: N_6  and  C_7 
REMARK    2  A    between atoms: C_7  and  C_8 
REMARK    3  A    between atoms: C_9  and  C_10 
ROOT
HETATM    1  C   UNL     1      31.390  51.467  41.181  1.00  0.00     0.062 C 
HETATM    2  C   UNL     1      31.155  50.799  39.818  1.00  0.00     0.199 C 
HETATM    3  N   UNL     1      30.236  51.596  39.012  1.00  0.00    -0.092 N 
HETATM    4  C   UNL     1      29.440  52.590  39.507  1.00  0.00     0.735 A 
HETATM    5  N   UNL     1      29.526  52.904  40.816  1.00  0.00    -0.191 N 
HETATM    6  N   UNL     1      30.072  51.482  37.687  1.00  0.00     0.012 NA
HETATM    7  N   UNL     1      29.131  52.374  37.392  1.00  0.00     0.033 NA
HETATM    8  N   UNL     1      28.728  53.072  38.518  1.00  0.00     0.030 NA
HETATM    9  C   UNL     1      30.536  52.419  41.645  1.00  0.00     0.037 C 
HETATM   10  C   UNL     1      30.559  52.999  43.037  1.00  0.00     0.070 C 
HETATM   11  H   UNL     1      28.952  53.667  41.170  1.00  0.00     0.184 HD
ENDROOT
BRANCH   1  12
HETATM   12  C   UNL     1      32.612  50.969  41.885  1.00  0.00     0.256 C 
HETATM   13  N   UNL     1      33.718  51.781  41.745  1.00  0.00    -0.323 N 
HETATM   14  H   UNL     1      33.612  52.637  41.218  1.00  0.00     0.169 HD
HETATM   15  O   UNL     1      32.580  49.877  42.435  1.00  0.00    -0.267 OA
BRANCH  13  16
HETATM   16  C   UNL     1      35.004  51.567  42.292  1.00  0.00     0.035 A 
HETATM   17  C   UNL     1      35.451  52.136  43.484  1.00  0.00     0.030 A 
HETATM   18  C   UNL     1      36.744  51.882  43.953  1.00  0.00     0.009 A 
HETATM   19  C   UNL     1      37.615  51.057  43.237  1.00  0.00    -0.062 A 
HETATM   20  C   UNL     1      39.014  50.833  43.728  1.00  0.00     0.048 C 
HETATM   21  C   UNL     1      37.174  50.494  42.036  1.00  0.00     0.009 A 
HETATM   22  C   UNL     1      35.875  50.736  41.576  1.00  0.00     0.030 A 
ENDBRANCH  13  16
ENDBRANCH   1  12
BRANCH   2  23
HETATM   23  C   UNL     1      30.621  49.379  39.934  1.00  0.00    -0.011 A 
HETATM   24  C   UNL     1      31.093  48.342  39.129  1.00  0.00     0.125 A 
HETATM   25  N   UNL     1      30.631  47.072  39.169  1.00  0.00    -0.272 NA
HETATM   26  C   UNL     1      29.645  46.813  40.054  1.00  0.00     0.116 A 
HETATM   27  C   UNL     1      29.107  47.763  40.904  1.00  0.00     0.020 A 
HETATM   28  C   UNL     1      29.604  49.062  40.843  1.00  0.00     0.012 A 
ENDBRANCH   2  23
TORSDOF 3
ENDMDL
MODEL 9
REMARK VINA RESULT:      -7.3      8.738     12.353
REMARK  3 active torsions:
REMARK  status: ('A' for Active; 'I' for Inactive)
REMARK    1  A    between atoms: C_5  and  N_6 
REMARK       I    between atoms: N_6  and  C_7 
REMARK    2  A    between atoms: C_7  and  C_8 
REMARK    3  A    between atoms: C_9  and  C_10 
ROOT
HETATM    1  C   UNL     1      20.293  47.988  47.639  1.00  0.00     0.062 C 
HETATM    2  C   UNL     1      20.850  49.415  47.755  1.00  0.00     0.199 C 
HETATM    3  N   UNL     1      22.153  49.400  48.413  1.00  0.00    -0.092 N 
HETATM    4  C   UNL     1      22.646  48.342  49.123  1.00  0.00     0.735 A 
HETATM    5  N   UNL     1      21.918  47.208  49.195  1.00  0.00    -0.191 N 
HETATM    6  N   UNL     1      23.044  50.401  48.386  1.00  0.00     0.012 NA
HETATM    7  N   UNL     1      24.056  49.963  49.130  1.00  0.00     0.033 NA
HETATM    8  N   UNL     1      23.820  48.681  49.596  1.00  0.00     0.030 NA
HETATM    9  C   UNL     1      20.791  46.982  48.406  1.00  0.00     0.037 C 
HETATM   10  C   UNL     1      20.198  45.600  48.514  1.00  0.00     0.070 C 
HETATM   11  H   UNL     1      22.308  46.414  49.700  1.00  0.00     0.184 HD
ENDROOT
BRANCH   1  12
HETATM   12  C   UNL     1      19.200  47.858  46.626  1.00  0.00     0.256 C 
HETATM   13  N   UNL     1      17.927  47.917  47.153  1.00  0.00    -0.323 N 
HETATM   14  H   UNL     1      17.834  48.067  48.149  1.00  0.00     0.169 HD
HETATM   15  O   UNL     1      19.491  47.624  45.462  1.00  0.00    -0.267 OA
BRANCH  13  16
HETATM   16  C   UNL     1      16.708  47.820  46.444  1.00  0.00     0.035 A 
HETATM   17  C   UNL     1      16.521  47.021  45.316  1.00  0.00     0.030 A 
HETATM   18  C   UNL     1      15.284  46.989  44.664  1.00  0.00     0.009 A 
HETATM   19  C   UNL     1      14.212  47.758  45.125  1.00  0.00    -0.062 A 
HETATM   20  C   UNL     1      12.907  47.749  44.387  1.00  0.00     0.048 C 
HETATM   21  C   UNL     1      14.400  48.568  46.249  1.00  0.00     0.009 A 
HETATM   22  C   UNL     1      15.633  48.587  46.910  1.00  0.00     0.030 A 
ENDBRANCH  13  16
ENDBRANCH   1  12
BRANCH   2  23
HETATM   23  C   UNL     1      19.921  50.360  48.502  1.00  0.00    -0.011 A 
HETATM   24  C   UNL     1      19.290  49.992  49.692  1.00  0.00     0.125 A 
HETATM   25  N   UNL     1      18.432  50.780  50.378  1.00  0.00    -0.272 NA
HETATM   26  C   UNL     1      18.182  52.000  49.858  1.00  0.00     0.116 A 
HETATM   27  C   UNL     1      18.755  52.470  48.689  1.00  0.00     0.020 A 
HETATM   28  C   UNL     1      19.637  51.638  48.005  1.00  0.00     0.012 A 
ENDBRANCH   2  23
TORSDOF 3
ENDMDL
MODEL 10
REMARK VINA RESULT:      -7.0     13.342     14.546
REMARK  3 active torsions:
REMARK  status: ('A' for Active; 'I' for Inactive)
REMARK    1  A    between atoms: C_5  and  N_6 
REMARK       I    between atoms: N_6  and  C_7 
REMARK    2  A    between atoms: C_7  and  C_8 
REMARK    3  A    between atoms: C_9  and  C_10 
ROOT
HETATM    1  C   UNL     1      28.210  49.822  39.297  1.00  0.00     0.062 C 
HETATM    2  C   UNL     1      27.763  48.719  38.325  1.00  0.00     0.199 C 
HETATM    3  N   UNL     1      26.351  48.878  37.991  1.00  0.00    -0.092 N 
HETATM    4  C   UNL     1      25.477  49.663  38.689  1.00  0.00     0.735 A 
HETATM    5  N   UNL     1      25.938  50.385  39.731  1.00  0.00    -0.191 N 
HETATM    6  N   UNL     1      25.734  48.304  36.949  1.00  0.00     0.012 NA
HETATM    7  N   UNL     1      24.470  48.703  37.053  1.00  0.00     0.033 NA
HETATM    8  N   UNL     1      24.296  49.550  38.134  1.00  0.00     0.030 NA
HETATM    9  C   UNL     1      27.296  50.541  40.002  1.00  0.00     0.037 C 
HETATM   10  C   UNL     1      27.624  51.505  41.114  1.00  0.00     0.070 C 
HETATM   11  H   UNL     1      25.286  50.991  40.226  1.00  0.00     0.184 HD
ENDROOT
BRANCH   1  12
HETATM   12  C   UNL     1      29.695  49.995  39.356  1.00  0.00     0.256 C 
HETATM   13  N   UNL     1      30.238  49.814  40.610  1.00  0.00    -0.323 N 
HETATM   14  H   UNL     1      29.614  49.558  41.364  1.00  0.00     0.169 HD
HETATM   15  O   UNL     1      30.293  50.362  38.354  1.00  0.00    -0.267 OA
BRANCH  13  16
HETATM   16  C   UNL     1      31.602  49.916  40.969  1.00  0.00     0.035 A 
HETATM   17  C   UNL     1      32.481  48.834  41.012  1.00  0.00     0.030 A 
HETATM   18  C   UNL     1      33.816  49.017  41.387  1.00  0.00     0.009 A 
HETATM   19  C   UNL     1      34.296  50.283  41.729  1.00  0.00    -0.062 A 
HETATM   20  C   UNL     1      35.717  50.455  42.175  1.00  0.00     0.048 C 
HETATM   21  C   UNL     1      33.415  51.368  41.697  1.00  0.00     0.009 A 
HETATM   22  C   UNL     1      32.083  51.187  41.306  1.00  0.00     0.030 A 
ENDBRANCH  13  16
ENDBRANCH   1  12
BRANCH   2  23
HETATM   23  C   UNL     1      27.996  47.317  38.867  1.00  0.00    -0.011 A 
HETATM   24  C   UNL     1      28.827  46.401  38.218  1.00  0.00     0.125 A 
HETATM   25  N   UNL     1      29.043  45.135  38.639  1.00  0.00    -0.272 NA
HETATM   26  C   UNL     1      28.402  44.751  39.763  1.00  0.00     0.116 A 
HETATM   27  C   UNL     1      27.561  45.576  40.488  1.00  0.00     0.020 A 
HETATM   28  C   UNL     1      27.358  46.877  40.033  1.00  0.00     0.012 A 
ENDBRANCH   2  23
TORSDOF 3
ENDMDL
