MODEL 1
REMARK VINA RESULT:      -8.6      0.000      0.000
REMARK  8 active torsions:
REMARK  status: ('A' for Active; 'I' for Inactive)
REMARK    1  A    between atoms: C_2  and  O_3 
REMARK    2  A    between atoms: O_3  and  C_4 
REMARK    3  A    between atoms: C_6  and  O_7 
REMARK    4  A    between atoms: O_7  and  C_8 
REMARK    5  A    between atoms: C_11  and  C_12 
REMARK       I    between atoms: C_12  and  N_13 
REMARK    6  A    between atoms: N_13  and  C_14 
REMARK    7  A    between atoms: C_14  and  N_15 
REMARK    8  A    between atoms: N_15  and  C_16 
ROOT
HETATM    1  C   UNL     1      28.194  41.131  52.576  1.00  0.00     0.237 C 
HETATM    2  N   UNL     1      26.909  40.810  52.177  1.00  0.00    -0.201 NA
HETATM    3  O   UNL     1      29.102  40.307  52.571  1.00  0.00    -0.274 OA
HETATM    4  H   UNL     1      26.798  39.808  52.302  1.00  0.00     0.139 HD
ENDROOT
BRANCH   2   5
HETATM    5  C   UNL     1      26.331  41.094  50.959  1.00  0.00     0.157 C 
HETATM    6  S   UNL     1      26.486  40.202  49.554  1.00  0.00    -0.047 SA
BRANCH   5   7
HETATM    7  N   UNL     1      25.475  42.167  50.937  1.00  0.00    -0.337 N 
HETATM    8  H   UNL     1      24.510  41.906  51.119  1.00  0.00     0.168 HD
BRANCH   7   9
HETATM    9  C   UNL     1      25.692  43.526  50.609  1.00  0.00     0.036 A 
HETATM   10  C   UNL     1      24.567  44.368  50.655  1.00  0.00     0.061 A 
HETATM   11  C   UNL     1      24.746  45.685  50.291  1.00  0.00     0.065 A 
HETATM   12  C   UNL     1      25.979  46.181  49.882  1.00  0.00     0.063 A 
HETATM   13  N   UNL     1      23.826  46.726  50.232  1.00  0.00    -0.306 N 
HETATM   14  N   UNL     1      25.820  47.525  49.567  1.00  0.00    -0.307 N 
HETATM   15  C   UNL     1      27.096  45.389  49.815  1.00  0.00     0.034 A 
HETATM   16  C   UNL     1      24.480  47.880  49.777  1.00  0.00     0.325 A 
HETATM   17  H   UNL     1      26.520  48.163  49.227  1.00  0.00     0.170 HD
HETATM   18  O   UNL     1      23.979  48.975  49.595  1.00  0.00    -0.247 OA
HETATM   19  C   UNL     1      26.939  44.042  50.180  1.00  0.00     0.032 A 
HETATM   20  H   UNL     1      22.844  46.693  50.455  1.00  0.00     0.170 HD
ENDBRANCH   7   9
ENDBRANCH   5   7
ENDBRANCH   2   5
BRANCH   1  21
HETATM   21  C   UNL     1      28.319  42.386  53.356  1.00  0.00     0.032 A 
HETATM   22  C   UNL     1      29.603  42.702  53.819  1.00  0.00     0.053 A 
HETATM   23  C   UNL     1      29.792  43.825  54.614  1.00  0.00     0.072 A 
HETATM   24  C   UNL     1      28.702  44.628  54.946  1.00  0.00     0.073 A 
HETATM   25  C   UNL     1      27.425  44.341  54.454  1.00  0.00     0.072 A 
HETATM   26  C   UNL     1      27.229  43.204  53.667  1.00  0.00     0.053 A 
BRANCH  23  27
HETATM   27  O   UNL     1      30.992  44.154  55.177  1.00  0.00    -0.351 OA
BRANCH  27  28
HETATM   28  C   UNL     1      30.966  44.299  56.601  1.00  0.00     0.171 C 
HETATM   29  C   UNL     1      31.700  43.141  57.254  1.00  0.00     0.034 C 
ENDBRANCH  27  28
ENDBRANCH  23  27
BRANCH  25  30
HETATM   30  O   UNL     1      26.466  45.244  54.821  1.00  0.00    -0.351 OA
BRANCH  30  31
HETATM   31  C   UNL     1      26.751  46.628  54.622  1.00  0.00     0.171 C 
HETATM   32  C   UNL     1      25.875  47.121  53.483  1.00  0.00     0.034 C 
ENDBRANCH  30  31
ENDBRANCH  25  30
ENDBRANCH   1  21
TORSDOF 8
ENDMDL
MODEL 2
REMARK VINA RESULT:      -8.3      0.365      2.972
REMARK  8 active torsions:
REMARK  status: ('A' for Active; 'I' for Inactive)
REMARK    1  A    between atoms: C_2  and  O_3 
REMARK    2  A    between atoms: O_3  and  C_4 
REMARK    3  A    between atoms: C_6  and  O_7 
REMARK    4  A    between atoms: O_7  and  C_8 
REMARK    5  A    between atoms: C_11  and  C_12 
REMARK       I    between atoms: C_12  and  N_13 
REMARK    6  A    between atoms: N_13  and  C_14 
REMARK    7  A    between atoms: C_14  and  N_15 
REMARK    8  A    between atoms: N_15  and  C_16 
ROOT
HETATM    1  C   UNL     1      28.238  41.126  52.669  1.00  0.00     0.237 C 
HETATM    2  N   UNL     1      26.946  40.894  52.232  1.00  0.00    -0.201 NA
HETATM    3  O   UNL     1      29.107  40.263  52.618  1.00  0.00    -0.274 OA
HETATM    4  H   UNL     1      26.788  39.892  52.286  1.00  0.00     0.139 HD
ENDROOT
BRANCH   2   5
HETATM    5  C   UNL     1      26.401  41.288  51.030  1.00  0.00     0.157 C 
HETATM    6  S   UNL     1      26.596  40.529  49.554  1.00  0.00    -0.047 SA
BRANCH   5   7
HETATM    7  N   UNL     1      25.543  42.359  51.084  1.00  0.00    -0.337 N 
HETATM    8  H   UNL     1      24.607  42.099  51.383  1.00  0.00     0.168 HD
BRANCH   7   9
HETATM    9  C   UNL     1      25.713  43.711  50.703  1.00  0.00     0.036 A 
HETATM   10  C   UNL     1      24.575  44.532  50.783  1.00  0.00     0.061 A 
HETATM   11  C   UNL     1      24.707  45.839  50.369  1.00  0.00     0.065 A 
HETATM   12  C   UNL     1      25.905  46.346  49.880  1.00  0.00     0.063 A 
HETATM   13  N   UNL     1      23.763  46.860  50.328  1.00  0.00    -0.306 N 
HETATM   14  N   UNL     1      25.702  47.675  49.532  1.00  0.00    -0.307 N 
HETATM   15  C   UNL     1      27.034  45.574  49.777  1.00  0.00     0.034 A 
HETATM   16  C   UNL     1      24.367  48.011  49.802  1.00  0.00     0.325 A 
HETATM   17  H   UNL     1      26.369  48.316  49.135  1.00  0.00     0.170 HD
HETATM   18  O   UNL     1      23.835  49.090  49.613  1.00  0.00    -0.247 OA
HETATM   19  C   UNL     1      26.925  44.237  50.192  1.00  0.00     0.032 A 
HETATM   20  H   UNL     1      22.795  46.815  50.603  1.00  0.00     0.170 HD
ENDBRANCH   7   9
ENDBRANCH   5   7
ENDBRANCH   2   5
BRANCH   1  21
HETATM   21  C   UNL     1      28.409  42.317  53.536  1.00  0.00     0.032 A 
HETATM   22  C   UNL     1      27.274  43.116  53.721  1.00  0.00     0.053 A 
HETATM   23  C   UNL     1      27.368  44.286  54.464  1.00  0.00     0.072 A 
HETATM   24  C   UNL     1      28.593  44.655  55.018  1.00  0.00     0.073 A 
HETATM   25  C   UNL     1      29.721  43.842  54.870  1.00  0.00     0.072 A 
HETATM   26  C   UNL     1      29.633  42.673  54.111  1.00  0.00     0.053 A 
BRANCH  23  27
HETATM   27  O   UNL     1      26.333  45.163  54.618  1.00  0.00    -0.351 OA
BRANCH  27  28
HETATM   28  C   UNL     1      26.718  46.541  54.670  1.00  0.00     0.171 C 
HETATM   29  C   UNL     1      26.341  47.233  53.372  1.00  0.00     0.034 C 
ENDBRANCH  27  28
ENDBRANCH  23  27
BRANCH  25  30
HETATM   30  O   UNL     1      30.836  44.307  55.510  1.00  0.00    -0.351 OA
BRANCH  30  31
HETATM   31  C   UNL     1      31.411  43.479  56.520  1.00  0.00     0.171 C 
HETATM   32  C   UNL     1      31.318  44.227  57.839  1.00  0.00     0.034 C 
ENDBRANCH  30  31
ENDBRANCH  25  30
ENDBRANCH   1  21
TORSDOF 8
ENDMDL
MODEL 3
REMARK VINA RESULT:      -8.1      2.941      7.453
REMARK  8 active torsions:
REMARK  status: ('A' for Active; 'I' for Inactive)
REMARK    1  A    between atoms: C_2  and  O_3 
REMARK    2  A    between atoms: O_3  and  C_4 
REMARK    3  A    between atoms: C_6  and  O_7 
REMARK    4  A    between atoms: O_7  and  C_8 
REMARK    5  A    between atoms: C_11  and  C_12 
REMARK       I    between atoms: C_12  and  N_13 
REMARK    6  A    between atoms: N_13  and  C_14 
REMARK    7  A    between atoms: C_14  and  N_15 
REMARK    8  A    between atoms: N_15  and  C_16 
ROOT
HETATM    1  C   UNL     1      25.245  44.263  52.597  1.00  0.00     0.237 C 
HETATM    2  N   UNL     1      25.794  43.055  52.206  1.00  0.00    -0.201 NA
HETATM    3  O   UNL     1      24.938  44.492  53.761  1.00  0.00    -0.274 OA
HETATM    4  H   UNL     1      25.505  42.361  52.888  1.00  0.00     0.139 HD
ENDROOT
BRANCH   2   5
HETATM    5  C   UNL     1      27.125  42.798  51.961  1.00  0.00     0.157 C 
HETATM    6  S   UNL     1      27.747  41.490  51.126  1.00  0.00    -0.047 SA
BRANCH   5   7
HETATM    7  N   UNL     1      28.008  43.765  52.373  1.00  0.00    -0.337 N 
HETATM    8  H   UNL     1      28.152  44.490  51.675  1.00  0.00     0.168 HD
BRANCH   7   9
HETATM    9  C   UNL     1      28.809  43.864  53.535  1.00  0.00     0.036 A 
HETATM   10  C   UNL     1      28.529  44.937  54.399  1.00  0.00     0.061 A 
HETATM   11  C   UNL     1      29.329  45.080  55.511  1.00  0.00     0.065 A 
HETATM   12  C   UNL     1      30.383  44.215  55.784  1.00  0.00     0.063 A 
HETATM   13  N   UNL     1      29.292  46.038  56.518  1.00  0.00    -0.306 N 
HETATM   14  N   UNL     1      30.999  44.640  56.954  1.00  0.00    -0.307 N 
HETATM   15  C   UNL     1      30.693  43.163  54.960  1.00  0.00     0.034 A 
HETATM   16  C   UNL     1      30.332  45.781  57.424  1.00  0.00     0.325 A 
HETATM   17  H   UNL     1      31.800  44.235  57.409  1.00  0.00     0.170 HD
HETATM   18  O   UNL     1      30.604  46.425  58.420  1.00  0.00    -0.247 OA
HETATM   19  C   UNL     1      29.892  42.997  53.819  1.00  0.00     0.032 A 
HETATM   20  H   UNL     1      28.654  46.812  56.608  1.00  0.00     0.170 HD
ENDBRANCH   7   9
ENDBRANCH   5   7
ENDBRANCH   2   5
BRANCH   1  21
HETATM   21  C   UNL     1      24.704  45.098  51.497  1.00  0.00     0.032 A 
HETATM   22  C   UNL     1      23.853  44.453  50.591  1.00  0.00     0.053 A 
HETATM   23  C   UNL     1      23.359  45.149  49.495  1.00  0.00     0.072 A 
HETATM   24  C   UNL     1      23.716  46.482  49.304  1.00  0.00     0.073 A 
HETATM   25  C   UNL     1      24.534  47.144  50.226  1.00  0.00     0.072 A 
HETATM   26  C   UNL     1      25.045  46.443  51.321  1.00  0.00     0.053 A 
BRANCH  23  27
HETATM   27  O   UNL     1      22.596  44.571  48.520  1.00  0.00    -0.351 OA
BRANCH  27  28
HETATM   28  C   UNL     1      21.634  45.443  47.917  1.00  0.00     0.171 C 
HETATM   29  C   UNL     1      20.275  45.244  48.565  1.00  0.00     0.034 C 
ENDBRANCH  27  28
ENDBRANCH  23  27
BRANCH  25  30
HETATM   30  O   UNL     1      24.757  48.461  49.935  1.00  0.00    -0.351 OA
BRANCH  30  31
HETATM   31  C   UNL     1      24.034  49.028  48.843  1.00  0.00     0.171 C 
HETATM   32  C   UNL     1      24.966  49.984  48.119  1.00  0.00     0.034 C 
ENDBRANCH  30  31
ENDBRANCH  25  30
ENDBRANCH   1  21
TORSDOF 8
ENDMDL
MODEL 4
REMARK VINA RESULT:      -8.1      2.876      7.029
REMARK  8 active torsions:
REMARK  status: ('A' for Active; 'I' for Inactive)
REMARK    1  A    between atoms: C_2  and  O_3 
REMARK    2  A    between atoms: O_3  and  C_4 
REMARK    3  A    between atoms: C_6  and  O_7 
REMARK    4  A    between atoms: O_7  and  C_8 
REMARK    5  A    between atoms: C_11  and  C_12 
REMARK       I    between atoms: C_12  and  N_13 
REMARK    6  A    between atoms: N_13  and  C_14 
REMARK    7  A    between atoms: C_14  and  N_15 
REMARK    8  A    between atoms: N_15  and  C_16 
ROOT
HETATM    1  C   UNL     1      25.130  44.023  52.246  1.00  0.00     0.237 C 
HETATM    2  N   UNL     1      25.715  42.834  51.848  1.00  0.00    -0.201 NA
HETATM    3  O   UNL     1      24.728  44.201  53.391  1.00  0.00    -0.274 OA
HETATM    4  H   UNL     1      25.375  42.110  52.474  1.00  0.00     0.139 HD
ENDROOT
BRANCH   2   5
HETATM    5  C   UNL     1      27.062  42.590  51.701  1.00  0.00     0.157 C 
HETATM    6  S   UNL     1      27.757  41.251  50.981  1.00  0.00    -0.047 SA
BRANCH   5   7
HETATM    7  N   UNL     1      27.902  43.597  52.110  1.00  0.00    -0.337 N 
HETATM    8  H   UNL     1      28.016  44.324  51.410  1.00  0.00     0.168 HD
BRANCH   7   9
HETATM    9  C   UNL     1      28.695  43.734  53.273  1.00  0.00     0.036 A 
HETATM   10  C   UNL     1      28.344  44.774  54.152  1.00  0.00     0.061 A 
HETATM   11  C   UNL     1      29.134  44.956  55.265  1.00  0.00     0.065 A 
HETATM   12  C   UNL     1      30.245  44.162  55.526  1.00  0.00     0.063 A 
HETATM   13  N   UNL     1      29.033  45.897  56.285  1.00  0.00    -0.306 N 
HETATM   14  N   UNL     1      30.831  44.613  56.702  1.00  0.00    -0.307 N 
HETATM   15  C   UNL     1      30.625  43.145  54.689  1.00  0.00     0.034 A 
HETATM   16  C   UNL     1      30.089  45.699  57.187  1.00  0.00     0.325 A 
HETATM   17  H   UNL     1      31.659  44.257  57.151  1.00  0.00     0.170 HD
HETATM   18  O   UNL     1      30.317  46.347  58.191  1.00  0.00    -0.247 OA
HETATM   19  C   UNL     1      29.836  42.940  53.545  1.00  0.00     0.032 A 
HETATM   20  H   UNL     1      28.343  46.624  56.386  1.00  0.00     0.170 HD
ENDBRANCH   7   9
ENDBRANCH   5   7
ENDBRANCH   2   5
BRANCH   1  21
HETATM   21  C   UNL     1      24.675  44.904  51.143  1.00  0.00     0.032 A 
HETATM   22  C   UNL     1      25.268  46.171  51.077  1.00  0.00     0.053 A 
HETATM   23  C   UNL     1      24.848  47.080  50.114  1.00  0.00     0.072 A 
HETATM   24  C   UNL     1      23.837  46.724  49.223  1.00  0.00     0.073 A 
HETATM   25  C   UNL     1      23.267  45.448  49.258  1.00  0.00     0.072 A 
HETATM   26  C   UNL     1      23.677  44.537  50.234  1.00  0.00     0.053 A 
BRANCH  23  27
HETATM   27  O   UNL     1      25.313  48.362  50.038  1.00  0.00    -0.351 OA
BRANCH  27  28
HETATM   28  C   UNL     1      26.651  48.485  49.545  1.00  0.00     0.171 C 
HETATM   29  C   UNL     1      26.725  49.605  48.521  1.00  0.00     0.034 C 
ENDBRANCH  27  28
ENDBRANCH  23  27
BRANCH  25  30
HETATM   30  O   UNL     1      22.326  45.226  48.292  1.00  0.00    -0.351 OA
BRANCH  30  31
HETATM   31  C   UNL     1      20.996  44.936  48.719  1.00  0.00     0.171 C 
HETATM   32  C   UNL     1      20.194  46.223  48.641  1.00  0.00     0.034 C 
ENDBRANCH  30  31
ENDBRANCH  25  30
ENDBRANCH   1  21
TORSDOF 8
ENDMDL
MODEL 5
REMARK VINA RESULT:      -8.0      1.788      2.247
REMARK  8 active torsions:
REMARK  status: ('A' for Active; 'I' for Inactive)
REMARK    1  A    between atoms: C_2  and  O_3 
REMARK    2  A    between atoms: O_3  and  C_4 
REMARK    3  A    between atoms: C_6  and  O_7 
REMARK    4  A    between atoms: O_7  and  C_8 
REMARK    5  A    between atoms: C_11  and  C_12 
REMARK       I    between atoms: C_12  and  N_13 
REMARK    6  A    between atoms: N_13  and  C_14 
REMARK    7  A    between atoms: C_14  and  N_15 
REMARK    8  A    between atoms: N_15  and  C_16 
ROOT
HETATM    1  C   UNL     1      27.370  42.996  53.435  1.00  0.00     0.237 C 
HETATM    2  N   UNL     1      26.108  43.290  52.949  1.00  0.00    -0.201 NA
HETATM    3  O   UNL     1      27.755  41.843  53.593  1.00  0.00    -0.274 OA
HETATM    4  H   UNL     1      25.515  42.492  53.157  1.00  0.00     0.139 HD
ENDROOT
BRANCH   2   5
HETATM    5  C   UNL     1      25.789  43.660  51.662  1.00  0.00     0.157 C 
HETATM    6  S   UNL     1      26.221  42.857  50.261  1.00  0.00    -0.047 SA
BRANCH   5   7
HETATM    7  N   UNL     1      24.959  44.747  51.539  1.00  0.00    -0.337 N 
HETATM    8  H   UNL     1      24.034  44.582  51.927  1.00  0.00     0.168 HD
BRANCH   7   9
HETATM    9  C   UNL     1      25.138  45.989  50.886  1.00  0.00     0.036 A 
HETATM   10  C   UNL     1      24.067  46.442  50.096  1.00  0.00     0.061 A 
HETATM   11  C   UNL     1      24.240  47.624  49.412  1.00  0.00     0.065 A 
HETATM   12  C   UNL     1      25.423  48.354  49.478  1.00  0.00     0.063 A 
HETATM   13  N   UNL     1      23.370  48.297  48.561  1.00  0.00    -0.306 N 
HETATM   14  N   UNL     1      25.284  49.473  48.666  1.00  0.00    -0.307 N 
HETATM   15  C   UNL     1      26.492  47.940  50.229  1.00  0.00     0.034 A 
HETATM   16  C   UNL     1      24.009  49.451  48.083  1.00  0.00     0.325 A 
HETATM   17  H   UNL     1      25.968  50.191  48.487  1.00  0.00     0.170 HD
HETATM   18  O   UNL     1      23.548  50.269  47.309  1.00  0.00    -0.247 OA
HETATM   19  C   UNL     1      26.341  46.736  50.935  1.00  0.00     0.032 A 
HETATM   20  H   UNL     1      22.437  48.027  48.295  1.00  0.00     0.170 HD
ENDBRANCH   7   9
ENDBRANCH   5   7
ENDBRANCH   2   5
BRANCH   1  21
HETATM   21  C   UNL     1      28.069  44.121  54.102  1.00  0.00     0.032 A 
HETATM   22  C   UNL     1      29.344  43.844  54.610  1.00  0.00     0.053 A 
HETATM   23  C   UNL     1      30.037  44.825  55.309  1.00  0.00     0.072 A 
HETATM   24  C   UNL     1      29.455  46.077  55.500  1.00  0.00     0.073 A 
HETATM   25  C   UNL     1      28.198  46.373  54.962  1.00  0.00     0.072 A 
HETATM   26  C   UNL     1      27.494  45.384  54.272  1.00  0.00     0.053 A 
BRANCH  23  27
HETATM   27  O   UNL     1      31.244  44.609  55.909  1.00  0.00    -0.351 OA
BRANCH  27  28
HETATM   28  C   UNL     1      31.166  44.121  57.253  1.00  0.00     0.171 C 
HETATM   29  C   UNL     1      31.572  42.658  57.297  1.00  0.00     0.034 C 
ENDBRANCH  27  28
ENDBRANCH  23  27
BRANCH  25  30
HETATM   30  O   UNL     1      27.780  47.655  55.186  1.00  0.00    -0.351 OA
BRANCH  30  31
HETATM   31  C   UNL     1      26.381  47.920  55.092  1.00  0.00     0.171 C 
HETATM   32  C   UNL     1      26.022  48.906  56.191  1.00  0.00     0.034 C 
ENDBRANCH  30  31
ENDBRANCH  25  30
ENDBRANCH   1  21
TORSDOF 8
ENDMDL
MODEL 6
REMARK VINA RESULT:      -7.8      1.699      3.684
REMARK  8 active torsions:
REMARK  status: ('A' for Active; 'I' for Inactive)
REMARK    1  A    between atoms: C_2  and  O_3 
REMARK    2  A    between atoms: O_3  and  C_4 
REMARK    3  A    between atoms: C_6  and  O_7 
REMARK    4  A    between atoms: O_7  and  C_8 
REMARK    5  A    between atoms: C_11  and  C_12 
REMARK       I    between atoms: C_12  and  N_13 
REMARK    6  A    between atoms: N_13  and  C_14 
REMARK    7  A    between atoms: C_14  and  N_15 
REMARK    8  A    between atoms: N_15  and  C_16 
ROOT
HETATM    1  C   UNL     1      27.438  42.683  53.050  1.00  0.00     0.237 C 
HETATM    2  N   UNL     1      26.244  43.198  52.579  1.00  0.00    -0.201 NA
HETATM    3  O   UNL     1      27.716  41.493  52.955  1.00  0.00    -0.274 OA
HETATM    4  H   UNL     1      25.575  42.435  52.562  1.00  0.00     0.139 HD
ENDROOT
BRANCH   2   5
HETATM    5  C   UNL     1      26.052  43.880  51.398  1.00  0.00     0.157 C 
HETATM    6  S   UNL     1      26.543  43.391  49.876  1.00  0.00    -0.047 SA
BRANCH   5   7
HETATM    7  N   UNL     1      25.304  45.029  51.483  1.00  0.00    -0.337 N 
HETATM    8  H   UNL     1      24.511  44.936  52.111  1.00  0.00     0.168 HD
BRANCH   7   9
HETATM    9  C   UNL     1      25.392  46.254  50.781  1.00  0.00     0.036 A 
HETATM   10  C   UNL     1      24.240  46.660  50.084  1.00  0.00     0.061 A 
HETATM   11  C   UNL     1      24.321  47.824  49.353  1.00  0.00     0.065 A 
HETATM   12  C   UNL     1      25.486  48.580  49.285  1.00  0.00     0.063 A 
HETATM   13  N   UNL     1      23.358  48.453  48.570  1.00  0.00    -0.306 N 
HETATM   14  N   UNL     1      25.245  49.670  48.458  1.00  0.00    -0.307 N 
HETATM   15  C   UNL     1      26.631  48.211  49.942  1.00  0.00     0.034 A 
HETATM   16  C   UNL     1      23.922  49.604  48.000  1.00  0.00     0.325 A 
HETATM   17  H   UNL     1      25.892  50.396  48.195  1.00  0.00     0.170 HD
HETATM   18  O   UNL     1      23.370  50.388  47.250  1.00  0.00    -0.247 OA
HETATM   19  C   UNL     1      26.576  47.027  50.693  1.00  0.00     0.032 A 
HETATM   20  H   UNL     1      22.411  48.155  48.402  1.00  0.00     0.170 HD
ENDBRANCH   7   9
ENDBRANCH   5   7
ENDBRANCH   2   5
BRANCH   1  21
HETATM   21  C   UNL     1      28.172  43.555  53.999  1.00  0.00     0.032 A 
HETATM   22  C   UNL     1      27.462  44.646  54.514  1.00  0.00     0.053 A 
HETATM   23  C   UNL     1      28.099  45.548  55.356  1.00  0.00     0.072 A 
HETATM   24  C   UNL     1      29.442  45.361  55.679  1.00  0.00     0.073 A 
HETATM   25  C   UNL     1      30.147  44.252  55.200  1.00  0.00     0.072 A 
HETATM   26  C   UNL     1      29.513  43.352  54.341  1.00  0.00     0.053 A 
BRANCH  23  27
HETATM   27  O   UNL     1      27.505  46.683  55.830  1.00  0.00    -0.351 OA
BRANCH  27  28
HETATM   28  C   UNL     1      27.396  47.745  54.877  1.00  0.00     0.171 C 
HETATM   29  C   UNL     1      25.966  47.849  54.376  1.00  0.00     0.034 C 
ENDBRANCH  27  28
ENDBRANCH  23  27
BRANCH  25  30
HETATM   30  O   UNL     1      31.438  44.174  55.641  1.00  0.00    -0.351 OA
BRANCH  30  31
HETATM   31  C   UNL     1      31.651  44.078  57.049  1.00  0.00     0.171 C 
HETATM   32  C   UNL     1      31.357  42.646  57.464  1.00  0.00     0.034 C 
ENDBRANCH  30  31
ENDBRANCH  25  30
ENDBRANCH   1  21
TORSDOF 8
ENDMDL
MODEL 7
REMARK VINA RESULT:      -7.7      2.407      6.051
REMARK  8 active torsions:
REMARK  status: ('A' for Active; 'I' for Inactive)
REMARK    1  A    between atoms: C_2  and  O_3 
REMARK    2  A    between atoms: O_3  and  C_4 
REMARK    3  A    between atoms: C_6  and  O_7 
REMARK    4  A    between atoms: O_7  and  C_8 
REMARK    5  A    between atoms: C_11  and  C_12 
REMARK       I    between atoms: C_12  and  N_13 
REMARK    6  A    between atoms: N_13  and  C_14 
REMARK    7  A    between atoms: C_14  and  N_15 
REMARK    8  A    between atoms: N_15  and  C_16 
ROOT
HETATM    1  C   UNL     1      24.863  43.286  50.962  1.00  0.00     0.237 C 
HETATM    2  N   UNL     1      25.999  42.691  50.441  1.00  0.00    -0.201 NA
HETATM    3  O   UNL     1      23.739  42.856  50.731  1.00  0.00    -0.274 OA
HETATM    4  H   UNL     1      25.717  42.194  49.601  1.00  0.00     0.139 HD
ENDROOT
BRANCH   2   5
HETATM    5  C   UNL     1      26.857  41.840  51.100  1.00  0.00     0.157 C 
HETATM    6  S   UNL     1      27.821  40.664  50.404  1.00  0.00    -0.047 SA
BRANCH   5   7
HETATM    7  N   UNL     1      26.991  42.051  52.451  1.00  0.00    -0.337 N 
HETATM    8  H   UNL     1      26.127  41.894  52.961  1.00  0.00     0.168 HD
BRANCH   7   9
HETATM    9  C   UNL     1      28.077  42.539  53.215  1.00  0.00     0.036 A 
HETATM   10  C   UNL     1      27.772  43.505  54.190  1.00  0.00     0.061 A 
HETATM   11  C   UNL     1      28.821  44.030  54.912  1.00  0.00     0.065 A 
HETATM   12  C   UNL     1      30.139  43.642  54.695  1.00  0.00     0.063 A 
HETATM   13  N   UNL     1      28.819  44.991  55.916  1.00  0.00    -0.306 N 
HETATM   14  N   UNL     1      30.949  44.365  55.561  1.00  0.00    -0.307 N 
HETATM   15  C   UNL     1      30.477  42.710  53.748  1.00  0.00     0.034 A 
HETATM   16  C   UNL     1      30.141  45.216  56.329  1.00  0.00     0.325 A 
HETATM   17  H   UNL     1      31.952  44.325  55.642  1.00  0.00     0.170 HD
HETATM   18  O   UNL     1      30.512  46.000  57.182  1.00  0.00    -0.247 OA
HETATM   19  C   UNL     1      29.424  42.161  52.998  1.00  0.00     0.032 A 
HETATM   20  H   UNL     1      28.026  45.480  56.299  1.00  0.00     0.170 HD
ENDBRANCH   7   9
ENDBRANCH   5   7
ENDBRANCH   2   5
BRANCH   1  21
HETATM   21  C   UNL     1      25.052  44.661  51.483  1.00  0.00     0.032 A 
HETATM   22  C   UNL     1      25.052  45.689  50.531  1.00  0.00     0.053 A 
HETATM   23  C   UNL     1      25.290  46.998  50.930  1.00  0.00     0.072 A 
HETATM   24  C   UNL     1      25.529  47.278  52.274  1.00  0.00     0.073 A 
HETATM   25  C   UNL     1      25.493  46.262  53.235  1.00  0.00     0.072 A 
HETATM   26  C   UNL     1      25.269  44.943  52.835  1.00  0.00     0.053 A 
BRANCH  23  27
HETATM   27  O   UNL     1      25.392  48.043  50.056  1.00  0.00    -0.351 OA
BRANCH  27  28
HETATM   28  C   UNL     1      26.692  48.219  49.483  1.00  0.00     0.171 C 
HETATM   29  C   UNL     1      26.710  49.460  48.609  1.00  0.00     0.034 C 
ENDBRANCH  27  28
ENDBRANCH  23  27
BRANCH  25  30
HETATM   30  O   UNL     1      25.695  46.694  54.516  1.00  0.00    -0.351 OA
BRANCH  30  31
HETATM   31  C   UNL     1      26.738  47.642  54.738  1.00  0.00     0.171 C 
HETATM   32  C   UNL     1      26.268  48.604  55.815  1.00  0.00     0.034 C 
ENDBRANCH  30  31
ENDBRANCH  25  30
ENDBRANCH   1  21
TORSDOF 8
ENDMDL
MODEL 8
REMARK VINA RESULT:      -7.7     11.980     13.807
REMARK  8 active torsions:
REMARK  status: ('A' for Active; 'I' for Inactive)
REMARK    1  A    between atoms: C_2  and  O_3 
REMARK    2  A    between atoms: O_3  and  C_4 
REMARK    3  A    between atoms: C_6  and  O_7 
REMARK    4  A    between atoms: O_7  and  C_8 
REMARK    5  A    between atoms: C_11  and  C_12 
REMARK       I    between atoms: C_12  and  N_13 
REMARK    6  A    between atoms: N_13  and  C_14 
REMARK    7  A    between atoms: C_14  and  N_15 
REMARK    8  A    between atoms: N_15  and  C_16 
ROOT
HETATM    1  C   UNL     1      29.005  46.888  40.382  1.00  0.00     0.237 C 
HETATM    2  N   UNL     1      27.868  46.996  41.163  1.00  0.00    -0.201 NA
HETATM    3  O   UNL     1      29.340  45.830  39.861  1.00  0.00    -0.274 OA
HETATM    4  H   UNL     1      27.666  46.068  41.524  1.00  0.00     0.139 HD
ENDROOT
BRANCH   2   5
HETATM    5  C   UNL     1      26.652  47.512  40.776  1.00  0.00     0.157 C 
HETATM    6  S   UNL     1      25.327  46.644  40.243  1.00  0.00    -0.047 SA
BRANCH   5   7
HETATM    7  N   UNL     1      26.498  48.868  40.936  1.00  0.00    -0.337 N 
HETATM    8  H   UNL     1      25.709  49.107  41.530  1.00  0.00     0.168 HD
BRANCH   7   9
HETATM    9  C   UNL     1      27.175  49.959  40.343  1.00  0.00     0.036 A 
HETATM   10  C   UNL     1      27.881  50.806  41.216  1.00  0.00     0.061 A 
HETATM   11  C   UNL     1      28.506  51.903  40.665  1.00  0.00     0.065 A 
HETATM   12  C   UNL     1      28.448  52.187  39.305  1.00  0.00     0.063 A 
HETATM   13  N   UNL     1      29.256  52.902  41.277  1.00  0.00    -0.306 N 
HETATM   14  N   UNL     1      29.155  53.360  39.077  1.00  0.00    -0.307 N 
HETATM   15  C   UNL     1      27.762  51.390  38.425  1.00  0.00     0.034 A 
HETATM   16  C   UNL     1      29.664  53.823  40.300  1.00  0.00     0.325 A 
HETATM   17  H   UNL     1      29.288  53.837  38.201  1.00  0.00     0.170 HD
HETATM   18  O   UNL     1      30.325  54.828  40.480  1.00  0.00    -0.247 OA
HETATM   19  C   UNL     1      27.114  50.266  38.962  1.00  0.00     0.032 A 
HETATM   20  H   UNL     1      29.476  52.994  42.255  1.00  0.00     0.170 HD
ENDBRANCH   7   9
ENDBRANCH   5   7
ENDBRANCH   2   5
BRANCH   1  21
HETATM   21  C   UNL     1      29.979  47.998  40.526  1.00  0.00     0.032 A 
HETATM   22  C   UNL     1      30.367  48.314  41.834  1.00  0.00     0.053 A 
HETATM   23  C   UNL     1      31.224  49.385  42.058  1.00  0.00     0.072 A 
HETATM   24  C   UNL     1      31.687  50.137  40.980  1.00  0.00     0.073 A 
HETATM   25  C   UNL     1      31.334  49.802  39.669  1.00  0.00     0.072 A 
HETATM   26  C   UNL     1      30.461  48.736  39.441  1.00  0.00     0.053 A 
BRANCH  23  27
HETATM   27  O   UNL     1      31.581  49.813  43.305  1.00  0.00    -0.351 OA
BRANCH  27  28
HETATM   28  C   UNL     1      32.625  50.791  43.327  1.00  0.00     0.171 C 
HETATM   29  C   UNL     1      32.383  51.784  44.450  1.00  0.00     0.034 C 
ENDBRANCH  27  28
ENDBRANCH  23  27
BRANCH  25  30
HETATM   30  O   UNL     1      31.905  50.597  38.714  1.00  0.00    -0.351 OA
BRANCH  30  31
HETATM   31  C   UNL     1      33.194  51.141  38.991  1.00  0.00     0.171 C 
HETATM   32  C   UNL     1      33.026  52.633  39.225  1.00  0.00     0.034 C 
ENDBRANCH  30  31
ENDBRANCH  25  30
ENDBRANCH   1  21
TORSDOF 8
ENDMDL
MODEL 9
REMARK VINA RESULT:      -7.7      2.513      6.509
REMARK  8 active torsions:
REMARK  status: ('A' for Active; 'I' for Inactive)
REMARK    1  A    between atoms: C_2  and  O_3 
REMARK    2  A    between atoms: O_3  and  C_4 
REMARK    3  A    between atoms: C_6  and  O_7 
REMARK    4  A    between atoms: O_7  and  C_8 
REMARK    5  A    between atoms: C_11  and  C_12 
REMARK       I    between atoms: C_12  and  N_13 
REMARK    6  A    between atoms: N_13  and  C_14 
REMARK    7  A    between atoms: C_14  and  N_15 
REMARK    8  A    between atoms: N_15  and  C_16 
ROOT
HETATM    1  C   UNL     1      23.649  44.053  50.297  1.00  0.00     0.237 C 
HETATM    2  N   UNL     1      24.086  43.912  48.991  1.00  0.00    -0.201 NA
HETATM    3  O   UNL     1      22.506  43.766  50.635  1.00  0.00    -0.274 OA
HETATM    4  H   UNL     1      23.265  43.953  48.395  1.00  0.00     0.139 HD
ENDROOT
BRANCH   2   5
HETATM    5  C   UNL     1      24.853  42.885  48.488  1.00  0.00     0.157 C 
HETATM    6  S   UNL     1      24.341  41.678  47.451  1.00  0.00    -0.047 SA
BRANCH   5   7
HETATM    7  N   UNL     1      26.188  42.922  48.807  1.00  0.00    -0.337 N 
HETATM    8  H   UNL     1      26.690  43.658  48.317  1.00  0.00     0.168 HD
BRANCH   7   9
HETATM    9  C   UNL     1      26.981  42.063  49.604  1.00  0.00     0.036 A 
HETATM   10  C   UNL     1      27.702  41.066  48.923  1.00  0.00     0.061 A 
HETATM   11  C   UNL     1      28.441  40.188  49.685  1.00  0.00     0.065 A 
HETATM   12  C   UNL     1      28.480  40.260  51.073  1.00  0.00     0.063 A 
HETATM   13  N   UNL     1      29.231  39.114  49.290  1.00  0.00    -0.306 N 
HETATM   14  N   UNL     1      29.290  39.230  51.535  1.00  0.00    -0.307 N 
HETATM   15  C   UNL     1      27.784  41.212  51.772  1.00  0.00     0.034 A 
HETATM   16  C   UNL     1      29.764  38.502  50.435  1.00  0.00     0.325 A 
HETATM   17  H   UNL     1      29.509  39.002  52.492  1.00  0.00     0.170 HD
HETATM   18  O   UNL     1      30.491  37.526  50.465  1.00  0.00    -0.247 OA
HETATM   19  C   UNL     1      27.021  42.118  51.019  1.00  0.00     0.032 A 
HETATM   20  H   UNL     1      29.404  38.788  48.353  1.00  0.00     0.170 HD
ENDBRANCH   7   9
ENDBRANCH   5   7
ENDBRANCH   2   5
BRANCH   1  21
HETATM   21  C   UNL     1      24.497  44.912  51.158  1.00  0.00     0.032 A 
HETATM   22  C   UNL     1      24.974  46.093  50.575  1.00  0.00     0.053 A 
HETATM   23  C   UNL     1      25.830  46.919  51.294  1.00  0.00     0.072 A 
HETATM   24  C   UNL     1      26.208  46.564  52.588  1.00  0.00     0.073 A 
HETATM   25  C   UNL     1      25.704  45.407  53.189  1.00  0.00     0.072 A 
HETATM   26  C   UNL     1      24.856  44.567  52.464  1.00  0.00     0.053 A 
BRANCH  23  27
HETATM   27  O   UNL     1      26.407  48.040  50.769  1.00  0.00    -0.351 OA
BRANCH  27  28
HETATM   28  C   UNL     1      26.546  48.032  49.345  1.00  0.00     0.171 C 
HETATM   29  C   UNL     1      27.004  49.397  48.861  1.00  0.00     0.034 C 
ENDBRANCH  27  28
ENDBRANCH  23  27
BRANCH  25  30
HETATM   30  O   UNL     1      26.122  45.216  54.477  1.00  0.00    -0.351 OA
BRANCH  30  31
HETATM   31  C   UNL     1      26.775  43.985  54.784  1.00  0.00     0.171 C 
HETATM   32  C   UNL     1      28.191  44.064  54.240  1.00  0.00     0.034 C 
ENDBRANCH  30  31
ENDBRANCH  25  30
ENDBRANCH   1  21
TORSDOF 8
ENDMDL
MODEL 10
REMARK VINA RESULT:      -7.5      3.047      6.326
REMARK  8 active torsions:
REMARK  status: ('A' for Active; 'I' for Inactive)
REMARK    1  A    between atoms: C_2  and  O_3 
REMARK    2  A    between atoms: O_3  and  C_4 
REMARK    3  A    between atoms: C_6  and  O_7 
REMARK    4  A    between atoms: O_7  and  C_8 
REMARK    5  A    between atoms: C_11  and  C_12 
REMARK       I    between atoms: C_12  and  N_13 
REMARK    6  A    between atoms: N_13  and  C_14 
REMARK    7  A    between atoms: C_14  and  N_15 
REMARK    8  A    between atoms: N_15  and  C_16 
ROOT
HETATM    1  C   UNL     1      28.190  41.590  53.250  1.00  0.00     0.237 C 
HETATM    2  N   UNL     1      27.026  41.715  52.513  1.00  0.00    -0.201 NA
HETATM    3  O   UNL     1      28.702  40.500  53.478  1.00  0.00    -0.274 OA
HETATM    4  H   UNL     1      26.529  40.832  52.588  1.00  0.00     0.139 HD
ENDROOT
BRANCH   2   5
HETATM    5  C   UNL     1      26.926  42.081  51.189  1.00  0.00     0.157 C 
HETATM    6  S   UNL     1      25.975  43.305  50.565  1.00  0.00    -0.047 SA
BRANCH   5   7
HETATM    7  N   UNL     1      27.766  41.426  50.321  1.00  0.00    -0.337 N 
HETATM    8  H   UNL     1      28.430  42.048  49.870  1.00  0.00     0.168 HD
BRANCH   7   9
HETATM    9  C   UNL     1      27.790  40.080  49.885  1.00  0.00     0.036 A 
HETATM   10  C   UNL     1      26.671  39.637  49.158  1.00  0.00     0.061 A 
HETATM   11  C   UNL     1      26.653  38.317  48.767  1.00  0.00     0.065 A 
HETATM   12  C   UNL     1      27.684  37.436  49.074  1.00  0.00     0.063 A 
HETATM   13  N   UNL     1      25.687  37.612  48.057  1.00  0.00    -0.306 N 
HETATM   14  N   UNL     1      27.354  36.189  48.560  1.00  0.00    -0.307 N 
HETATM   15  C   UNL     1      28.786  37.828  49.789  1.00  0.00     0.034 A 
HETATM   16  C   UNL     1      26.107  36.280  47.924  1.00  0.00     0.325 A 
HETATM   17  H   UNL     1      27.885  35.336  48.627  1.00  0.00     0.170 HD
HETATM   18  O   UNL     1      25.504  35.379  47.370  1.00  0.00    -0.247 OA
HETATM   19  C   UNL     1      28.828  39.170  50.201  1.00  0.00     0.032 A 
HETATM   20  H   UNL     1      24.812  37.958  47.696  1.00  0.00     0.170 HD
ENDBRANCH   7   9
ENDBRANCH   5   7
ENDBRANCH   2   5
BRANCH   1  21
HETATM   21  C   UNL     1      28.560  42.780  54.054  1.00  0.00     0.032 A 
HETATM   22  C   UNL     1      27.589  43.782  54.159  1.00  0.00     0.053 A 
HETATM   23  C   UNL     1      27.882  44.958  54.838  1.00  0.00     0.072 A 
HETATM   24  C   UNL     1      29.142  45.131  55.408  1.00  0.00     0.073 A 
HETATM   25  C   UNL     1      30.104  44.117  55.340  1.00  0.00     0.072 A 
HETATM   26  C   UNL     1      29.817  42.941  54.645  1.00  0.00     0.053 A 
BRANCH  23  27
HETATM   27  O   UNL     1      27.023  46.018  54.912  1.00  0.00    -0.351 OA
BRANCH  27  28
HETATM   28  C   UNL     1      25.886  45.928  54.047  1.00  0.00     0.171 C 
HETATM   29  C   UNL     1      25.838  47.135  53.126  1.00  0.00     0.034 C 
ENDBRANCH  27  28
ENDBRANCH  23  27
BRANCH  25  30
HETATM   30  O   UNL     1      31.272  44.408  55.988  1.00  0.00    -0.351 OA
BRANCH  30  31
HETATM   31  C   UNL     1      31.505  43.778  57.247  1.00  0.00     0.171 C 
HETATM   32  C   UNL     1      31.297  44.821  58.331  1.00  0.00     0.034 C 
ENDBRANCH  30  31
ENDBRANCH  25  30
ENDBRANCH   1  21
TORSDOF 8
ENDMDL
