MODEL 1
REMARK VINA RESULT:      -9.2      0.000      0.000
REMARK  6 active torsions:
REMARK  status: ('A' for Active; 'I' for Inactive)
REMARK    1  A    between atoms: C_2  and  C_3 
REMARK    2  A    between atoms: C_3  and  C_4 
REMARK    3  A    between atoms: C_4  and  C_5 
REMARK    4  A    between atoms: C_4  and  C_21 
REMARK       I    between atoms: C_5  and  N_6 
REMARK    5  A    between atoms: N_6  and  C_7 
REMARK    6  A    between atoms: C_14  and  C_15 
REMARK       I    between atoms: C_15  and  N_16 
ROOT
HETATM    1  C   UNL     1      27.304  41.779  51.286  1.00  0.00     0.035 A 
HETATM    2  C   UNL     1      28.233  40.745  51.106  1.00  0.00     0.046 A 
HETATM    3  C   UNL     1      27.910  39.657  50.263  1.00  0.00     0.030 A 
HETATM    4  C   UNL     1      26.666  39.634  49.645  1.00  0.00     0.063 A 
HETATM    5  N   UNL     1      26.646  38.480  48.914  1.00  0.00    -0.277 N 
HETATM    6  H   UNL     1      25.888  38.134  48.335  1.00  0.00     0.189 HD
HETATM    7  N   UNL     1      27.773  37.754  48.986  1.00  0.00    -0.168 NA
HETATM    8  C   UNL     1      28.566  38.470  49.815  1.00  0.00     0.156 A 
HETATM    9  C   UNL     1      25.714  40.642  49.809  1.00  0.00     0.034 A 
HETATM   10  C   UNL     1      26.065  41.716  50.636  1.00  0.00     0.032 A 
ENDROOT
BRANCH   1  11
HETATM   11  N   UNL     1      27.548  42.923  52.075  1.00  0.00    -0.327 N 
HETATM   12  C   UNL     1      27.588  43.011  53.463  1.00  0.00     0.231 C 
HETATM   13  O   UNL     1      27.299  42.106  54.237  1.00  0.00    -0.272 OA
HETATM   14  H   UNL     1      27.764  43.774  51.568  1.00  0.00     0.169 HD
BRANCH  12  15
HETATM   15  C   UNL     1      28.021  44.415  53.946  1.00  0.00     0.115 C 
BRANCH  15  16
HETATM   16  C   UNL     1      26.865  45.341  54.435  1.00  0.00    -0.001 C 
HETATM   17  C   UNL     1      25.465  44.727  54.282  1.00  0.00     0.011 C 
BRANCH  16  18
HETATM   18  C   UNL     1      26.878  46.749  53.796  1.00  0.00     0.001 C 
HETATM   19  C   UNL     1      26.791  47.888  54.804  1.00  0.00     0.005 C 
ENDBRANCH  16  18
ENDBRANCH  15  16
BRANCH  15  20
HETATM   20  C   UNL     1      29.163  44.363  54.966  1.00  0.00    -0.045 A 
HETATM   21  C   UNL     1      29.273  45.376  55.931  1.00  0.00     0.008 A 
HETATM   22  C   UNL     1      30.302  45.352  56.875  1.00  0.00     0.001 A 
HETATM   23  C   UNL     1      31.230  44.314  56.869  1.00  0.00     0.000 A 
HETATM   24  C   UNL     1      31.128  43.296  55.924  1.00  0.00     0.001 A 
HETATM   25  C   UNL     1      30.098  43.315  54.981  1.00  0.00     0.008 A 
ENDBRANCH  15  20
ENDBRANCH  12  15
ENDBRANCH   1  11
BRANCH   8  26
HETATM   26  C   UNL     1      29.924  38.016  50.148  1.00  0.00     0.270 C 
HETATM   27  N   UNL     1      30.893  38.492  49.308  1.00  0.00    -0.365 N 
HETATM   28  H   UNL     1      30.619  39.109  48.552  1.00  0.00     0.159 HD
HETATM   29  H   UNL     1      31.857  38.249  49.470  1.00  0.00     0.159 HD
HETATM   30  O   UNL     1      30.206  37.284  51.090  1.00  0.00    -0.266 OA
ENDBRANCH   8  26
TORSDOF 6
ENDMDL
MODEL 2
REMARK VINA RESULT:      -8.9      1.387      3.225
REMARK  6 active torsions:
REMARK  status: ('A' for Active; 'I' for Inactive)
REMARK    1  A    between atoms: C_2  and  C_3 
REMARK    2  A    between atoms: C_3  and  C_4 
REMARK    3  A    between atoms: C_4  and  C_5 
REMARK    4  A    between atoms: C_4  and  C_21 
REMARK       I    between atoms: C_5  and  N_6 
REMARK    5  A    between atoms: N_6  and  C_7 
REMARK    6  A    between atoms: C_14  and  C_15 
REMARK       I    between atoms: C_15  and  N_16 
ROOT
HETATM    1  C   UNL     1      28.011  41.896  51.983  1.00  0.00     0.035 A 
HETATM    2  C   UNL     1      28.535  40.618  51.743  1.00  0.00     0.046 A 
HETATM    3  C   UNL     1      28.352  40.017  50.477  1.00  0.00     0.030 A 
HETATM    4  C   UNL     1      27.639  40.706  49.504  1.00  0.00     0.063 A 
HETATM    5  N   UNL     1      27.627  39.883  48.413  1.00  0.00    -0.277 N 
HETATM    6  H   UNL     1      27.190  40.062  47.516  1.00  0.00     0.189 HD
HETATM    7  N   UNL     1      28.282  38.723  48.582  1.00  0.00    -0.168 NA
HETATM    8  C   UNL     1      28.739  38.791  49.853  1.00  0.00     0.156 A 
HETATM    9  C   UNL     1      27.097  41.975  49.711  1.00  0.00     0.034 A 
HETATM   10  C   UNL     1      27.306  42.556  50.968  1.00  0.00     0.032 A 
ENDROOT
BRANCH   1  11
HETATM   11  N   UNL     1      28.174  42.594  53.198  1.00  0.00    -0.327 N 
HETATM   12  C   UNL     1      29.276  43.333  53.618  1.00  0.00     0.231 C 
HETATM   13  O   UNL     1      30.348  43.399  53.027  1.00  0.00    -0.272 OA
HETATM   14  H   UNL     1      27.375  42.594  53.822  1.00  0.00     0.169 HD
BRANCH  12  15
HETATM   15  C   UNL     1      29.015  44.061  54.957  1.00  0.00     0.115 C 
BRANCH  15  16
HETATM   16  C   UNL     1      30.287  44.409  55.789  1.00  0.00    -0.001 C 
HETATM   17  C   UNL     1      31.124  43.186  56.193  1.00  0.00     0.011 C 
BRANCH  16  18
HETATM   18  C   UNL     1      30.000  45.268  57.043  1.00  0.00     0.001 C 
HETATM   19  C   UNL     1      30.941  44.998  58.209  1.00  0.00     0.005 C 
ENDBRANCH  16  18
ENDBRANCH  15  16
BRANCH  15  20
HETATM   20  C   UNL     1      28.101  45.280  54.798  1.00  0.00    -0.045 A 
HETATM   21  C   UNL     1      28.645  46.570  54.911  1.00  0.00     0.008 A 
HETATM   22  C   UNL     1      27.836  47.699  54.767  1.00  0.00     0.001 A 
HETATM   23  C   UNL     1      26.476  47.554  54.504  1.00  0.00     0.000 A 
HETATM   24  C   UNL     1      25.924  46.281  54.380  1.00  0.00     0.001 A 
HETATM   25  C   UNL     1      26.731  45.150  54.519  1.00  0.00     0.008 A 
ENDBRANCH  15  20
ENDBRANCH  12  15
ENDBRANCH   1  11
BRANCH   8  26
HETATM   26  C   UNL     1      29.536  37.702  50.433  1.00  0.00     0.270 C 
HETATM   27  N   UNL     1      28.796  36.627  50.846  1.00  0.00    -0.365 N 
HETATM   28  H   UNL     1      27.791  36.652  50.717  1.00  0.00     0.159 HD
HETATM   29  H   UNL     1      29.260  35.824  51.239  1.00  0.00     0.159 HD
HETATM   30  O   UNL     1      30.757  37.712  50.549  1.00  0.00    -0.266 OA
ENDBRANCH   8  26
TORSDOF 6
ENDMDL
MODEL 3
REMARK VINA RESULT:      -8.4      2.045      2.934
REMARK  6 active torsions:
REMARK  status: ('A' for Active; 'I' for Inactive)
REMARK    1  A    between atoms: C_2  and  C_3 
REMARK    2  A    between atoms: C_3  and  C_4 
REMARK    3  A    between atoms: C_4  and  C_5 
REMARK    4  A    between atoms: C_4  and  C_21 
REMARK       I    between atoms: C_5  and  N_6 
REMARK    5  A    between atoms: N_6  and  C_7 
REMARK    6  A    between atoms: C_14  and  C_15 
REMARK       I    between atoms: C_15  and  N_16 
ROOT
HETATM    1  C   UNL     1      28.092  42.525  52.109  1.00  0.00     0.035 A 
HETATM    2  C   UNL     1      27.122  42.349  51.112  1.00  0.00     0.046 A 
HETATM    3  C   UNL     1      27.029  41.109  50.442  1.00  0.00     0.030 A 
HETATM    4  C   UNL     1      27.918  40.095  50.779  1.00  0.00     0.063 A 
HETATM    5  N   UNL     1      27.589  39.042  49.973  1.00  0.00    -0.277 N 
HETATM    6  H   UNL     1      28.033  38.131  49.943  1.00  0.00     0.189 HD
HETATM    7  N   UNL     1      26.553  39.272  49.150  1.00  0.00    -0.168 NA
HETATM    8  C   UNL     1      26.193  40.546  49.429  1.00  0.00     0.156 A 
HETATM    9  C   UNL     1      28.901  40.238  51.759  1.00  0.00     0.034 A 
HETATM   10  C   UNL     1      28.962  41.471  52.420  1.00  0.00     0.032 A 
ENDROOT
BRANCH   1  11
HETATM   11  N   UNL     1      28.239  43.710  52.860  1.00  0.00    -0.327 N 
HETATM   12  C   UNL     1      27.781  43.966  54.149  1.00  0.00     0.231 C 
HETATM   13  O   UNL     1      27.062  43.221  54.804  1.00  0.00    -0.272 OA
HETATM   14  H   UNL     1      28.781  44.447  52.426  1.00  0.00     0.169 HD
BRANCH  12  15
HETATM   15  C   UNL     1      28.260  45.339  54.676  1.00  0.00     0.115 C 
BRANCH  15  16
HETATM   16  C   UNL     1      27.132  46.374  54.971  1.00  0.00    -0.001 C 
HETATM   17  C   UNL     1      25.868  46.183  54.119  1.00  0.00     0.011 C 
BRANCH  16  18
HETATM   18  C   UNL     1      27.593  47.848  54.877  1.00  0.00     0.001 C 
HETATM   19  C   UNL     1      26.684  48.830  55.604  1.00  0.00     0.005 C 
ENDBRANCH  16  18
ENDBRANCH  15  16
BRANCH  15  20
HETATM   20  C   UNL     1      29.226  45.213  55.858  1.00  0.00    -0.045 A 
HETATM   21  C   UNL     1      28.999  45.971  57.018  1.00  0.00     0.008 A 
HETATM   22  C   UNL     1      29.861  45.874  58.113  1.00  0.00     0.001 A 
HETATM   23  C   UNL     1      30.956  45.015  58.064  1.00  0.00     0.000 A 
HETATM   24  C   UNL     1      31.188  44.249  56.924  1.00  0.00     0.001 A 
HETATM   25  C   UNL     1      30.327  44.342  55.830  1.00  0.00     0.008 A 
ENDBRANCH  15  20
ENDBRANCH  12  15
ENDBRANCH   1  11
BRANCH   8  26
HETATM   26  C   UNL     1      25.065  41.185  48.740  1.00  0.00     0.270 C 
HETATM   27  N   UNL     1      24.264  40.314  48.053  1.00  0.00    -0.365 N 
HETATM   28  H   UNL     1      24.490  39.326  48.077  1.00  0.00     0.159 HD
HETATM   29  H   UNL     1      23.453  40.660  47.565  1.00  0.00     0.159 HD
HETATM   30  O   UNL     1      24.822  42.387  48.759  1.00  0.00    -0.266 OA
ENDBRANCH   8  26
TORSDOF 6
ENDMDL
MODEL 4
REMARK VINA RESULT:      -8.2      5.176      8.043
REMARK  6 active torsions:
REMARK  status: ('A' for Active; 'I' for Inactive)
REMARK    1  A    between atoms: C_2  and  C_3 
REMARK    2  A    between atoms: C_3  and  C_4 
REMARK    3  A    between atoms: C_4  and  C_5 
REMARK    4  A    between atoms: C_4  and  C_21 
REMARK       I    between atoms: C_5  and  N_6 
REMARK    5  A    between atoms: N_6  and  C_7 
REMARK    6  A    between atoms: C_14  and  C_15 
REMARK       I    between atoms: C_15  and  N_16 
ROOT
HETATM    1  C   UNL     1      25.990  47.436  50.312  1.00  0.00     0.035 A 
HETATM    2  C   UNL     1      24.665  47.611  49.888  1.00  0.00     0.046 A 
HETATM    3  C   UNL     1      24.360  48.629  48.957  1.00  0.00     0.030 A 
HETATM    4  C   UNL     1      25.385  49.446  48.496  1.00  0.00     0.063 A 
HETATM    5  N   UNL     1      24.791  50.319  47.629  1.00  0.00    -0.277 N 
HETATM    6  H   UNL     1      25.238  51.063  47.106  1.00  0.00     0.189 HD
HETATM    7  N   UNL     1      23.470  50.136  47.470  1.00  0.00    -0.168 NA
HETATM    8  C   UNL     1      23.188  49.092  48.284  1.00  0.00     0.156 A 
HETATM    9  C   UNL     1      26.713  49.305  48.902  1.00  0.00     0.034 A 
HETATM   10  C   UNL     1      26.992  48.279  49.813  1.00  0.00     0.032 A 
ENDROOT
BRANCH   1  11
HETATM   11  N   UNL     1      26.400  46.426  51.207  1.00  0.00    -0.327 N 
HETATM   12  C   UNL     1      25.633  45.394  51.740  1.00  0.00     0.231 C 
HETATM   13  O   UNL     1      24.422  45.268  51.598  1.00  0.00    -0.272 OA
HETATM   14  H   UNL     1      27.382  46.426  51.457  1.00  0.00     0.169 HD
BRANCH  12  15
HETATM   15  C   UNL     1      26.482  44.410  52.578  1.00  0.00     0.115 C 
BRANCH  15  16
HETATM   16  C   UNL     1      27.400  43.452  51.758  1.00  0.00    -0.001 C 
HETATM   17  C   UNL     1      27.152  43.493  50.242  1.00  0.00     0.011 C 
BRANCH  16  18
HETATM   18  C   UNL     1      27.364  41.983  52.241  1.00  0.00     0.001 C 
HETATM   19  C   UNL     1      28.740  41.356  52.423  1.00  0.00     0.005 C 
ENDBRANCH  16  18
ENDBRANCH  15  16
BRANCH  15  20
HETATM   20  C   UNL     1      27.261  45.106  53.697  1.00  0.00    -0.045 A 
HETATM   21  C   UNL     1      26.741  46.275  54.277  1.00  0.00     0.008 A 
HETATM   22  C   UNL     1      27.429  46.928  55.302  1.00  0.00     0.001 A 
HETATM   23  C   UNL     1      28.641  46.421  55.762  1.00  0.00     0.000 A 
HETATM   24  C   UNL     1      29.165  45.258  55.204  1.00  0.00     0.001 A 
HETATM   25  C   UNL     1      28.478  44.600  54.182  1.00  0.00     0.008 A 
ENDBRANCH  15  20
ENDBRANCH  12  15
ENDBRANCH   1  11
BRANCH   8  26
HETATM   26  C   UNL     1      21.823  48.558  48.389  1.00  0.00     0.270 C 
HETATM   27  N   UNL     1      21.222  48.797  49.595  1.00  0.00    -0.365 N 
HETATM   28  H   UNL     1      21.735  49.316  50.298  1.00  0.00     0.159 HD
HETATM   29  H   UNL     1      20.277  48.485  49.751  1.00  0.00     0.159 HD
HETATM   30  O   UNL     1      21.236  47.953  47.498  1.00  0.00    -0.266 OA
ENDBRANCH   8  26
TORSDOF 6
ENDMDL
MODEL 5
REMARK VINA RESULT:      -8.2      7.351      9.999
REMARK  6 active torsions:
REMARK  status: ('A' for Active; 'I' for Inactive)
REMARK    1  A    between atoms: C_2  and  C_3 
REMARK    2  A    between atoms: C_3  and  C_4 
REMARK    3  A    between atoms: C_4  and  C_5 
REMARK    4  A    between atoms: C_4  and  C_21 
REMARK       I    between atoms: C_5  and  N_6 
REMARK    5  A    between atoms: N_6  and  C_7 
REMARK    6  A    between atoms: C_14  and  C_15 
REMARK       I    between atoms: C_15  and  N_16 
ROOT
HETATM    1  C   UNL     1      24.136  47.335  49.772  1.00  0.00     0.035 A 
HETATM    2  C   UNL     1      24.106  45.969  50.086  1.00  0.00     0.046 A 
HETATM    3  C   UNL     1      25.320  45.254  50.202  1.00  0.00     0.030 A 
HETATM    4  C   UNL     1      26.517  45.924  49.984  1.00  0.00     0.063 A 
HETATM    5  N   UNL     1      27.494  44.986  50.159  1.00  0.00    -0.277 N 
HETATM    6  H   UNL     1      28.495  45.121  50.074  1.00  0.00     0.189 HD
HETATM    7  N   UNL     1      27.043  43.765  50.488  1.00  0.00    -0.168 NA
HETATM    8  C   UNL     1      25.699  43.915  50.521  1.00  0.00     0.156 A 
HETATM    9  C   UNL     1      26.584  47.281  49.662  1.00  0.00     0.034 A 
HETATM   10  C   UNL     1      25.368  47.971  49.569  1.00  0.00     0.032 A 
ENDROOT
BRANCH   1  11
HETATM   11  N   UNL     1      22.984  48.143  49.673  1.00  0.00    -0.327 N 
HETATM   12  C   UNL     1      22.163  48.327  48.565  1.00  0.00     0.231 C 
HETATM   13  O   UNL     1      22.385  47.891  47.441  1.00  0.00    -0.272 OA
HETATM   14  H   UNL     1      22.694  48.610  50.524  1.00  0.00     0.169 HD
BRANCH  12  15
HETATM   15  C   UNL     1      20.919  49.184  48.897  1.00  0.00     0.115 C 
BRANCH  15  16
HETATM   16  C   UNL     1      21.019  50.690  48.502  1.00  0.00    -0.001 C 
HETATM   17  C   UNL     1      22.439  51.269  48.598  1.00  0.00     0.011 C 
BRANCH  16  18
HETATM   18  C   UNL     1      20.040  51.606  49.272  1.00  0.00     0.001 C 
HETATM   19  C   UNL     1      19.027  52.318  48.384  1.00  0.00     0.005 C 
ENDBRANCH  16  18
ENDBRANCH  15  16
BRANCH  15  20
HETATM   20  C   UNL     1      19.617  48.559  48.387  1.00  0.00    -0.045 A 
HETATM   21  C   UNL     1      18.774  47.889  49.287  1.00  0.00     0.008 A 
HETATM   22  C   UNL     1      17.579  47.313  48.850  1.00  0.00     0.001 A 
HETATM   23  C   UNL     1      17.211  47.402  47.510  1.00  0.00     0.000 A 
HETATM   24  C   UNL     1      18.033  48.071  46.607  1.00  0.00     0.001 A 
HETATM   25  C   UNL     1      19.226  48.652  47.041  1.00  0.00     0.008 A 
ENDBRANCH  15  20
ENDBRANCH  12  15
ENDBRANCH   1  11
BRANCH   8  26
HETATM   26  C   UNL     1      24.818  42.790  50.864  1.00  0.00     0.270 C 
HETATM   27  N   UNL     1      25.462  41.588  50.973  1.00  0.00    -0.365 N 
HETATM   28  H   UNL     1      26.465  41.561  50.827  1.00  0.00     0.159 HD
HETATM   29  H   UNL     1      24.941  40.764  51.225  1.00  0.00     0.159 HD
HETATM   30  O   UNL     1      23.609  42.880  51.053  1.00  0.00    -0.266 OA
ENDBRANCH   8  26
TORSDOF 6
ENDMDL
MODEL 6
REMARK VINA RESULT:      -8.2      5.596      8.814
REMARK  6 active torsions:
REMARK  status: ('A' for Active; 'I' for Inactive)
REMARK    1  A    between atoms: C_2  and  C_3 
REMARK    2  A    between atoms: C_3  and  C_4 
REMARK    3  A    between atoms: C_4  and  C_5 
REMARK    4  A    between atoms: C_4  and  C_21 
REMARK       I    between atoms: C_5  and  N_6 
REMARK    5  A    between atoms: N_6  and  C_7 
REMARK    6  A    between atoms: C_14  and  C_15 
REMARK       I    between atoms: C_15  and  N_16 
ROOT
HETATM    1  C   UNL     1      25.367  47.835  49.866  1.00  0.00     0.035 A 
HETATM    2  C   UNL     1      23.973  47.856  49.717  1.00  0.00     0.046 A 
HETATM    3  C   UNL     1      23.375  48.839  48.897  1.00  0.00     0.030 A 
HETATM    4  C   UNL     1      24.188  49.776  48.270  1.00  0.00     0.063 A 
HETATM    5  N   UNL     1      23.337  50.580  47.566  1.00  0.00    -0.277 N 
HETATM    6  H   UNL     1      23.584  51.377  46.990  1.00  0.00     0.189 HD
HETATM    7  N   UNL     1      22.041  50.243  47.664  1.00  0.00    -0.168 NA
HETATM    8  C   UNL     1      22.048  49.166  48.483  1.00  0.00     0.156 A 
HETATM    9  C   UNL     1      25.577  49.790  48.403  1.00  0.00     0.034 A 
HETATM   10  C   UNL     1      26.147  48.795  49.208  1.00  0.00     0.032 A 
ENDROOT
BRANCH   1  11
HETATM   11  N   UNL     1      26.060  46.872  50.630  1.00  0.00    -0.327 N 
HETATM   12  C   UNL     1      26.011  46.678  52.007  1.00  0.00     0.231 C 
HETATM   13  O   UNL     1      25.430  47.407  52.803  1.00  0.00    -0.272 OA
HETATM   14  H   UNL     1      26.627  46.215  50.107  1.00  0.00     0.169 HD
BRANCH  12  15
HETATM   15  C   UNL     1      26.811  45.430  52.449  1.00  0.00     0.115 C 
BRANCH  15  16
HETATM   16  C   UNL     1      26.850  45.169  53.986  1.00  0.00    -0.001 C 
HETATM   17  C   UNL     1      27.719  46.166  54.768  1.00  0.00     0.011 C 
BRANCH  16  18
HETATM   18  C   UNL     1      27.259  43.727  54.366  1.00  0.00     0.001 C 
HETATM   19  C   UNL     1      28.764  43.512  54.455  1.00  0.00     0.005 C 
ENDBRANCH  16  18
ENDBRANCH  15  16
BRANCH  15  20
HETATM   20  C   UNL     1      26.410  44.169  51.678  1.00  0.00    -0.045 A 
HETATM   21  C   UNL     1      27.391  43.441  50.985  1.00  0.00     0.008 A 
HETATM   22  C   UNL     1      27.054  42.285  50.278  1.00  0.00     0.001 A 
HETATM   23  C   UNL     1      25.735  41.840  50.257  1.00  0.00     0.000 A 
HETATM   24  C   UNL     1      24.752  42.545  50.947  1.00  0.00     0.001 A 
HETATM   25  C   UNL     1      25.086  43.699  51.659  1.00  0.00     0.008 A 
ENDBRANCH  15  20
ENDBRANCH  12  15
ENDBRANCH   1  11
BRANCH   8  26
HETATM   26  C   UNL     1      20.801  48.473  48.836  1.00  0.00     0.270 C 
HETATM   27  N   UNL     1      20.247  48.889  50.017  1.00  0.00    -0.365 N 
HETATM   28  H   UNL     1      20.711  49.625  50.537  1.00  0.00     0.159 HD
HETATM   29  H   UNL     1      19.380  48.484  50.331  1.00  0.00     0.159 HD
HETATM   30  O   UNL     1      20.268  47.601  48.159  1.00  0.00    -0.266 OA
ENDBRANCH   8  26
TORSDOF 6
ENDMDL
MODEL 7
REMARK VINA RESULT:      -8.0      1.960      3.621
REMARK  6 active torsions:
REMARK  status: ('A' for Active; 'I' for Inactive)
REMARK    1  A    between atoms: C_2  and  C_3 
REMARK    2  A    between atoms: C_3  and  C_4 
REMARK    3  A    between atoms: C_4  and  C_5 
REMARK    4  A    between atoms: C_4  and  C_21 
REMARK       I    between atoms: C_5  and  N_6 
REMARK    5  A    between atoms: N_6  and  C_7 
REMARK    6  A    between atoms: C_14  and  C_15 
REMARK       I    between atoms: C_15  and  N_16 
ROOT
HETATM    1  C   UNL     1      26.108  41.856  50.978  1.00  0.00     0.035 A 
HETATM    2  C   UNL     1      26.616  40.812  50.193  1.00  0.00     0.046 A 
HETATM    3  C   UNL     1      25.893  40.378  49.059  1.00  0.00     0.030 A 
HETATM    4  C   UNL     1      24.683  40.991  48.759  1.00  0.00     0.063 A 
HETATM    5  N   UNL     1      24.228  40.365  47.633  1.00  0.00    -0.277 N 
HETATM    6  H   UNL     1      23.367  40.553  47.133  1.00  0.00     0.189 HD
HETATM    7  N   UNL     1      25.042  39.407  47.161  1.00  0.00    -0.168 NA
HETATM    8  C   UNL     1      26.078  39.404  48.030  1.00  0.00     0.156 A 
HETATM    9  C   UNL     1      24.144  42.028  49.522  1.00  0.00     0.034 A 
HETATM   10  C   UNL     1      24.887  42.450  50.632  1.00  0.00     0.032 A 
ENDROOT
BRANCH   1  11
HETATM   11  N   UNL     1      26.773  42.385  52.104  1.00  0.00    -0.327 N 
HETATM   12  C   UNL     1      27.585  43.513  52.165  1.00  0.00     0.231 C 
HETATM   13  O   UNL     1      27.948  44.175  51.199  1.00  0.00    -0.272 OA
HETATM   14  H   UNL     1      26.603  41.911  52.983  1.00  0.00     0.169 HD
BRANCH  12  15
HETATM   15  C   UNL     1      28.019  43.842  53.612  1.00  0.00     0.115 C 
BRANCH  15  16
HETATM   16  C   UNL     1      29.527  43.603  53.931  1.00  0.00    -0.001 C 
HETATM   17  C   UNL     1      30.251  42.722  52.901  1.00  0.00     0.011 C 
BRANCH  16  18
HETATM   18  C   UNL     1      29.788  43.049  55.351  1.00  0.00     0.001 C 
HETATM   19  C   UNL     1      31.022  43.631  56.027  1.00  0.00     0.005 C 
ENDBRANCH  16  18
ENDBRANCH  15  16
BRANCH  15  20
HETATM   20  C   UNL     1      27.569  45.236  54.062  1.00  0.00    -0.045 A 
HETATM   21  C   UNL     1      26.301  45.707  53.684  1.00  0.00     0.008 A 
HETATM   22  C   UNL     1      25.864  46.972  54.082  1.00  0.00     0.001 A 
HETATM   23  C   UNL     1      26.684  47.779  54.866  1.00  0.00     0.000 A 
HETATM   24  C   UNL     1      27.940  47.321  55.258  1.00  0.00     0.001 A 
HETATM   25  C   UNL     1      28.379  46.056  54.864  1.00  0.00     0.008 A 
ENDBRANCH  15  20
ENDBRANCH  12  15
ENDBRANCH   1  11
BRANCH   8  26
HETATM   26  C   UNL     1      27.215  38.490  47.855  1.00  0.00     0.270 C 
HETATM   27  N   UNL     1      28.021  38.799  46.793  1.00  0.00    -0.365 N 
HETATM   28  H   UNL     1      27.793  39.612  46.232  1.00  0.00     0.159 HD
HETATM   29  H   UNL     1      28.837  38.238  46.607  1.00  0.00     0.159 HD
HETATM   30  O   UNL     1      27.460  37.529  48.577  1.00  0.00    -0.266 OA
ENDBRANCH   8  26
TORSDOF 6
ENDMDL
MODEL 8
REMARK VINA RESULT:      -7.8      1.856      2.605
REMARK  6 active torsions:
REMARK  status: ('A' for Active; 'I' for Inactive)
REMARK    1  A    between atoms: C_2  and  C_3 
REMARK    2  A    between atoms: C_3  and  C_4 
REMARK    3  A    between atoms: C_4  and  C_5 
REMARK    4  A    between atoms: C_4  and  C_21 
REMARK       I    between atoms: C_5  and  N_6 
REMARK    5  A    between atoms: N_6  and  C_7 
REMARK    6  A    between atoms: C_14  and  C_15 
REMARK       I    between atoms: C_15  and  N_16 
ROOT
HETATM    1  C   UNL     1      26.821  43.981  52.095  1.00  0.00     0.035 A 
HETATM    2  C   UNL     1      27.295  42.844  51.425  1.00  0.00     0.046 A 
HETATM    3  C   UNL     1      26.429  42.131  50.566  1.00  0.00     0.030 A 
HETATM    4  C   UNL     1      25.119  42.568  50.420  1.00  0.00     0.063 A 
HETATM    5  N   UNL     1      24.539  41.690  49.547  1.00  0.00    -0.277 N 
HETATM    6  H   UNL     1      23.583  41.701  49.212  1.00  0.00     0.189 HD
HETATM    7  N   UNL     1      25.359  40.727  49.097  1.00  0.00    -0.168 NA
HETATM    8  C   UNL     1      26.534  40.987  49.717  1.00  0.00     0.156 A 
HETATM    9  C   UNL     1      24.611  43.690  51.077  1.00  0.00     0.034 A 
HETATM   10  C   UNL     1      25.494  44.389  51.910  1.00  0.00     0.032 A 
ENDROOT
BRANCH   1  11
HETATM   11  N   UNL     1      27.617  44.781  52.942  1.00  0.00    -0.327 N 
HETATM   12  C   UNL     1      27.732  44.708  54.326  1.00  0.00     0.231 C 
HETATM   13  O   UNL     1      27.055  43.991  55.054  1.00  0.00    -0.272 OA
HETATM   14  H   UNL     1      28.210  45.462  52.481  1.00  0.00     0.169 HD
BRANCH  12  15
HETATM   15  C   UNL     1      28.812  45.670  54.874  1.00  0.00     0.115 C 
BRANCH  15  16
HETATM   16  C   UNL     1      28.276  47.001  55.485  1.00  0.00    -0.001 C 
HETATM   17  C   UNL     1      27.390  46.806  56.726  1.00  0.00     0.011 C 
BRANCH  16  18
HETATM   18  C   UNL     1      27.540  47.906  54.470  1.00  0.00     0.001 C 
HETATM   19  C   UNL     1      26.029  47.948  54.656  1.00  0.00     0.005 C 
ENDBRANCH  16  18
ENDBRANCH  15  16
BRANCH  15  20
HETATM   20  C   UNL     1      29.794  44.976  55.822  1.00  0.00    -0.045 A 
HETATM   21  C   UNL     1      30.078  45.557  57.069  1.00  0.00     0.008 A 
HETATM   22  C   UNL     1      30.967  44.945  57.955  1.00  0.00     0.001 A 
HETATM   23  C   UNL     1      31.580  43.744  57.608  1.00  0.00     0.000 A 
HETATM   24  C   UNL     1      31.302  43.150  56.379  1.00  0.00     0.001 A 
HETATM   25  C   UNL     1      30.411  43.758  55.493  1.00  0.00     0.008 A 
ENDBRANCH  15  20
ENDBRANCH  12  15
ENDBRANCH   1  11
BRANCH   8  26
HETATM   26  C   UNL     1      27.720  40.154  49.477  1.00  0.00     0.270 C 
HETATM   27  N   UNL     1      28.015  39.294  50.500  1.00  0.00    -0.365 N 
HETATM   28  H   UNL     1      27.411  39.285  51.314  1.00  0.00     0.159 HD
HETATM   29  H   UNL     1      28.800  38.669  50.416  1.00  0.00     0.159 HD
HETATM   30  O   UNL     1      28.407  40.188  48.461  1.00  0.00    -0.266 OA
ENDBRANCH   8  26
TORSDOF 6
ENDMDL
MODEL 9
REMARK VINA RESULT:      -7.8      9.014     12.014
REMARK  6 active torsions:
REMARK  status: ('A' for Active; 'I' for Inactive)
REMARK    1  A    between atoms: C_2  and  C_3 
REMARK    2  A    between atoms: C_3  and  C_4 
REMARK    3  A    between atoms: C_4  and  C_5 
REMARK    4  A    between atoms: C_4  and  C_21 
REMARK       I    between atoms: C_5  and  N_6 
REMARK    5  A    between atoms: N_6  and  C_7 
REMARK    6  A    between atoms: C_14  and  C_15 
REMARK       I    between atoms: C_15  and  N_16 
ROOT
HETATM    1  C   UNL     1      22.187  49.578  48.701  1.00  0.00     0.035 A 
HETATM    2  C   UNL     1      22.965  48.607  49.347  1.00  0.00     0.046 A 
HETATM    3  C   UNL     1      24.372  48.639  49.214  1.00  0.00     0.030 A 
HETATM    4  C   UNL     1      24.949  49.629  48.428  1.00  0.00     0.063 A 
HETATM    5  N   UNL     1      26.295  49.401  48.489  1.00  0.00    -0.277 N 
HETATM    6  H   UNL     1      27.027  49.930  48.030  1.00  0.00     0.189 HD
HETATM    7  N   UNL     1      26.650  48.359  49.258  1.00  0.00    -0.168 NA
HETATM    8  C   UNL     1      25.471  47.878  49.716  1.00  0.00     0.156 A 
HETATM    9  C   UNL     1      24.205  50.606  47.765  1.00  0.00     0.034 A 
HETATM   10  C   UNL     1      22.815  50.562  47.925  1.00  0.00     0.032 A 
ENDROOT
BRANCH   1  11
HETATM   11  N   UNL     1      20.782  49.653  48.803  1.00  0.00    -0.327 N 
HETATM   12  C   UNL     1      20.031  50.334  49.756  1.00  0.00     0.231 C 
HETATM   13  O   UNL     1      20.486  50.897  50.744  1.00  0.00    -0.272 OA
HETATM   14  H   UNL     1      20.258  49.191  48.070  1.00  0.00     0.169 HD
BRANCH  12  15
HETATM   15  C   UNL     1      18.516  50.285  49.447  1.00  0.00     0.115 C 
BRANCH  15  16
HETATM   16  C   UNL     1      17.906  51.602  48.876  1.00  0.00    -0.001 C 
HETATM   17  C   UNL     1      18.945  52.571  48.292  1.00  0.00     0.011 C 
BRANCH  16  18
HETATM   18  C   UNL     1      17.005  52.362  49.878  1.00  0.00     0.001 C 
HETATM   19  C   UNL     1      15.514  52.218  49.605  1.00  0.00     0.005 C 
ENDBRANCH  16  18
ENDBRANCH  15  16
BRANCH  15  20
HETATM   20  C   UNL     1      18.126  49.074  48.594  1.00  0.00    -0.045 A 
HETATM   21  C   UNL     1      17.833  47.853  49.222  1.00  0.00     0.008 A 
HETATM   22  C   UNL     1      17.471  46.733  48.470  1.00  0.00     0.001 A 
HETATM   23  C   UNL     1      17.394  46.822  47.082  1.00  0.00     0.000 A 
HETATM   24  C   UNL     1      17.672  48.028  46.445  1.00  0.00     0.001 A 
HETATM   25  C   UNL     1      18.030  49.150  47.195  1.00  0.00     0.008 A 
ENDBRANCH  15  20
ENDBRANCH  12  15
ENDBRANCH   1  11
BRANCH   8  26
HETATM   26  C   UNL     1      25.423  46.722  50.622  1.00  0.00     0.270 C 
HETATM   27  N   UNL     1      25.844  45.550  50.055  1.00  0.00    -0.365 N 
HETATM   28  H   UNL     1      26.158  45.563  49.092  1.00  0.00     0.159 HD
HETATM   29  H   UNL     1      25.864  44.708  50.607  1.00  0.00     0.159 HD
HETATM   30  O   UNL     1      25.053  46.763  51.791  1.00  0.00    -0.266 OA
ENDBRANCH   8  26
TORSDOF 6
ENDMDL
MODEL 10
REMARK VINA RESULT:      -7.7      2.103      4.451
REMARK  6 active torsions:
REMARK  status: ('A' for Active; 'I' for Inactive)
REMARK    1  A    between atoms: C_2  and  C_3 
REMARK    2  A    between atoms: C_3  and  C_4 
REMARK    3  A    between atoms: C_4  and  C_5 
REMARK    4  A    between atoms: C_4  and  C_21 
REMARK       I    between atoms: C_5  and  N_6 
REMARK    5  A    between atoms: N_6  and  C_7 
REMARK    6  A    between atoms: C_14  and  C_15 
REMARK       I    between atoms: C_15  and  N_16 
ROOT
HETATM    1  C   UNL     1      27.441  41.881  51.958  1.00  0.00     0.035 A 
HETATM    2  C   UNL     1      26.356  42.174  51.121  1.00  0.00     0.046 A 
HETATM    3  C   UNL     1      26.106  41.361  49.993  1.00  0.00     0.030 A 
HETATM    4  C   UNL     1      26.958  40.295  49.732  1.00  0.00     0.063 A 
HETATM    5  N   UNL     1      26.472  39.711  48.597  1.00  0.00    -0.277 N 
HETATM    6  H   UNL     1      26.849  38.904  48.113  1.00  0.00     0.189 HD
HETATM    7  N   UNL     1      25.368  40.291  48.100  1.00  0.00    -0.168 NA
HETATM    8  C   UNL     1      25.127  41.313  48.954  1.00  0.00     0.156 A 
HETATM    9  C   UNL     1      28.052  39.979  50.539  1.00  0.00     0.034 A 
HETATM   10  C   UNL     1      28.269  40.790  51.660  1.00  0.00     0.032 A 
ENDROOT
BRANCH   1  11
HETATM   11  N   UNL     1      27.749  42.608  53.127  1.00  0.00    -0.327 N 
HETATM   12  C   UNL     1      28.832  43.454  53.346  1.00  0.00     0.231 C 
HETATM   13  O   UNL     1      29.771  43.614  52.574  1.00  0.00    -0.272 OA
HETATM   14  H   UNL     1      27.077  42.541  53.882  1.00  0.00     0.169 HD
BRANCH  12  15
HETATM   15  C   UNL     1      28.744  44.173  54.712  1.00  0.00     0.115 C 
BRANCH  15  16
HETATM   16  C   UNL     1      30.104  44.392  55.443  1.00  0.00    -0.001 C 
HETATM   17  C   UNL     1      30.894  43.098  55.695  1.00  0.00     0.011 C 
BRANCH  16  18
HETATM   18  C   UNL     1      29.984  45.183  56.766  1.00  0.00     0.001 C 
HETATM   19  C   UNL     1      30.968  44.745  57.843  1.00  0.00     0.005 C 
ENDBRANCH  16  18
ENDBRANCH  15  16
BRANCH  15  20
HETATM   20  C   UNL     1      27.931  45.469  54.646  1.00  0.00    -0.045 A 
HETATM   21  C   UNL     1      26.560  45.411  54.350  1.00  0.00     0.008 A 
HETATM   22  C   UNL     1      25.794  46.577  54.287  1.00  0.00     0.001 A 
HETATM   23  C   UNL     1      26.387  47.814  54.522  1.00  0.00     0.000 A 
HETATM   24  C   UNL     1      27.744  47.888  54.827  1.00  0.00     0.001 A 
HETATM   25  C   UNL     1      28.511  46.724  54.895  1.00  0.00     0.008 A 
ENDBRANCH  15  20
ENDBRANCH  12  15
ENDBRANCH   1  11
BRANCH   8  26
HETATM   26  C   UNL     1      23.972  42.202  48.768  1.00  0.00     0.270 C 
HETATM   27  N   UNL     1      24.281  43.406  48.195  1.00  0.00    -0.365 N 
HETATM   28  H   UNL     1      25.245  43.587  47.939  1.00  0.00     0.159 HD
HETATM   29  H   UNL     1      23.550  44.073  48.011  1.00  0.00     0.159 HD
HETATM   30  O   UNL     1      22.818  41.927  49.077  1.00  0.00    -0.266 OA
ENDBRANCH   8  26
TORSDOF 6
ENDMDL
