MODEL 1
REMARK VINA RESULT:      -7.6      0.000      0.000
REMARK  4 active torsions:
REMARK  status: ('A' for Active; 'I' for Inactive)
REMARK    1  A    between atoms: C_7  and  N_8 
REMARK    2  A    between atoms: N_8  and  C_9 
REMARK    3  A    between atoms: C_9  and  C_10 
REMARK    4  A    between atoms: C_11  and  O_12 
ROOT
HETATM    1  N   UNL     1      27.397  46.591  54.429  1.00  0.00    -0.222 N 
HETATM    2  H   UNL     1      27.427  47.597  54.351  1.00  0.00     0.178 HD
ENDROOT
BRANCH   1   3
HETATM    3  C   UNL     1      28.357  45.994  55.148  1.00  0.00     0.679 A 
HETATM    4  N   UNL     1      29.015  44.915  54.760  1.00  0.00    -0.190 N 
HETATM    5  C   UNL     1      29.932  44.544  55.722  1.00  0.00     0.076 A 
HETATM    6  H   UNL     1      28.880  44.424  53.887  1.00  0.00     0.184 HD
HETATM    7  C   UNL     1      29.789  45.470  56.757  1.00  0.00     0.076 A 
HETATM    8  C   UNL     1      30.846  43.500  55.771  1.00  0.00     0.032 A 
HETATM    9  C   UNL     1      30.546  45.415  57.921  1.00  0.00     0.032 A 
HETATM   10  N   UNL     1      28.803  46.340  56.344  1.00  0.00    -0.190 N 
HETATM   11  C   UNL     1      31.475  44.365  57.988  1.00  0.00     0.002 A 
HETATM   12  C   UNL     1      31.624  43.431  56.937  1.00  0.00     0.002 A 
HETATM   13  H   UNL     1      28.448  47.113  56.892  1.00  0.00     0.184 HD
ENDBRANCH   1   3
BRANCH   1  14
HETATM   14  C   UNL     1      26.217  45.873  53.956  1.00  0.00     0.179 C 
BRANCH  14  15
HETATM   15  C   UNL     1      26.078  45.905  52.457  1.00  0.00    -0.006 A 
HETATM   16  C   UNL     1      26.788  44.969  51.691  1.00  0.00     0.073 A 
HETATM   17  C   UNL     1      26.676  44.920  50.302  1.00  0.00     0.038 A 
HETATM   18  C   UNL     1      25.836  45.821  49.649  1.00  0.00     0.022 A 
HETATM   19  C   UNL     1      25.114  46.750  50.392  1.00  0.00     0.011 A 
HETATM   20 BR   UNL     1      23.973  47.973  49.510  1.00  0.00    -0.051 Br
HETATM   21  C   UNL     1      25.222  46.791  51.784  1.00  0.00     0.030 A 
BRANCH  16  22
HETATM   22  O   UNL     1      27.602  44.088  52.345  1.00  0.00    -0.360 OA
HETATM   23  H   UNL     1      27.547  43.217  51.907  1.00  0.00     0.217 HD
ENDBRANCH  16  22
ENDBRANCH  14  15
ENDBRANCH   1  14
TORSDOF 4
ENDMDL
MODEL 2
REMARK VINA RESULT:      -7.5      3.690      7.455
REMARK  4 active torsions:
REMARK  status: ('A' for Active; 'I' for Inactive)
REMARK    1  A    between atoms: C_7  and  N_8 
REMARK    2  A    between atoms: N_8  and  C_9 
REMARK    3  A    between atoms: C_9  and  C_10 
REMARK    4  A    between atoms: C_11  and  O_12 
ROOT
HETATM    1  N   UNL     1      25.219  45.260  51.698  1.00  0.00    -0.222 N 
HETATM    2  H   UNL     1      25.129  44.350  51.272  1.00  0.00     0.178 HD
ENDROOT
BRANCH   1   3
HETATM    3  C   UNL     1      25.263  46.325  50.887  1.00  0.00     0.679 A 
HETATM    4  N   UNL     1      26.380  46.914  50.493  1.00  0.00    -0.190 N 
HETATM    5  C   UNL     1      26.089  47.982  49.668  1.00  0.00     0.076 A 
HETATM    6  H   UNL     1      27.317  46.632  50.746  1.00  0.00     0.184 HD
HETATM    7  C   UNL     1      24.697  48.028  49.586  1.00  0.00     0.076 A 
HETATM    8  C   UNL     1      26.910  48.888  49.010  1.00  0.00     0.032 A 
HETATM    9  C   UNL     1      24.022  48.990  48.845  1.00  0.00     0.032 A 
HETATM   10  N   UNL     1      24.244  46.980  50.358  1.00  0.00    -0.190 N 
HETATM   11  C   UNL     1      24.837  49.916  48.173  1.00  0.00     0.002 A 
HETATM   12  C   UNL     1      26.247  49.865  48.252  1.00  0.00     0.002 A 
HETATM   13  H   UNL     1      23.269  46.764  50.523  1.00  0.00     0.184 HD
ENDBRANCH   1   3
BRANCH   1  14
HETATM   14  C   UNL     1      25.075  45.388  53.146  1.00  0.00     0.179 C 
BRANCH  14  15
HETATM   15  C   UNL     1      26.371  45.733  53.831  1.00  0.00    -0.006 A 
HETATM   16  C   UNL     1      26.560  47.040  54.305  1.00  0.00     0.073 A 
HETATM   17  C   UNL     1      27.719  47.416  54.981  1.00  0.00     0.038 A 
HETATM   18  C   UNL     1      28.724  46.473  55.197  1.00  0.00     0.022 A 
HETATM   19  C   UNL     1      28.551  45.168  54.746  1.00  0.00     0.011 A 
HETATM   20 BR   UNL     1      29.909  43.887  55.039  1.00  0.00    -0.051 Br
HETATM   21  C   UNL     1      27.383  44.792  54.076  1.00  0.00     0.030 A 
BRANCH  16  22
HETATM   22  O   UNL     1      25.565  47.952  54.091  1.00  0.00    -0.360 OA
HETATM   23  H   UNL     1      25.867  48.606  53.433  1.00  0.00     0.217 HD
ENDBRANCH  16  22
ENDBRANCH  14  15
ENDBRANCH   1  14
TORSDOF 4
ENDMDL
MODEL 3
REMARK VINA RESULT:      -7.4      1.904      2.561
REMARK  4 active torsions:
REMARK  status: ('A' for Active; 'I' for Inactive)
REMARK    1  A    between atoms: C_7  and  N_8 
REMARK    2  A    between atoms: N_8  and  C_9 
REMARK    3  A    between atoms: C_9  and  C_10 
REMARK    4  A    between atoms: C_11  and  O_12 
ROOT
HETATM    1  N   UNL     1      27.350  46.626  54.384  1.00  0.00    -0.222 N 
HETATM    2  H   UNL     1      27.385  47.631  54.302  1.00  0.00     0.178 HD
ENDROOT
BRANCH   1   3
HETATM    3  C   UNL     1      28.301  46.027  55.113  1.00  0.00     0.679 A 
HETATM    4  N   UNL     1      28.681  46.429  56.314  1.00  0.00    -0.190 N 
HETATM    5  C   UNL     1      29.681  45.610  56.796  1.00  0.00     0.076 A 
HETATM    6  H   UNL     1      28.301  47.217  56.820  1.00  0.00     0.184 HD
HETATM    7  C   UNL     1      29.912  44.665  55.794  1.00  0.00     0.076 A 
HETATM    8  C   UNL     1      30.385  45.621  57.993  1.00  0.00     0.032 A 
HETATM    9  C   UNL     1      30.871  43.668  55.913  1.00  0.00     0.032 A 
HETATM   10  N   UNL     1      29.030  44.975  54.782  1.00  0.00    -0.190 N 
HETATM   11  C   UNL     1      31.593  43.664  57.117  1.00  0.00     0.002 A 
HETATM   12  C   UNL     1      31.355  44.616  58.134  1.00  0.00     0.002 A 
HETATM   13  H   UNL     1      28.972  44.487  53.897  1.00  0.00     0.184 HD
ENDBRANCH   1   3
BRANCH   1  14
HETATM   14  C   UNL     1      26.169  45.912  53.905  1.00  0.00     0.179 C 
BRANCH  14  15
HETATM   15  C   UNL     1      26.308  45.449  52.479  1.00  0.00    -0.006 A 
HETATM   16  C   UNL     1      26.146  46.383  51.445  1.00  0.00     0.073 A 
HETATM   17  C   UNL     1      26.297  46.029  50.105  1.00  0.00     0.038 A 
HETATM   18  C   UNL     1      26.619  44.713  49.775  1.00  0.00     0.022 A 
HETATM   19  C   UNL     1      26.795  43.774  50.786  1.00  0.00     0.011 A 
HETATM   20 BR   UNL     1      27.233  41.989  50.343  1.00  0.00    -0.051 Br
HETATM   21  C   UNL     1      26.652  44.134  52.129  1.00  0.00     0.030 A 
BRANCH  16  22
HETATM   22  O   UNL     1      25.837  47.670  51.783  1.00  0.00    -0.360 OA
HETATM   23  H   UNL     1      26.300  47.902  52.611  1.00  0.00     0.217 HD
ENDBRANCH  16  22
ENDBRANCH  14  15
ENDBRANCH   1  14
TORSDOF 4
ENDMDL
MODEL 4
REMARK VINA RESULT:      -7.3      5.205      7.726
REMARK  4 active torsions:
REMARK  status: ('A' for Active; 'I' for Inactive)
REMARK    1  A    between atoms: C_7  and  N_8 
REMARK    2  A    between atoms: N_8  and  C_9 
REMARK    3  A    between atoms: C_9  and  C_10 
REMARK    4  A    between atoms: C_11  and  O_12 
ROOT
HETATM    1  N   UNL     1      28.700  41.634  53.002  1.00  0.00    -0.222 N 
HETATM    2  H   UNL     1      28.722  41.173  53.900  1.00  0.00     0.178 HD
ENDROOT
BRANCH   1   3
HETATM    3  C   UNL     1      28.726  40.863  51.907  1.00  0.00     0.679 A 
HETATM    4  N   UNL     1      28.284  41.244  50.720  1.00  0.00    -0.190 N 
HETATM    5  C   UNL     1      28.444  40.225  49.803  1.00  0.00     0.076 A 
HETATM    6  H   UNL     1      27.888  42.148  50.499  1.00  0.00     0.184 HD
HETATM    7  C   UNL     1      29.010  39.164  50.512  1.00  0.00     0.076 A 
HETATM    8  C   UNL     1      28.144  40.147  48.450  1.00  0.00     0.032 A 
HETATM    9  C   UNL     1      29.310  37.944  49.921  1.00  0.00     0.032 A 
HETATM   10  N   UNL     1      29.160  39.619  51.805  1.00  0.00    -0.190 N 
HETATM   11  C   UNL     1      29.012  37.846  48.552  1.00  0.00     0.002 A 
HETATM   12  C   UNL     1      28.445  38.922  47.833  1.00  0.00     0.002 A 
HETATM   13  H   UNL     1      29.521  39.068  52.573  1.00  0.00     0.184 HD
ENDBRANCH   1   3
BRANCH   1  14
HETATM   14  C   UNL     1      28.422  43.066  52.943  1.00  0.00     0.179 C 
BRANCH  14  15
HETATM   15  C   UNL     1      29.002  43.821  54.110  1.00  0.00    -0.006 A 
HETATM   16  C   UNL     1      28.451  45.064  54.454  1.00  0.00     0.073 A 
HETATM   17  C   UNL     1      28.916  45.797  55.545  1.00  0.00     0.038 A 
HETATM   18  C   UNL     1      29.957  45.288  56.321  1.00  0.00     0.022 A 
HETATM   19  C   UNL     1      30.510  44.051  56.003  1.00  0.00     0.011 A 
HETATM   20 BR   UNL     1      31.919  43.356  57.053  1.00  0.00    -0.051 Br
HETATM   21  C   UNL     1      30.035  43.314  54.914  1.00  0.00     0.030 A 
BRANCH  16  22
HETATM   22  O   UNL     1      27.427  45.548  53.689  1.00  0.00    -0.360 OA
HETATM   23  H   UNL     1      27.605  45.341  52.752  1.00  0.00     0.217 HD
ENDBRANCH  16  22
ENDBRANCH  14  15
ENDBRANCH   1  14
TORSDOF 4
ENDMDL
MODEL 5
REMARK VINA RESULT:      -7.3      2.041      2.751
REMARK  4 active torsions:
REMARK  status: ('A' for Active; 'I' for Inactive)
REMARK    1  A    between atoms: C_7  and  N_8 
REMARK    2  A    between atoms: N_8  and  C_9 
REMARK    3  A    between atoms: C_9  and  C_10 
REMARK    4  A    between atoms: C_11  and  O_12 
ROOT
HETATM    1  N   UNL     1      27.045  42.387  52.605  1.00  0.00    -0.222 N 
HETATM    2  H   UNL     1      26.533  41.586  52.945  1.00  0.00     0.178 HD
ENDROOT
BRANCH   1   3
HETATM    3  C   UNL     1      27.878  43.000  53.457  1.00  0.00     0.679 A 
HETATM    4  N   UNL     1      28.956  42.437  53.976  1.00  0.00    -0.190 N 
HETATM    5  C   UNL     1      29.597  43.324  54.818  1.00  0.00     0.076 A 
HETATM    6  H   UNL     1      29.279  41.498  53.791  1.00  0.00     0.184 HD
HETATM    7  C   UNL     1      28.826  44.488  54.798  1.00  0.00     0.076 A 
HETATM    8  C   UNL     1      30.754  43.203  55.576  1.00  0.00     0.032 A 
HETATM    9  C   UNL     1      29.152  45.614  55.543  1.00  0.00     0.032 A 
HETATM   10  N   UNL     1      27.780  44.226  53.940  1.00  0.00    -0.190 N 
HETATM   11  C   UNL     1      30.319  45.510  56.316  1.00  0.00     0.002 A 
HETATM   12  C   UNL     1      31.102  44.334  56.332  1.00  0.00     0.002 A 
HETATM   13  H   UNL     1      27.026  44.870  53.735  1.00  0.00     0.184 HD
ENDBRANCH   1   3
BRANCH   1  14
HETATM   14  C   UNL     1      27.025  42.694  51.178  1.00  0.00     0.179 C 
BRANCH  14  15
HETATM   15  C   UNL     1      26.201  43.913  50.856  1.00  0.00    -0.006 A 
HETATM   16  C   UNL     1      24.811  43.858  51.033  1.00  0.00     0.073 A 
HETATM   17  C   UNL     1      23.995  44.961  50.790  1.00  0.00     0.038 A 
HETATM   18  C   UNL     1      24.568  46.157  50.359  1.00  0.00     0.022 A 
HETATM   19  C   UNL     1      25.947  46.236  50.188  1.00  0.00     0.011 A 
HETATM   20 BR   UNL     1      26.728  47.856  49.606  1.00  0.00    -0.051 Br
HETATM   21  C   UNL     1      26.763  45.131  50.442  1.00  0.00     0.030 A 
BRANCH  16  22
HETATM   22  O   UNL     1      24.264  42.681  51.462  1.00  0.00    -0.360 OA
HETATM   23  H   UNL     1      24.967  42.007  51.525  1.00  0.00     0.217 HD
ENDBRANCH  16  22
ENDBRANCH  14  15
ENDBRANCH   1  14
TORSDOF 4
ENDMDL
MODEL 6
REMARK VINA RESULT:      -7.3      5.114      7.613
REMARK  4 active torsions:
REMARK  status: ('A' for Active; 'I' for Inactive)
REMARK    1  A    between atoms: C_7  and  N_8 
REMARK    2  A    between atoms: N_8  and  C_9 
REMARK    3  A    between atoms: C_9  and  C_10 
REMARK    4  A    between atoms: C_11  and  O_12 
ROOT
HETATM    1  N   UNL     1      27.288  41.818  52.260  1.00  0.00    -0.222 N 
HETATM    2  H   UNL     1      26.596  41.612  52.965  1.00  0.00     0.178 HD
ENDROOT
BRANCH   1   3
HETATM    3  C   UNL     1      27.520  40.887  51.325  1.00  0.00     0.679 A 
HETATM    4  N   UNL     1      26.589  40.103  50.810  1.00  0.00    -0.190 N 
HETATM    5  C   UNL     1      27.146  39.251  49.878  1.00  0.00     0.076 A 
HETATM    6  H   UNL     1      25.607  40.116  51.049  1.00  0.00     0.184 HD
HETATM    7  C   UNL     1      28.509  39.552  49.859  1.00  0.00     0.076 A 
HETATM    8  C   UNL     1      26.584  38.266  49.077  1.00  0.00     0.032 A 
HETATM    9  C   UNL     1      29.412  38.883  49.041  1.00  0.00     0.032 A 
HETATM   10  N   UNL     1      28.678  40.570  50.772  1.00  0.00    -0.190 N 
HETATM   11  C   UNL     1      28.861  37.883  48.224  1.00  0.00     0.002 A 
HETATM   12  C   UNL     1      27.480  37.582  48.240  1.00  0.00     0.002 A 
HETATM   13  H   UNL     1      29.567  40.991  51.009  1.00  0.00     0.184 HD
ENDBRANCH   1   3
BRANCH   1  14
HETATM   14  C   UNL     1      27.826  43.172  52.163  1.00  0.00     0.179 C 
BRANCH  14  15
HETATM   15  C   UNL     1      28.623  43.570  53.378  1.00  0.00    -0.006 A 
HETATM   16  C   UNL     1      29.846  42.930  53.626  1.00  0.00     0.073 A 
HETATM   17  C   UNL     1      30.649  43.275  54.711  1.00  0.00     0.038 A 
HETATM   18  C   UNL     1      30.234  44.286  55.579  1.00  0.00     0.022 A 
HETATM   19  C   UNL     1      29.030  44.942  55.343  1.00  0.00     0.011 A 
HETATM   20 BR   UNL     1      28.464  46.313  56.515  1.00  0.00    -0.051 Br
HETATM   21  C   UNL     1      28.230  44.599  54.249  1.00  0.00     0.030 A 
BRANCH  16  22
HETATM   22  O   UNL     1      30.243  41.946  52.765  1.00  0.00    -0.360 OA
HETATM   23  H   UNL     1      29.707  41.999  51.951  1.00  0.00     0.217 HD
ENDBRANCH  16  22
ENDBRANCH  14  15
ENDBRANCH   1  14
TORSDOF 4
ENDMDL
MODEL 7
REMARK VINA RESULT:      -7.3      4.459      5.295
REMARK  4 active torsions:
REMARK  status: ('A' for Active; 'I' for Inactive)
REMARK    1  A    between atoms: C_7  and  N_8 
REMARK    2  A    between atoms: N_8  and  C_9 
REMARK    3  A    between atoms: C_9  and  C_10 
REMARK    4  A    between atoms: C_11  and  O_12 
ROOT
HETATM    1  N   UNL     1      27.140  41.987  52.523  1.00  0.00    -0.222 N 
HETATM    2  H   UNL     1      26.745  41.127  52.875  1.00  0.00     0.178 HD
ENDROOT
BRANCH   1   3
HETATM    3  C   UNL     1      27.899  42.710  53.358  1.00  0.00     0.679 A 
HETATM    4  N   UNL     1      29.009  42.268  53.924  1.00  0.00    -0.190 N 
HETATM    5  C   UNL     1      29.554  43.247  54.731  1.00  0.00     0.076 A 
HETATM    6  H   UNL     1      29.416  41.352  53.792  1.00  0.00     0.184 HD
HETATM    7  C   UNL     1      28.687  44.337  54.640  1.00  0.00     0.076 A 
HETATM    8  C   UNL     1      30.700  43.263  55.515  1.00  0.00     0.032 A 
HETATM    9  C   UNL     1      28.900  45.522  55.333  1.00  0.00     0.032 A 
HETATM   10  N   UNL     1      27.686  43.945  53.777  1.00  0.00    -0.190 N 
HETATM   11  C   UNL     1      30.054  45.556  56.131  1.00  0.00     0.002 A 
HETATM   12  C   UNL     1      30.934  44.454  56.219  1.00  0.00     0.002 A 
HETATM   13  H   UNL     1      26.885  44.511  53.527  1.00  0.00     0.184 HD
ENDBRANCH   1   3
BRANCH   1  14
HETATM   14  C   UNL     1      27.054  42.281  51.096  1.00  0.00     0.179 C 
BRANCH  14  15
HETATM   15  C   UNL     1      27.660  41.199  50.241  1.00  0.00    -0.006 A 
HETATM   16  C   UNL     1      27.610  41.330  48.845  1.00  0.00     0.073 A 
HETATM   17  C   UNL     1      28.184  40.384  47.998  1.00  0.00     0.038 A 
HETATM   18  C   UNL     1      28.829  39.275  48.543  1.00  0.00     0.022 A 
HETATM   19  C   UNL     1      28.900  39.132  49.926  1.00  0.00     0.011 A 
HETATM   20 BR   UNL     1      29.776  37.631  50.670  1.00  0.00    -0.051 Br
HETATM   21  C   UNL     1      28.332  40.087  50.774  1.00  0.00     0.030 A 
BRANCH  16  22
HETATM   22  O   UNL     1      26.980  42.425  48.325  1.00  0.00    -0.360 OA
HETATM   23  H   UNL     1      26.681  42.220  47.419  1.00  0.00     0.217 HD
ENDBRANCH  16  22
ENDBRANCH  14  15
ENDBRANCH   1  14
TORSDOF 4
ENDMDL
MODEL 8
REMARK VINA RESULT:      -7.2      3.809      8.208
REMARK  4 active torsions:
REMARK  status: ('A' for Active; 'I' for Inactive)
REMARK    1  A    between atoms: C_7  and  N_8 
REMARK    2  A    between atoms: N_8  and  C_9 
REMARK    3  A    between atoms: C_9  and  C_10 
REMARK    4  A    between atoms: C_11  and  O_12 
ROOT
HETATM    1  N   UNL     1      25.561  45.819  50.796  1.00  0.00    -0.222 N 
HETATM    2  H   UNL     1      26.160  45.207  50.263  1.00  0.00     0.178 HD
ENDROOT
BRANCH   1   3
HETATM    3  C   UNL     1      24.954  46.819  50.143  1.00  0.00     0.679 A 
HETATM    4  N   UNL     1      25.573  47.896  49.690  1.00  0.00    -0.190 N 
HETATM    5  C   UNL     1      24.672  48.737  49.069  1.00  0.00     0.076 A 
HETATM    6  H   UNL     1      26.562  48.088  49.775  1.00  0.00     0.184 HD
HETATM    7  C   UNL     1      23.430  48.109  49.180  1.00  0.00     0.076 A 
HETATM    8  C   UNL     1      24.839  49.964  48.442  1.00  0.00     0.032 A 
HETATM    9  C   UNL     1      22.262  48.667  48.677  1.00  0.00     0.032 A 
HETATM   10  N   UNL     1      23.669  46.929  49.851  1.00  0.00    -0.190 N 
HETATM   11  C   UNL     1      22.411  49.909  48.039  1.00  0.00     0.002 A 
HETATM   12  C   UNL     1      23.669  50.542  47.922  1.00  0.00     0.002 A 
HETATM   13  H   UNL     1      22.957  46.259  50.112  1.00  0.00     0.184 HD
ENDBRANCH   1   3
BRANCH   1  14
HETATM   14  C   UNL     1      25.218  45.463  52.170  1.00  0.00     0.179 C 
BRANCH  14  15
HETATM   15  C   UNL     1      26.351  45.702  53.133  1.00  0.00    -0.006 A 
HETATM   16  C   UNL     1      26.423  46.932  53.804  1.00  0.00     0.073 A 
HETATM   17  C   UNL     1      27.423  47.203  54.735  1.00  0.00     0.038 A 
HETATM   18  C   UNL     1      28.383  46.231  55.016  1.00  0.00     0.022 A 
HETATM   19  C   UNL     1      28.322  44.999  54.370  1.00  0.00     0.011 A 
HETATM   20 BR   UNL     1      29.620  43.678  54.748  1.00  0.00    -0.051 Br
HETATM   21  C   UNL     1      27.313  44.727  53.443  1.00  0.00     0.030 A 
BRANCH  16  22
HETATM   22  O   UNL     1      25.473  47.873  53.524  1.00  0.00    -0.360 OA
HETATM   23  H   UNL     1      25.905  48.742  53.424  1.00  0.00     0.217 HD
ENDBRANCH  16  22
ENDBRANCH  14  15
ENDBRANCH   1  14
TORSDOF 4
ENDMDL
MODEL 9
REMARK VINA RESULT:      -7.1      1.673      2.772
REMARK  4 active torsions:
REMARK  status: ('A' for Active; 'I' for Inactive)
REMARK    1  A    between atoms: C_7  and  N_8 
REMARK    2  A    between atoms: N_8  and  C_9 
REMARK    3  A    between atoms: C_9  and  C_10 
REMARK    4  A    between atoms: C_11  and  O_12 
ROOT
HETATM    1  N   UNL     1      29.586  43.083  52.992  1.00  0.00    -0.222 N 
HETATM    2  H   UNL     1      30.243  43.247  52.244  1.00  0.00     0.178 HD
ENDROOT
BRANCH   1   3
HETATM    3  C   UNL     1      29.891  43.565  54.204  1.00  0.00     0.679 A 
HETATM    4  N   UNL     1      29.335  44.640  54.738  1.00  0.00    -0.190 N 
HETATM    5  C   UNL     1      29.866  44.878  55.990  1.00  0.00     0.076 A 
HETATM    6  H   UNL     1      28.622  45.211  54.307  1.00  0.00     0.184 HD
HETATM    7  C   UNL     1      30.813  43.873  56.196  1.00  0.00     0.076 A 
HETATM    8  C   UNL     1      29.603  45.866  56.929  1.00  0.00     0.032 A 
HETATM    9  C   UNL     1      31.573  43.789  57.356  1.00  0.00     0.032 A 
HETATM   10  N   UNL     1      30.782  43.094  55.060  1.00  0.00    -0.190 N 
HETATM   11  C   UNL     1      31.322  44.780  58.317  1.00  0.00     0.002 A 
HETATM   12  C   UNL     1      30.359  45.794  58.110  1.00  0.00     0.002 A 
HETATM   13  H   UNL     1      31.380  42.295  54.891  1.00  0.00     0.184 HD
ENDBRANCH   1   3
BRANCH   1  14
HETATM   14  C   UNL     1      28.268  42.539  52.678  1.00  0.00     0.179 C 
BRANCH  14  15
HETATM   15  C   UNL     1      27.219  43.609  52.520  1.00  0.00    -0.006 A 
HETATM   16  C   UNL     1      26.300  43.815  53.558  1.00  0.00     0.073 A 
HETATM   17  C   UNL     1      25.328  44.812  53.492  1.00  0.00     0.038 A 
HETATM   18  C   UNL     1      25.262  45.633  52.366  1.00  0.00     0.022 A 
HETATM   19  C   UNL     1      26.173  45.452  51.330  1.00  0.00     0.011 A 
HETATM   20 BR   UNL     1      26.088  46.563  49.803  1.00  0.00    -0.051 Br
HETATM   21  C   UNL     1      27.152  44.457  51.403  1.00  0.00     0.030 A 
BRANCH  16  22
HETATM   22  O   UNL     1      26.380  43.008  54.658  1.00  0.00    -0.360 OA
HETATM   23  H   UNL     1      25.535  43.047  55.145  1.00  0.00     0.217 HD
ENDBRANCH  16  22
ENDBRANCH  14  15
ENDBRANCH   1  14
TORSDOF 4
ENDMDL
MODEL 10
REMARK VINA RESULT:      -7.0      3.956      4.864
REMARK  4 active torsions:
REMARK  status: ('A' for Active; 'I' for Inactive)
REMARK    1  A    between atoms: C_7  and  N_8 
REMARK    2  A    between atoms: N_8  and  C_9 
REMARK    3  A    between atoms: C_9  and  C_10 
REMARK    4  A    between atoms: C_11  and  O_12 
ROOT
HETATM    1  N   UNL     1      29.621  42.190  52.440  1.00  0.00    -0.222 N 
HETATM    2  H   UNL     1      29.956  42.543  51.556  1.00  0.00     0.178 HD
ENDROOT
BRANCH   1   3
HETATM    3  C   UNL     1      29.622  43.029  53.485  1.00  0.00     0.679 A 
HETATM    4  N   UNL     1      30.538  43.027  54.439  1.00  0.00    -0.190 N 
HETATM    5  C   UNL     1      30.256  44.005  55.371  1.00  0.00     0.076 A 
HETATM    6  H   UNL     1      31.335  42.408  54.491  1.00  0.00     0.184 HD
HETATM    7  C   UNL     1      29.080  44.616  54.935  1.00  0.00     0.076 A 
HETATM    8  C   UNL     1      30.916  44.390  56.530  1.00  0.00     0.032 A 
HETATM    9  C   UNL     1      28.472  45.653  55.631  1.00  0.00     0.032 A 
HETATM   10  N   UNL     1      28.738  43.970  53.765  1.00  0.00    -0.190 N 
HETATM   11  C   UNL     1      29.125  46.055  56.807  1.00  0.00     0.002 A 
HETATM   12  C   UNL     1      30.319  45.441  57.246  1.00  0.00     0.002 A 
HETATM   13  H   UNL     1      27.910  44.168  53.218  1.00  0.00     0.184 HD
ENDBRANCH   1   3
BRANCH   1  14
HETATM   14  C   UNL     1      28.960  40.889  52.486  1.00  0.00     0.179 C 
BRANCH  14  15
HETATM   15  C   UNL     1      28.053  40.655  51.307  1.00  0.00    -0.006 A 
HETATM   16  C   UNL     1      26.855  41.381  51.219  1.00  0.00     0.073 A 
HETATM   17  C   UNL     1      25.989  41.240  50.137  1.00  0.00     0.038 A 
HETATM   18  C   UNL     1      26.313  40.357  49.107  1.00  0.00     0.022 A 
HETATM   19  C   UNL     1      27.502  39.636  49.170  1.00  0.00     0.011 A 
HETATM   20 BR   UNL     1      27.947  38.439  47.776  1.00  0.00    -0.051 Br
HETATM   21  C   UNL     1      28.374  39.786  50.252  1.00  0.00     0.030 A 
BRANCH  16  22
HETATM   22  O   UNL     1      26.553  42.248  52.231  1.00  0.00    -0.360 OA
HETATM   23  H   UNL     1      25.598  42.447  52.206  1.00  0.00     0.217 HD
ENDBRANCH  16  22
ENDBRANCH  14  15
ENDBRANCH   1  14
TORSDOF 4
ENDMDL
