MODEL 1
REMARK VINA RESULT:      -9.2      0.000      0.000
REMARK  4 active torsions:
REMARK  status: ('A' for Active; 'I' for Inactive)
REMARK    1  A    between atoms: N_3  and  C_4 
REMARK    2  A    between atoms: C_4  and  C_5 
REMARK    3  A    between atoms: C_5  and  C_6 
REMARK       I    between atoms: C_6  and  N_7 
REMARK    4  A    between atoms: N_7  and  C_8 
ROOT
HETATM    1  C   UNL     1      23.877  45.399  49.650  1.00  0.00     0.035 A 
HETATM    2  C   UNL     1      24.350  45.306  50.958  1.00  0.00     0.049 A 
HETATM    3  C   UNL     1      25.187  44.247  51.356  1.00  0.00     0.061 A 
HETATM    4  C   UNL     1      25.551  43.260  50.432  1.00  0.00     0.050 A 
HETATM    5  N   UNL     1      26.493  42.238  50.646  1.00  0.00    -0.324 N 
HETATM    6  C   UNL     1      27.629  42.294  51.415  1.00  0.00     0.245 C 
HETATM    7  O   UNL     1      28.450  41.382  51.299  1.00  0.00    -0.271 OA
HETATM    8  C   UNL     1      27.904  43.568  52.214  1.00  0.00     0.180 C 
HETATM    9  N   UNL     1      26.815  43.821  53.143  1.00  0.00    -0.334 N 
HETATM   10  C   UNL     1      25.549  44.218  52.794  1.00  0.00     0.256 C 
HETATM   11  O   UNL     1      24.715  44.566  53.626  1.00  0.00    -0.267 OA
HETATM   12  C   UNL     1      29.150  43.466  53.103  1.00  0.00     0.037 C 
HETATM   13  C   UNL     1      28.766  44.253  54.349  1.00  0.00     0.022 C 
HETATM   14  C   UNL     1      27.293  43.924  54.509  1.00  0.00     0.127 C 
HETATM   15  C   UNL     1      24.964  43.287  49.159  1.00  0.00     0.033 A 
HETATM   16  C   UNL     1      24.148  44.353  48.766  1.00  0.00     0.032 A 
HETATM   17  H   UNL     1      26.516  41.459  49.998  1.00  0.00     0.169 HD
ENDROOT
BRANCH   1  18
HETATM   18  N   UNL     1      23.215  46.532  49.132  1.00  0.00    -0.327 N 
HETATM   19  C   UNL     1      23.562  47.853  49.333  1.00  0.00     0.224 C 
HETATM   20  O   UNL     1      24.293  48.287  50.218  1.00  0.00    -0.273 OA
HETATM   21  H   UNL     1      22.445  46.348  48.496  1.00  0.00     0.169 HD
BRANCH  19  22
HETATM   22  C   UNL     1      23.000  48.801  48.291  1.00  0.00     0.134 C 
BRANCH  22  23
HETATM   23  C   UNL     1      21.540  49.257  48.529  1.00  0.00     0.044 C 
HETATM   24  C   UNL     1      21.274  50.455  47.561  1.00  0.00     0.032 C 
HETATM   25  C   UNL     1      19.935  51.147  47.800  1.00  0.00     0.002 C 
HETATM   26  C   UNL     1      19.830  51.653  49.231  1.00  0.00     0.000 C 
HETATM   27  C   UNL     1      20.062  50.532  50.235  1.00  0.00     0.002 C 
HETATM   28  C   UNL     1      21.386  49.804  49.981  1.00  0.00     0.032 C 
BRANCH  23  29
HETATM   29  N   UNL     1      20.641  48.120  48.218  1.00  0.00    -0.356 N 
HETATM   30  C   UNL     1      19.739  47.563  49.102  1.00  0.00     0.091 A 
HETATM   31  C   UNL     1      19.027  46.581  48.451  1.00  0.00     0.019 A 
HETATM   32  C   UNL     1      19.476  46.557  47.116  1.00  0.00     0.019 A 
HETATM   33  C   UNL     1      20.448  47.526  46.994  1.00  0.00     0.091 A 
ENDBRANCH  23  29
ENDBRANCH  22  23
ENDBRANCH  19  22
ENDBRANCH   1  18
TORSDOF 4
ENDMDL
MODEL 2
REMARK VINA RESULT:      -9.0      3.286      6.152
REMARK  4 active torsions:
REMARK  status: ('A' for Active; 'I' for Inactive)
REMARK    1  A    between atoms: N_3  and  C_4 
REMARK    2  A    between atoms: C_4  and  C_5 
REMARK    3  A    between atoms: C_5  and  C_6 
REMARK       I    between atoms: C_6  and  N_7 
REMARK    4  A    between atoms: N_7  and  C_8 
ROOT
HETATM    1  C   UNL     1      21.404  50.247  48.042  1.00  0.00     0.035 A 
HETATM    2  C   UNL     1      21.623  48.892  48.284  1.00  0.00     0.049 A 
HETATM    3  C   UNL     1      22.919  48.393  48.514  1.00  0.00     0.061 A 
HETATM    4  C   UNL     1      24.016  49.264  48.492  1.00  0.00     0.050 A 
HETATM    5  N   UNL     1      25.336  48.936  48.850  1.00  0.00    -0.324 N 
HETATM    6  C   UNL     1      25.745  48.038  49.804  1.00  0.00     0.245 C 
HETATM    7  O   UNL     1      26.932  48.052  50.139  1.00  0.00    -0.271 OA
HETATM    8  C   UNL     1      24.682  47.218  50.535  1.00  0.00     0.180 C 
HETATM    9  N   UNL     1      23.922  46.424  49.584  1.00  0.00    -0.334 N 
HETATM   10  C   UNL     1      23.024  46.922  48.672  1.00  0.00     0.256 C 
HETATM   11  O   UNL     1      22.296  46.197  48.000  1.00  0.00    -0.267 OA
HETATM   12  C   UNL     1      25.276  46.187  51.503  1.00  0.00     0.037 C 
HETATM   13  C   UNL     1      24.331  44.998  51.384  1.00  0.00     0.022 C 
HETATM   14  C   UNL     1      23.963  45.012  49.912  1.00  0.00     0.127 C 
HETATM   15  C   UNL     1      23.804  50.598  48.115  1.00  0.00     0.033 A 
HETATM   16  C   UNL     1      22.510  51.088  47.907  1.00  0.00     0.032 A 
HETATM   17  H   UNL     1      26.079  49.573  48.591  1.00  0.00     0.169 HD
ENDROOT
BRANCH   1  18
HETATM   18  N   UNL     1      20.126  50.844  48.014  1.00  0.00    -0.327 N 
HETATM   19  C   UNL     1      19.461  51.418  49.079  1.00  0.00     0.224 C 
HETATM   20  O   UNL     1      19.707  51.246  50.269  1.00  0.00    -0.273 OA
HETATM   21  H   UNL     1      19.685  50.914  47.102  1.00  0.00     0.169 HD
BRANCH  19  22
HETATM   22  C   UNL     1      18.370  52.389  48.671  1.00  0.00     0.134 C 
BRANCH  22  23
HETATM   23  C   UNL     1      17.041  51.738  48.214  1.00  0.00     0.044 C 
HETATM   24  C   UNL     1      17.079  50.248  48.688  1.00  0.00     0.032 C 
HETATM   25  C   UNL     1      15.921  49.409  48.153  1.00  0.00     0.002 C 
HETATM   26  C   UNL     1      15.889  49.429  46.632  1.00  0.00     0.000 C 
HETATM   27  C   UNL     1      15.835  50.854  46.097  1.00  0.00     0.002 C 
HETATM   28  C   UNL     1      16.969  51.717  46.656  1.00  0.00     0.032 C 
BRANCH  23  29
HETATM   29  N   UNL     1      15.921  52.466  48.856  1.00  0.00    -0.356 N 
HETATM   30  C   UNL     1      15.681  52.503  50.215  1.00  0.00     0.091 A 
HETATM   31  C   UNL     1      14.606  53.329  50.455  1.00  0.00     0.019 A 
HETATM   32  C   UNL     1      14.195  53.846  49.211  1.00  0.00     0.019 A 
HETATM   33  C   UNL     1      15.032  53.321  48.251  1.00  0.00     0.091 A 
ENDBRANCH  23  29
ENDBRANCH  22  23
ENDBRANCH  19  22
ENDBRANCH   1  18
TORSDOF 4
ENDMDL
MODEL 3
REMARK VINA RESULT:      -8.7      2.062      8.576
REMARK  4 active torsions:
REMARK  status: ('A' for Active; 'I' for Inactive)
REMARK    1  A    between atoms: N_3  and  C_4 
REMARK    2  A    between atoms: C_4  and  C_5 
REMARK    3  A    between atoms: C_5  and  C_6 
REMARK       I    between atoms: C_6  and  N_7 
REMARK    4  A    between atoms: N_7  and  C_8 
ROOT
HETATM    1  C   UNL     1      23.165  44.872  49.232  1.00  0.00     0.035 A 
HETATM    2  C   UNL     1      23.318  46.258  49.201  1.00  0.00     0.049 A 
HETATM    3  C   UNL     1      22.541  47.056  48.342  1.00  0.00     0.061 A 
HETATM    4  C   UNL     1      21.600  46.459  47.493  1.00  0.00     0.050 A 
HETATM    5  N   UNL     1      20.658  47.137  46.700  1.00  0.00    -0.324 N 
HETATM    6  C   UNL     1      20.026  48.323  46.980  1.00  0.00     0.245 C 
HETATM    7  O   UNL     1      19.065  48.645  46.279  1.00  0.00    -0.271 OA
HETATM    8  C   UNL     1      20.417  49.071  48.255  1.00  0.00     0.180 C 
HETATM    9  N   UNL     1      21.832  49.404  48.226  1.00  0.00    -0.334 N 
HETATM   10  C   UNL     1      22.862  48.505  48.343  1.00  0.00     0.256 C 
HETATM   11  O   UNL     1      24.032  48.855  48.468  1.00  0.00    -0.267 OA
HETATM   12  C   UNL     1      19.709  50.424  48.402  1.00  0.00     0.037 C 
HETATM   13  C   UNL     1      20.768  51.315  49.040  1.00  0.00     0.022 C 
HETATM   14  C   UNL     1      22.049  50.830  48.386  1.00  0.00     0.127 C 
HETATM   15  C   UNL     1      21.548  45.059  47.433  1.00  0.00     0.033 A 
HETATM   16  C   UNL     1      22.311  44.274  48.304  1.00  0.00     0.032 A 
HETATM   17  H   UNL     1      20.182  46.622  45.969  1.00  0.00     0.169 HD
ENDROOT
BRANCH   1  18
HETATM   18  N   UNL     1      23.753  44.038  50.206  1.00  0.00    -0.327 N 
HETATM   19  C   UNL     1      25.043  43.546  50.201  1.00  0.00     0.224 C 
HETATM   20  O   UNL     1      25.795  43.486  49.233  1.00  0.00    -0.273 OA
HETATM   21  H   UNL     1      23.185  43.836  51.024  1.00  0.00     0.169 HD
BRANCH  19  22
HETATM   22  C   UNL     1      25.540  43.110  51.565  1.00  0.00     0.134 C 
BRANCH  22  23
HETATM   23  C   UNL     1      26.221  44.217  52.407  1.00  0.00     0.044 C 
HETATM   24  C   UNL     1      25.273  44.519  53.613  1.00  0.00     0.032 C 
HETATM   25  C   UNL     1      25.708  45.724  54.443  1.00  0.00     0.002 C 
HETATM   26  C   UNL     1      25.801  46.975  53.582  1.00  0.00     0.000 C 
HETATM   27  C   UNL     1      26.725  46.760  52.390  1.00  0.00     0.002 C 
HETATM   28  C   UNL     1      26.323  45.530  51.571  1.00  0.00     0.032 C 
BRANCH  23  29
HETATM   29  N   UNL     1      27.529  43.705  52.880  1.00  0.00    -0.356 N 
HETATM   30  C   UNL     1      27.724  43.008  54.055  1.00  0.00     0.091 A 
HETATM   31  C   UNL     1      29.045  42.629  54.134  1.00  0.00     0.019 A 
HETATM   32  C   UNL     1      29.675  43.072  52.955  1.00  0.00     0.019 A 
HETATM   33  C   UNL     1      28.719  43.707  52.193  1.00  0.00     0.091 A 
ENDBRANCH  23  29
ENDBRANCH  22  23
ENDBRANCH  19  22
ENDBRANCH   1  18
TORSDOF 4
ENDMDL
MODEL 4
REMARK VINA RESULT:      -8.6     13.550     14.942
REMARK  4 active torsions:
REMARK  status: ('A' for Active; 'I' for Inactive)
REMARK    1  A    between atoms: N_3  and  C_4 
REMARK    2  A    between atoms: C_4  and  C_5 
REMARK    3  A    between atoms: C_5  and  C_6 
REMARK       I    between atoms: C_6  and  N_7 
REMARK    4  A    between atoms: N_7  and  C_8 
ROOT
HETATM    1  C   UNL     1      34.157  50.295  41.581  1.00  0.00     0.035 A 
HETATM    2  C   UNL     1      35.353  50.426  42.285  1.00  0.00     0.049 A 
HETATM    3  C   UNL     1      36.241  51.485  42.020  1.00  0.00     0.061 A 
HETATM    4  C   UNL     1      35.931  52.425  41.028  1.00  0.00     0.050 A 
HETATM    5  N   UNL     1      36.644  53.607  40.762  1.00  0.00    -0.324 N 
HETATM    6  C   UNL     1      37.314  54.401  41.659  1.00  0.00     0.245 C 
HETATM    7  O   UNL     1      37.683  55.515  41.283  1.00  0.00    -0.271 OA
HETATM    8  C   UNL     1      37.390  53.946  43.118  1.00  0.00     0.180 C 
HETATM    9  N   UNL     1      38.047  52.652  43.204  1.00  0.00    -0.334 N 
HETATM   10  C   UNL     1      37.516  51.461  42.777  1.00  0.00     0.256 C 
HETATM   11  O   UNL     1      38.047  50.380  43.015  1.00  0.00    -0.267 OA
HETATM   12  C   UNL     1      38.245  54.869  43.994  1.00  0.00     0.037 C 
HETATM   13  C   UNL     1      38.933  53.911  44.959  1.00  0.00     0.022 C 
HETATM   14  C   UNL     1      39.197  52.696  44.088  1.00  0.00     0.127 C 
HETATM   15  C   UNL     1      34.795  52.210  40.235  1.00  0.00     0.033 A 
HETATM   16  C   UNL     1      33.909  51.165  40.518  1.00  0.00     0.032 A 
HETATM   17  H   UNL     1      36.464  54.094  39.892  1.00  0.00     0.169 HD
ENDROOT
BRANCH   1  18
HETATM   18  N   UNL     1      33.132  49.392  41.933  1.00  0.00    -0.327 N 
HETATM   19  C   UNL     1      32.064  49.643  42.771  1.00  0.00     0.224 C 
HETATM   20  O   UNL     1      31.974  50.560  43.582  1.00  0.00    -0.273 OA
HETATM   21  H   UNL     1      33.153  48.489  41.470  1.00  0.00     0.169 HD
BRANCH  19  22
HETATM   22  C   UNL     1      30.896  48.695  42.579  1.00  0.00     0.134 C 
BRANCH  22  23
HETATM   23  C   UNL     1      30.161  48.816  41.221  1.00  0.00     0.044 C 
HETATM   24  C   UNL     1      28.846  47.979  41.340  1.00  0.00     0.032 C 
HETATM   25  C   UNL     1      28.092  47.838  40.020  1.00  0.00     0.002 C 
HETATM   26  C   UNL     1      28.972  47.202  38.954  1.00  0.00     0.000 C 
HETATM   27  C   UNL     1      30.270  47.977  38.771  1.00  0.00     0.002 C 
HETATM   28  C   UNL     1      31.017  48.159  40.096  1.00  0.00     0.032 C 
BRANCH  23  29
HETATM   29  N   UNL     1      29.854  50.247  40.984  1.00  0.00    -0.356 N 
HETATM   30  C   UNL     1      30.406  51.015  39.978  1.00  0.00     0.091 A 
HETATM   31  C   UNL     1      29.838  52.269  40.014  1.00  0.00     0.019 A 
HETATM   32  C   UNL     1      28.882  52.262  41.048  1.00  0.00     0.019 A 
HETATM   33  C   UNL     1      28.894  51.005  41.611  1.00  0.00     0.091 A 
ENDBRANCH  23  29
ENDBRANCH  22  23
ENDBRANCH  19  22
ENDBRANCH   1  18
TORSDOF 4
ENDMDL
MODEL 5
REMARK VINA RESULT:      -8.5      2.739      5.025
REMARK  4 active torsions:
REMARK  status: ('A' for Active; 'I' for Inactive)
REMARK    1  A    between atoms: N_3  and  C_4 
REMARK    2  A    between atoms: C_4  and  C_5 
REMARK    3  A    between atoms: C_5  and  C_6 
REMARK       I    between atoms: C_6  and  N_7 
REMARK    4  A    between atoms: N_7  and  C_8 
ROOT
HETATM    1  C   UNL     1      20.783  48.009  48.275  1.00  0.00     0.035 A 
HETATM    2  C   UNL     1      21.486  46.815  48.432  1.00  0.00     0.049 A 
HETATM    3  C   UNL     1      22.837  46.813  48.825  1.00  0.00     0.061 A 
HETATM    4  C   UNL     1      23.499  48.025  49.058  1.00  0.00     0.050 A 
HETATM    5  N   UNL     1      24.790  48.169  49.597  1.00  0.00    -0.324 N 
HETATM    6  C   UNL     1      25.404  47.364  50.524  1.00  0.00     0.245 C 
HETATM    7  O   UNL     1      26.442  47.775  51.047  1.00  0.00    -0.271 OA
HETATM    8  C   UNL     1      24.671  46.109  50.998  1.00  0.00     0.180 C 
HETATM    9  N   UNL     1      24.399  45.233  49.871  1.00  0.00    -0.334 N 
HETATM   10  C   UNL     1      23.492  45.482  48.871  1.00  0.00     0.256 C 
HETATM   11  O   UNL     1      23.190  44.641  48.029  1.00  0.00    -0.267 OA
HETATM   12  C   UNL     1      25.504  45.250  51.957  1.00  0.00     0.037 C 
HETATM   13  C   UNL     1      25.122  43.823  51.584  1.00  0.00     0.022 C 
HETATM   14  C   UNL     1      24.953  43.908  50.078  1.00  0.00     0.127 C 
HETATM   15  C   UNL     1      22.826  49.220  48.768  1.00  0.00     0.033 A 
HETATM   16  C   UNL     1      21.478  49.214  48.396  1.00  0.00     0.032 A 
HETATM   17  H   UNL     1      25.249  49.068  49.518  1.00  0.00     0.169 HD
ENDROOT
BRANCH   1  18
HETATM   18  N   UNL     1      19.386  48.080  48.090  1.00  0.00    -0.327 N 
HETATM   19  C   UNL     1      18.436  48.309  49.066  1.00  0.00     0.224 C 
HETATM   20  O   UNL     1      18.593  48.188  50.277  1.00  0.00    -0.273 OA
HETATM   21  H   UNL     1      19.058  48.020  47.131  1.00  0.00     0.169 HD
BRANCH  19  22
HETATM   22  C   UNL     1      17.112  48.814  48.528  1.00  0.00     0.134 C 
BRANCH  22  23
HETATM   23  C   UNL     1      17.037  50.341  48.283  1.00  0.00     0.044 C 
HETATM   24  C   UNL     1      18.176  50.994  49.132  1.00  0.00     0.032 C 
HETATM   25  C   UNL     1      18.123  52.520  49.151  1.00  0.00     0.002 C 
HETATM   26  C   UNL     1      16.785  53.013  49.683  1.00  0.00     0.000 C 
HETATM   27  C   UNL     1      15.624  52.428  48.889  1.00  0.00     0.002 C 
HETATM   28  C   UNL     1      15.687  50.899  48.829  1.00  0.00     0.032 C 
BRANCH  23  29
HETATM   29  N   UNL     1      17.248  50.592  46.837  1.00  0.00    -0.356 N 
HETATM   30  C   UNL     1      16.244  50.849  45.926  1.00  0.00     0.091 A 
HETATM   31  C   UNL     1      16.811  51.104  44.698  1.00  0.00     0.019 A 
HETATM   32  C   UNL     1      18.208  51.040  44.865  1.00  0.00     0.019 A 
HETATM   33  C   UNL     1      18.450  50.749  46.190  1.00  0.00     0.091 A 
ENDBRANCH  23  29
ENDBRANCH  22  23
ENDBRANCH  19  22
ENDBRANCH   1  18
TORSDOF 4
ENDMDL
MODEL 6
REMARK VINA RESULT:      -8.5     13.642     14.742
REMARK  4 active torsions:
REMARK  status: ('A' for Active; 'I' for Inactive)
REMARK    1  A    between atoms: N_3  and  C_4 
REMARK    2  A    between atoms: C_4  and  C_5 
REMARK    3  A    between atoms: C_5  and  C_6 
REMARK       I    between atoms: C_6  and  N_7 
REMARK    4  A    between atoms: N_7  and  C_8 
ROOT
HETATM    1  C   UNL     1      33.496  50.989  42.570  1.00  0.00     0.035 A 
HETATM    2  C   UNL     1      34.505  51.723  43.190  1.00  0.00     0.049 A 
HETATM    3  C   UNL     1      35.851  51.583  42.803  1.00  0.00     0.061 A 
HETATM    4  C   UNL     1      36.194  50.686  41.783  1.00  0.00     0.050 A 
HETATM    5  N   UNL     1      37.464  50.554  41.195  1.00  0.00    -0.324 N 
HETATM    6  C   UNL     1      38.397  51.539  40.988  1.00  0.00     0.245 C 
HETATM    7  O   UNL     1      39.353  51.284  40.253  1.00  0.00    -0.271 OA
HETATM    8  C   UNL     1      38.100  52.945  41.512  1.00  0.00     0.180 C 
HETATM    9  N   UNL     1      37.910  52.911  42.953  1.00  0.00    -0.334 N 
HETATM   10  C   UNL     1      36.835  52.356  43.600  1.00  0.00     0.256 C 
HETATM   11  O   UNL     1      36.649  52.492  44.806  1.00  0.00    -0.267 OA
HETATM   12  C   UNL     1      39.260  53.925  41.302  1.00  0.00     0.037 C 
HETATM   13  C   UNL     1      39.221  54.800  42.549  1.00  0.00     0.022 C 
HETATM   14  C   UNL     1      38.819  53.815  43.632  1.00  0.00     0.127 C 
HETATM   15  C   UNL     1      35.194  49.855  41.259  1.00  0.00     0.033 A 
HETATM   16  C   UNL     1      33.856  50.015  41.636  1.00  0.00     0.032 A 
HETATM   17  H   UNL     1      37.652  49.735  40.628  1.00  0.00     0.169 HD
ENDROOT
BRANCH   1  18
HETATM   18  N   UNL     1      32.119  51.229  42.758  1.00  0.00    -0.327 N 
HETATM   19  C   UNL     1      31.328  52.100  42.036  1.00  0.00     0.224 C 
HETATM   20  O   UNL     1      31.720  53.023  41.328  1.00  0.00    -0.273 OA
HETATM   21  H   UNL     1      31.655  50.653  43.455  1.00  0.00     0.169 HD
BRANCH  19  22
HETATM   22  C   UNL     1      29.844  51.797  42.120  1.00  0.00     0.134 C 
BRANCH  22  23
HETATM   23  C   UNL     1      29.331  50.726  41.127  1.00  0.00     0.044 C 
HETATM   24  C   UNL     1      27.866  50.379  41.549  1.00  0.00     0.032 C 
HETATM   25  C   UNL     1      27.275  49.198  40.784  1.00  0.00     0.002 C 
HETATM   26  C   UNL     1      28.131  47.952  40.956  1.00  0.00     0.000 C 
HETATM   27  C   UNL     1      29.575  48.211  40.546  1.00  0.00     0.002 C 
HETATM   28  C   UNL     1      30.168  49.419  41.278  1.00  0.00     0.032 C 
BRANCH  23  29
HETATM   29  N   UNL     1      29.362  51.303  39.762  1.00  0.00    -0.356 N 
HETATM   30  C   UNL     1      28.584  52.360  39.335  1.00  0.00     0.091 A 
HETATM   31  C   UNL     1      28.929  52.673  38.040  1.00  0.00     0.019 A 
HETATM   32  C   UNL     1      29.978  51.808  37.669  1.00  0.00     0.019 A 
HETATM   33  C   UNL     1      30.240  50.995  38.750  1.00  0.00     0.091 A 
ENDBRANCH  23  29
ENDBRANCH  22  23
ENDBRANCH  19  22
ENDBRANCH   1  18
TORSDOF 4
ENDMDL
MODEL 7
REMARK VINA RESULT:      -8.4     12.895     14.259
REMARK  4 active torsions:
REMARK  status: ('A' for Active; 'I' for Inactive)
REMARK    1  A    between atoms: N_3  and  C_4 
REMARK    2  A    between atoms: C_4  and  C_5 
REMARK    3  A    between atoms: C_5  and  C_6 
REMARK       I    between atoms: C_6  and  N_7 
REMARK    4  A    between atoms: N_7  and  C_8 
ROOT
HETATM    1  C   UNL     1      32.580  51.130  42.485  1.00  0.00     0.035 A 
HETATM    2  C   UNL     1      33.751  51.327  41.755  1.00  0.00     0.049 A 
HETATM    3  C   UNL     1      34.926  51.791  42.376  1.00  0.00     0.061 A 
HETATM    4  C   UNL     1      34.928  52.070  43.748  1.00  0.00     0.050 A 
HETATM    5  N   UNL     1      36.056  52.392  44.522  1.00  0.00    -0.324 N 
HETATM    6  C   UNL     1      37.342  51.940  44.356  1.00  0.00     0.245 C 
HETATM    7  O   UNL     1      38.148  52.146  45.265  1.00  0.00    -0.271 OA
HETATM    8  C   UNL     1      37.648  51.042  43.157  1.00  0.00     0.180 C 
HETATM    9  N   UNL     1      37.338  51.739  41.919  1.00  0.00    -0.334 N 
HETATM   10  C   UNL     1      36.076  52.041  41.472  1.00  0.00     0.256 C 
HETATM   11  O   UNL     1      35.864  52.490  40.349  1.00  0.00    -0.267 OA
HETATM   12  C   UNL     1      39.135  50.687  43.033  1.00  0.00     0.037 C 
HETATM   13  C   UNL     1      39.375  50.669  41.529  1.00  0.00     0.022 C 
HETATM   14  C   UNL     1      38.488  51.799  41.038  1.00  0.00     0.127 C 
HETATM   15  C   UNL     1      33.714  51.999  44.446  1.00  0.00     0.033 A 
HETATM   16  C   UNL     1      32.555  51.519  43.826  1.00  0.00     0.032 A 
HETATM   17  H   UNL     1      35.913  52.785  45.445  1.00  0.00     0.169 HD
ENDROOT
BRANCH   1  18
HETATM   18  N   UNL     1      31.438  50.474  41.978  1.00  0.00    -0.327 N 
HETATM   19  C   UNL     1      31.025  49.190  42.275  1.00  0.00     0.224 C 
HETATM   20  O   UNL     1      31.711  48.302  42.771  1.00  0.00    -0.273 OA
HETATM   21  H   UNL     1      30.829  51.030  41.386  1.00  0.00     0.169 HD
BRANCH  19  22
HETATM   22  C   UNL     1      29.557  48.937  41.992  1.00  0.00     0.134 C 
BRANCH  22  23
HETATM   23  C   UNL     1      29.220  48.560  40.529  1.00  0.00     0.044 C 
HETATM   24  C   UNL     1      27.922  47.689  40.572  1.00  0.00     0.032 C 
HETATM   25  C   UNL     1      27.556  47.074  39.223  1.00  0.00     0.002 C 
HETATM   26  C   UNL     1      28.693  46.215  38.688  1.00  0.00     0.000 C 
HETATM   27  C   UNL     1      29.992  47.006  38.603  1.00  0.00     0.002 C 
HETATM   28  C   UNL     1      30.351  47.661  39.940  1.00  0.00     0.032 C 
BRANCH  23  29
HETATM   29  N   UNL     1      28.990  49.810  39.767  1.00  0.00    -0.356 N 
HETATM   30  C   UNL     1      28.024  50.750  40.067  1.00  0.00     0.091 A 
HETATM   31  C   UNL     1      28.148  51.808  39.195  1.00  0.00     0.019 A 
HETATM   32  C   UNL     1      29.246  51.531  38.357  1.00  0.00     0.019 A 
HETATM   33  C   UNL     1      29.758  50.312  38.744  1.00  0.00     0.091 A 
ENDBRANCH  23  29
ENDBRANCH  22  23
ENDBRANCH  19  22
ENDBRANCH   1  18
TORSDOF 4
ENDMDL
MODEL 8
REMARK VINA RESULT:      -8.3     19.642     23.852
REMARK  4 active torsions:
REMARK  status: ('A' for Active; 'I' for Inactive)
REMARK    1  A    between atoms: N_3  and  C_4 
REMARK    2  A    between atoms: C_4  and  C_5 
REMARK    3  A    between atoms: C_5  and  C_6 
REMARK       I    between atoms: C_6  and  N_7 
REMARK    4  A    between atoms: N_7  and  C_8 
ROOT
HETATM    1  C   UNL     1      39.678  42.473  63.553  1.00  0.00     0.035 A 
HETATM    2  C   UNL     1      40.292  43.673  63.909  1.00  0.00     0.049 A 
HETATM    3  C   UNL     1      39.573  44.883  63.919  1.00  0.00     0.061 A 
HETATM    4  C   UNL     1      38.219  44.894  63.559  1.00  0.00     0.050 A 
HETATM    5  N   UNL     1      37.347  45.991  63.668  1.00  0.00    -0.324 N 
HETATM    6  C   UNL     1      37.363  46.982  64.618  1.00  0.00     0.245 C 
HETATM    7  O   UNL     1      36.385  47.729  64.690  1.00  0.00    -0.271 OA
HETATM    8  C   UNL     1      38.489  46.980  65.652  1.00  0.00     0.180 C 
HETATM    9  N   UNL     1      39.778  47.083  64.988  1.00  0.00    -0.334 N 
HETATM   10  C   UNL     1      40.363  46.098  64.232  1.00  0.00     0.256 C 
HETATM   11  O   UNL     1      41.519  46.179  63.824  1.00  0.00    -0.267 OA
HETATM   12  C   UNL     1      38.447  48.191  66.593  1.00  0.00     0.037 C 
HETATM   13  C   UNL     1      39.917  48.517  66.824  1.00  0.00     0.022 C 
HETATM   14  C   UNL     1      40.539  48.220  65.472  1.00  0.00     0.127 C 
HETATM   15  C   UNL     1      37.647  43.710  63.074  1.00  0.00     0.033 A 
HETATM   16  C   UNL     1      38.363  42.508  63.085  1.00  0.00     0.032 A 
HETATM   17  H   UNL     1      36.460  45.953  63.181  1.00  0.00     0.169 HD
ENDROOT
BRANCH   1  18
HETATM   18  N   UNL     1      40.273  41.205  63.721  1.00  0.00    -0.327 N 
HETATM   19  C   UNL     1      39.664  40.066  64.209  1.00  0.00     0.224 C 
HETATM   20  O   UNL     1      38.622  40.019  64.856  1.00  0.00    -0.273 OA
HETATM   21  H   UNL     1      41.228  41.111  63.388  1.00  0.00     0.169 HD
BRANCH  19  22
HETATM   22  C   UNL     1      40.367  38.779  63.824  1.00  0.00     0.134 C 
BRANCH  22  23
HETATM   23  C   UNL     1      41.072  38.037  64.985  1.00  0.00     0.044 C 
HETATM   24  C   UNL     1      42.003  36.960  64.338  1.00  0.00     0.032 C 
HETATM   25  C   UNL     1      42.633  36.010  65.353  1.00  0.00     0.002 C 
HETATM   26  C   UNL     1      41.565  35.294  66.167  1.00  0.00     0.000 C 
HETATM   27  C   UNL     1      40.627  36.286  66.844  1.00  0.00     0.002 C 
HETATM   28  C   UNL     1      40.018  37.271  65.841  1.00  0.00     0.032 C 
BRANCH  23  29
HETATM   29  N   UNL     1      41.867  39.024  65.755  1.00  0.00    -0.356 N 
HETATM   30  C   UNL     1      43.048  39.594  65.324  1.00  0.00     0.091 A 
HETATM   31  C   UNL     1      43.465  40.514  66.259  1.00  0.00     0.019 A 
HETATM   32  C   UNL     1      42.493  40.540  67.278  1.00  0.00     0.019 A 
HETATM   33  C   UNL     1      41.513  39.636  66.934  1.00  0.00     0.091 A 
ENDBRANCH  23  29
ENDBRANCH  22  23
ENDBRANCH  19  22
ENDBRANCH   1  18
TORSDOF 4
ENDMDL
MODEL 9
REMARK VINA RESULT:      -8.2     13.719     16.409
REMARK  4 active torsions:
REMARK  status: ('A' for Active; 'I' for Inactive)
REMARK    1  A    between atoms: N_3  and  C_4 
REMARK    2  A    between atoms: C_4  and  C_5 
REMARK    3  A    between atoms: C_5  and  C_6 
REMARK       I    between atoms: C_6  and  N_7 
REMARK    4  A    between atoms: N_7  and  C_8 
ROOT
HETATM    1  C   UNL     1      33.449  50.556  42.536  1.00  0.00     0.035 A 
HETATM    2  C   UNL     1      32.467  49.847  41.846  1.00  0.00     0.049 A 
HETATM    3  C   UNL     1      31.138  50.307  41.795  1.00  0.00     0.061 A 
HETATM    4  C   UNL     1      30.783  51.491  42.454  1.00  0.00     0.050 A 
HETATM    5  N   UNL     1      29.540  52.143  42.365  1.00  0.00    -0.324 N 
HETATM    6  C   UNL     1      28.699  52.196  41.282  1.00  0.00     0.245 C 
HETATM    7  O   UNL     1      27.768  53.003  41.313  1.00  0.00    -0.271 OA
HETATM    8  C   UNL     1      29.075  51.404  40.029  1.00  0.00     0.180 C 
HETATM    9  N   UNL     1      29.183  49.989  40.346  1.00  0.00    -0.334 N 
HETATM   10  C   UNL     1      30.175  49.417  41.102  1.00  0.00     0.256 C 
HETATM   11  O   UNL     1      30.304  48.201  41.209  1.00  0.00    -0.267 OA
HETATM   12  C   UNL     1      28.007  51.469  38.930  1.00  0.00     0.037 C 
HETATM   13  C   UNL     1      28.045  50.078  38.310  1.00  0.00     0.022 C 
HETATM   14  C   UNL     1      28.310  49.187  39.509  1.00  0.00     0.127 C 
HETATM   15  C   UNL     1      31.744  52.124  43.256  1.00  0.00     0.033 A 
HETATM   16  C   UNL     1      33.067  51.670  43.285  1.00  0.00     0.032 A 
HETATM   17  H   UNL     1      29.322  52.861  43.045  1.00  0.00     0.169 HD
ENDROOT
BRANCH   1  18
HETATM   18  N   UNL     1      34.829  50.271  42.454  1.00  0.00    -0.327 N 
HETATM   19  C   UNL     1      35.767  50.948  41.700  1.00  0.00     0.224 C 
HETATM   20  O   UNL     1      35.538  51.698  40.756  1.00  0.00    -0.273 OA
HETATM   21  H   UNL     1      35.170  49.534  43.063  1.00  0.00     0.169 HD
BRANCH  19  22
HETATM   22  C   UNL     1      37.194  50.751  42.174  1.00  0.00     0.134 C 
BRANCH  22  23
HETATM   23  C   UNL     1      37.792  51.930  42.979  1.00  0.00     0.044 C 
HETATM   24  C   UNL     1      38.746  51.309  44.052  1.00  0.00     0.032 C 
HETATM   25  C   UNL     1      39.276  52.328  45.058  1.00  0.00     0.002 C 
HETATM   26  C   UNL     1      38.135  53.030  45.779  1.00  0.00     0.000 C 
HETATM   27  C   UNL     1      37.170  53.675  44.792  1.00  0.00     0.002 C 
HETATM   28  C   UNL     1      36.660  52.672  43.753  1.00  0.00     0.032 C 
BRANCH  23  29
HETATM   29  N   UNL     1      38.547  52.798  42.044  1.00  0.00    -0.356 N 
HETATM   30  C   UNL     1      39.729  52.447  41.423  1.00  0.00     0.091 A 
HETATM   31  C   UNL     1      40.103  53.464  40.573  1.00  0.00     0.019 A 
HETATM   32  C   UNL     1      39.103  54.454  40.644  1.00  0.00     0.019 A 
HETATM   33  C   UNL     1      38.150  54.010  41.533  1.00  0.00     0.091 A 
ENDBRANCH  23  29
ENDBRANCH  22  23
ENDBRANCH  19  22
ENDBRANCH   1  18
TORSDOF 4
ENDMDL
MODEL 10
REMARK VINA RESULT:      -8.1     13.987     15.141
REMARK  4 active torsions:
REMARK  status: ('A' for Active; 'I' for Inactive)
REMARK    1  A    between atoms: N_3  and  C_4 
REMARK    2  A    between atoms: C_4  and  C_5 
REMARK    3  A    between atoms: C_5  and  C_6 
REMARK       I    between atoms: C_6  and  N_7 
REMARK    4  A    between atoms: N_7  and  C_8 
ROOT
HETATM    1  C   UNL     1      34.729  50.850  42.029  1.00  0.00     0.035 A 
HETATM    2  C   UNL     1      35.596  51.265  43.038  1.00  0.00     0.049 A 
HETATM    3  C   UNL     1      36.694  52.100  42.756  1.00  0.00     0.061 A 
HETATM    4  C   UNL     1      36.933  52.519  41.441  1.00  0.00     0.050 A 
HETATM    5  N   UNL     1      37.893  53.466  41.039  1.00  0.00    -0.324 N 
HETATM    6  C   UNL     1      38.326  54.565  41.737  1.00  0.00     0.245 C 
HETATM    7  O   UNL     1      38.997  55.404  41.133  1.00  0.00    -0.271 OA
HETATM    8  C   UNL     1      37.792  54.786  43.152  1.00  0.00     0.180 C 
HETATM    9  N   UNL     1      38.133  53.654  43.998  1.00  0.00    -0.334 N 
HETATM   10  C   UNL     1      37.587  52.398  43.902  1.00  0.00     0.256 C 
HETATM   11  O   UNL     1      37.796  51.523  44.738  1.00  0.00    -0.267 OA
HETATM   12  C   UNL     1      38.427  55.993  43.855  1.00  0.00     0.037 C 
HETATM   13  C   UNL     1      38.541  55.543  45.307  1.00  0.00     0.022 C 
HETATM   14  C   UNL     1      38.878  54.069  45.171  1.00  0.00     0.127 C 
HETATM   15  C   UNL     1      36.138  51.989  40.415  1.00  0.00     0.033 A 
HETATM   16  C   UNL     1      35.038  51.175  40.707  1.00  0.00     0.032 A 
HETATM   17  H   UNL     1      38.126  53.529  40.056  1.00  0.00     0.169 HD
ENDROOT
BRANCH   1  18
HETATM   18  N   UNL     1      33.503  50.194  42.267  1.00  0.00    -0.327 N 
HETATM   19  C   UNL     1      32.343  50.766  42.750  1.00  0.00     0.224 C 
HETATM   20  O   UNL     1      32.250  51.841  43.335  1.00  0.00    -0.273 OA
HETATM   21  H   UNL     1      33.457  49.218  41.993  1.00  0.00     0.169 HD
BRANCH  19  22
HETATM   22  C   UNL     1      31.090  49.969  42.442  1.00  0.00     0.134 C 
BRANCH  22  23
HETATM   23  C   UNL     1      30.283  50.453  41.213  1.00  0.00     0.044 C 
HETATM   24  C   UNL     1      31.125  51.581  40.532  1.00  0.00     0.032 C 
HETATM   25  C   UNL     1      30.384  52.300  39.408  1.00  0.00     0.002 C 
HETATM   26  C   UNL     1      29.084  52.909  39.912  1.00  0.00     0.000 C 
HETATM   27  C   UNL     1      28.201  51.860  40.576  1.00  0.00     0.002 C 
HETATM   28  C   UNL     1      28.946  51.104  41.681  1.00  0.00     0.032 C 
BRANCH  23  29
HETATM   29  N   UNL     1      30.101  49.304  40.293  1.00  0.00    -0.356 N 
HETATM   30  C   UNL     1      31.066  48.825  39.431  1.00  0.00     0.091 A 
HETATM   31  C   UNL     1      30.574  47.711  38.788  1.00  0.00     0.019 A 
HETATM   32  C   UNL     1      29.281  47.475  39.297  1.00  0.00     0.019 A 
HETATM   33  C   UNL     1      29.025  48.451  40.235  1.00  0.00     0.091 A 
ENDBRANCH  23  29
ENDBRANCH  22  23
ENDBRANCH  19  22
ENDBRANCH   1  18
TORSDOF 4
ENDMDL
