MODEL 1
REMARK VINA RESULT:      -8.7      0.000      0.000
REMARK  7 active torsions:
REMARK  status: ('A' for Active; 'I' for Inactive)
REMARK    1  A    between atoms: C_8  and  C_9 
REMARK    2  A    between atoms: C_9  and  N_10 
REMARK    3  A    between atoms: C_9  and  C_14 
REMARK       I    between atoms: C_14  and  N_15 
REMARK    4  A    between atoms: N_15  and  C_16 
REMARK    5  A    between atoms: C_16  and  C_17 
REMARK    6  A    between atoms: C_17  and  C_18 
REMARK    7  A    between atoms: C_17  and  C_24 
ROOT
HETATM    1  C   UNL     1      28.219  40.578  51.539  1.00  0.00     0.253 C 
HETATM    2  N   UNL     1      29.164  40.935  52.470  1.00  0.00    -0.358 N 
HETATM    3  O   UNL     1      27.011  40.800  51.646  1.00  0.00    -0.271 OA
HETATM    4  H   UNL     1      30.145  40.735  52.325  1.00  0.00     0.162 HD
ENDROOT
BRANCH   2   5
HETATM    5  C   UNL     1      28.813  41.594  53.731  1.00  0.00     0.141 C 
BRANCH   5   6
HETATM    6  C   UNL     1      29.041  43.149  53.733  1.00  0.00     0.026 C 
HETATM    7  C   UNL     1      30.024  43.444  52.565  1.00  0.00     0.027 C 
BRANCH   6   8
HETATM    8  C   UNL     1      27.645  43.802  53.505  1.00  0.00    -0.044 A 
HETATM    9  C   UNL     1      26.605  43.651  54.448  1.00  0.00     0.008 A 
HETATM   10  C   UNL     1      25.354  44.244  54.256  1.00  0.00     0.001 A 
HETATM   11  C   UNL     1      25.103  44.981  53.104  1.00  0.00     0.000 A 
HETATM   12  C   UNL     1      26.100  45.119  52.143  1.00  0.00     0.001 A 
HETATM   13  C   UNL     1      27.354  44.533  52.339  1.00  0.00     0.008 A 
ENDBRANCH   6   8
BRANCH   6  14
HETATM   14  C   UNL     1      29.763  43.694  54.998  1.00  0.00    -0.044 A 
HETATM   15  C   UNL     1      29.475  44.945  55.571  1.00  0.00     0.008 A 
HETATM   16  C   UNL     1      30.142  45.386  56.719  1.00  0.00     0.001 A 
HETATM   17  C   UNL     1      31.094  44.578  57.334  1.00  0.00     0.000 A 
HETATM   18  C   UNL     1      31.370  43.321  56.811  1.00  0.00     0.001 A 
HETATM   19  C   UNL     1      30.706  42.880  55.665  1.00  0.00     0.008 A 
ENDBRANCH   6  14
ENDBRANCH   5   6
ENDBRANCH   2   5
BRANCH   1  20
HETATM   20  C   UNL     1      28.719  39.766  50.326  1.00  0.00     0.311 C 
BRANCH  20  21
HETATM   21  C   UNL     1      27.586  39.324  49.459  1.00  0.00     0.031 A 
HETATM   22  C   UNL     1      26.981  38.076  49.346  1.00  0.00     0.035 A 
HETATM   23  C   UNL     1      27.195  36.770  50.019  1.00  0.00     0.070 C 
HETATM   24  N   UNL     1      25.987  38.221  48.411  1.00  0.00    -0.282 N 
HETATM   25  H   UNL     1      25.324  37.527  48.076  1.00  0.00     0.189 HD
HETATM   26  N   UNL     1      25.916  39.454  47.907  1.00  0.00    -0.179 NA
HETATM   27  C   UNL     1      26.864  40.144  48.539  1.00  0.00     0.061 A 
HETATM   28  C   UNL     1      27.034  41.588  48.228  1.00  0.00     0.073 C 
ENDBRANCH  20  21
BRANCH  20  29
HETATM   29  N   UNL     1      29.502  38.599  50.846  1.00  0.00    -0.062 N 
HETATM   30  H   UNL     1      28.969  38.089  51.557  1.00  0.00     0.275 HD
HETATM   31  H   UNL     1      29.617  37.943  50.059  1.00  0.00     0.275 HD
HETATM   32  H   UNL     1      30.419  38.875  51.205  1.00  0.00     0.275 HD
ENDBRANCH  20  29
ENDBRANCH   1  20
TORSDOF 7
ENDMDL
MODEL 2
REMARK VINA RESULT:      -8.5      1.499      4.318
REMARK  7 active torsions:
REMARK  status: ('A' for Active; 'I' for Inactive)
REMARK    1  A    between atoms: C_8  and  C_9 
REMARK    2  A    between atoms: C_9  and  N_10 
REMARK    3  A    between atoms: C_9  and  C_14 
REMARK       I    between atoms: C_14  and  N_15 
REMARK    4  A    between atoms: N_15  and  C_16 
REMARK    5  A    between atoms: C_16  and  C_17 
REMARK    6  A    between atoms: C_17  and  C_18 
REMARK    7  A    between atoms: C_17  and  C_24 
ROOT
HETATM    1  C   UNL     1      27.995  41.343  51.075  1.00  0.00     0.253 C 
HETATM    2  N   UNL     1      28.852  41.681  52.093  1.00  0.00    -0.358 N 
HETATM    3  O   UNL     1      27.418  42.153  50.347  1.00  0.00    -0.271 OA
HETATM    4  H   UNL     1      29.306  40.971  52.655  1.00  0.00     0.162 HD
ENDROOT
BRANCH   2   5
HETATM    5  C   UNL     1      29.140  43.073  52.449  1.00  0.00     0.141 C 
BRANCH   5   6
HETATM    6  C   UNL     1      28.315  43.611  53.674  1.00  0.00     0.026 C 
HETATM    7  C   UNL     1      27.359  42.458  54.092  1.00  0.00     0.027 C 
BRANCH   6   8
HETATM    8  C   UNL     1      29.349  43.951  54.789  1.00  0.00    -0.044 A 
HETATM    9  C   UNL     1      30.255  42.979  55.266  1.00  0.00     0.008 A 
HETATM   10  C   UNL     1      31.193  43.281  56.258  1.00  0.00     0.001 A 
HETATM   11  C   UNL     1      31.232  44.554  56.814  1.00  0.00     0.000 A 
HETATM   12  C   UNL     1      30.330  45.522  56.385  1.00  0.00     0.001 A 
HETATM   13  C   UNL     1      29.397  45.223  55.387  1.00  0.00     0.008 A 
ENDBRANCH   6   8
BRANCH   6  14
HETATM   14  C   UNL     1      27.370  44.800  53.343  1.00  0.00    -0.044 A 
HETATM   15  C   UNL     1      26.992  45.142  52.033  1.00  0.00     0.008 A 
HETATM   16  C   UNL     1      26.126  46.214  51.786  1.00  0.00     0.001 A 
HETATM   17  C   UNL     1      25.601  46.952  52.842  1.00  0.00     0.000 A 
HETATM   18  C   UNL     1      25.927  46.611  54.149  1.00  0.00     0.001 A 
HETATM   19  C   UNL     1      26.791  45.543  54.397  1.00  0.00     0.008 A 
ENDBRANCH   6  14
ENDBRANCH   5   6
ENDBRANCH   2   5
BRANCH   1  20
HETATM   20  C   UNL     1      27.680  39.842  50.909  1.00  0.00     0.311 C 
BRANCH  20  21
HETATM   21  C   UNL     1      28.611  39.191  49.939  1.00  0.00     0.031 A 
HETATM   22  C   UNL     1      28.757  39.390  48.570  1.00  0.00     0.035 A 
HETATM   23  C   UNL     1      28.099  40.291  47.590  1.00  0.00     0.070 C 
HETATM   24  N   UNL     1      29.758  38.542  48.169  1.00  0.00    -0.282 N 
HETATM   25  H   UNL     1      30.152  38.417  47.239  1.00  0.00     0.189 HD
HETATM   26  N   UNL     1      30.255  37.807  49.166  1.00  0.00    -0.179 NA
HETATM   27  C   UNL     1      29.586  38.196  50.251  1.00  0.00     0.061 A 
HETATM   28  C   UNL     1      29.924  37.585  51.563  1.00  0.00     0.073 C 
ENDBRANCH  20  21
BRANCH  20  29
HETATM   29  N   UNL     1      26.252  39.718  50.470  1.00  0.00    -0.062 N 
HETATM   30  H   UNL     1      26.080  40.271  49.625  1.00  0.00     0.275 HD
HETATM   31  H   UNL     1      26.110  38.734  50.194  1.00  0.00     0.275 HD
HETATM   32  H   UNL     1      25.594  39.969  51.212  1.00  0.00     0.275 HD
ENDBRANCH  20  29
ENDBRANCH   1  20
TORSDOF 7
ENDMDL
MODEL 3
REMARK VINA RESULT:      -8.5     13.254     15.643
REMARK  7 active torsions:
REMARK  status: ('A' for Active; 'I' for Inactive)
REMARK    1  A    between atoms: C_8  and  C_9 
REMARK    2  A    between atoms: C_9  and  N_10 
REMARK    3  A    between atoms: C_9  and  C_14 
REMARK       I    between atoms: C_14  and  N_15 
REMARK    4  A    between atoms: N_15  and  C_16 
REMARK    5  A    between atoms: C_16  and  C_17 
REMARK    6  A    between atoms: C_17  and  C_18 
REMARK    7  A    between atoms: C_17  and  C_24 
ROOT
HETATM    1  C   UNL     1      29.861  50.572  38.393  1.00  0.00     0.253 C 
HETATM    2  N   UNL     1      28.722  49.883  38.730  1.00  0.00    -0.358 N 
HETATM    3  O   UNL     1      30.888  50.053  37.952  1.00  0.00    -0.271 OA
HETATM    4  H   UNL     1      27.902  50.363  39.080  1.00  0.00     0.162 HD
ENDROOT
BRANCH   2   5
HETATM    5  C   UNL     1      28.630  48.423  38.635  1.00  0.00     0.141 C 
BRANCH   5   6
HETATM    6  C   UNL     1      28.781  47.676  40.009  1.00  0.00     0.026 C 
HETATM    7  C   UNL     1      27.603  48.163  40.900  1.00  0.00     0.027 C 
BRANCH   6   8
HETATM    8  C   UNL     1      28.692  46.152  39.697  1.00  0.00    -0.044 A 
HETATM    9  C   UNL     1      29.435  45.577  38.644  1.00  0.00     0.008 A 
HETATM   10  C   UNL     1      29.368  44.208  38.366  1.00  0.00     0.001 A 
HETATM   11  C   UNL     1      28.538  43.385  39.118  1.00  0.00     0.000 A 
HETATM   12  C   UNL     1      27.770  43.931  40.142  1.00  0.00     0.001 A 
HETATM   13  C   UNL     1      27.843  45.299  40.426  1.00  0.00     0.008 A 
ENDBRANCH   6   8
BRANCH   6  14
HETATM   14  C   UNL     1      30.059  48.054  40.811  1.00  0.00    -0.044 A 
HETATM   15  C   UNL     1      31.356  47.688  40.411  1.00  0.00     0.008 A 
HETATM   16  C   UNL     1      32.477  48.064  41.159  1.00  0.00     0.001 A 
HETATM   17  C   UNL     1      32.330  48.834  42.309  1.00  0.00     0.000 A 
HETATM   18  C   UNL     1      31.062  49.243  42.705  1.00  0.00     0.001 A 
HETATM   19  C   UNL     1      29.943  48.867  41.961  1.00  0.00     0.008 A 
ENDBRANCH   6  14
ENDBRANCH   5   6
ENDBRANCH   2   5
BRANCH   1  20
HETATM   20  C   UNL     1      29.859  52.088  38.678  1.00  0.00     0.311 C 
BRANCH  20  21
HETATM   21  C   UNL     1      30.183  52.376  40.107  1.00  0.00     0.031 A 
HETATM   22  C   UNL     1      29.339  52.521  41.203  1.00  0.00     0.035 A 
HETATM   23  C   UNL     1      27.867  52.431  41.381  1.00  0.00     0.070 C 
HETATM   24  N   UNL     1      30.153  52.770  42.279  1.00  0.00    -0.282 N 
HETATM   25  H   UNL     1      29.895  52.917  43.252  1.00  0.00     0.189 HD
HETATM   26  N   UNL     1      31.448  52.811  41.959  1.00  0.00    -0.179 NA
HETATM   27  C   UNL     1      31.491  52.558  40.652  1.00  0.00     0.061 A 
HETATM   28  C   UNL     1      32.812  52.497  39.972  1.00  0.00     0.073 C 
ENDBRANCH  20  21
BRANCH  20  29
HETATM   29  N   UNL     1      28.514  52.626  38.299  1.00  0.00    -0.062 N 
HETATM   30  H   UNL     1      28.223  52.270  37.383  1.00  0.00     0.275 HD
HETATM   31  H   UNL     1      27.837  52.242  38.976  1.00  0.00     0.275 HD
HETATM   32  H   UNL     1      28.483  53.649  38.319  1.00  0.00     0.275 HD
ENDBRANCH  20  29
ENDBRANCH   1  20
TORSDOF 7
ENDMDL
MODEL 4
REMARK VINA RESULT:      -8.5     13.047     15.713
REMARK  7 active torsions:
REMARK  status: ('A' for Active; 'I' for Inactive)
REMARK    1  A    between atoms: C_8  and  C_9 
REMARK    2  A    between atoms: C_9  and  N_10 
REMARK    3  A    between atoms: C_9  and  C_14 
REMARK       I    between atoms: C_14  and  N_15 
REMARK    4  A    between atoms: N_15  and  C_16 
REMARK    5  A    between atoms: C_16  and  C_17 
REMARK    6  A    between atoms: C_17  and  C_18 
REMARK    7  A    between atoms: C_17  and  C_24 
ROOT
HETATM    1  C   UNL     1      28.947  50.681  38.363  1.00  0.00     0.253 C 
HETATM    2  N   UNL     1      29.690  49.552  38.603  1.00  0.00    -0.358 N 
HETATM    3  O   UNL     1      27.785  50.680  37.950  1.00  0.00    -0.271 OA
HETATM    4  H   UNL     1      30.639  49.612  38.950  1.00  0.00     0.162 HD
ENDROOT
BRANCH   2   5
HETATM    5  C   UNL     1      29.176  48.203  38.347  1.00  0.00     0.141 C 
BRANCH   5   6
HETATM    6  C   UNL     1      29.150  47.271  39.612  1.00  0.00     0.026 C 
HETATM    7  C   UNL     1      29.562  45.856  39.114  1.00  0.00     0.027 C 
BRANCH   6   8
HETATM    8  C   UNL     1      30.180  47.862  40.620  1.00  0.00    -0.044 A 
HETATM    9  C   UNL     1      31.566  47.648  40.459  1.00  0.00     0.008 A 
HETATM   10  C   UNL     1      32.496  48.186  41.353  1.00  0.00     0.001 A 
HETATM   11  C   UNL     1      32.063  48.930  42.444  1.00  0.00     0.000 A 
HETATM   12  C   UNL     1      30.700  49.130  42.645  1.00  0.00     0.001 A 
HETATM   13  C   UNL     1      29.770  48.599  41.746  1.00  0.00     0.008 A 
ENDBRANCH   6   8
BRANCH   6  14
HETATM   14  C   UNL     1      27.740  47.070  40.236  1.00  0.00    -0.044 A 
HETATM   15  C   UNL     1      26.695  48.000  40.094  1.00  0.00     0.008 A 
HETATM   16  C   UNL     1      25.438  47.768  40.662  1.00  0.00     0.001 A 
HETATM   17  C   UNL     1      25.189  46.592  41.364  1.00  0.00     0.000 A 
HETATM   18  C   UNL     1      26.192  45.638  41.487  1.00  0.00     0.001 A 
HETATM   19  C   UNL     1      27.447  45.869  40.921  1.00  0.00     0.008 A 
ENDBRANCH   6  14
ENDBRANCH   5   6
ENDBRANCH   2   5
BRANCH   1  20
HETATM   20  C   UNL     1      29.668  52.033  38.544  1.00  0.00     0.311 C 
BRANCH  20  21
HETATM   21  C   UNL     1      30.050  52.262  39.970  1.00  0.00     0.031 A 
HETATM   22  C   UNL     1      29.249  52.382  41.101  1.00  0.00     0.035 A 
HETATM   23  C   UNL     1      27.784  52.312  41.331  1.00  0.00     0.070 C 
HETATM   24  N   UNL     1      30.108  52.576  42.153  1.00  0.00    -0.282 N 
HETATM   25  H   UNL     1      29.889  52.692  43.140  1.00  0.00     0.189 HD
HETATM   26  N   UNL     1      31.391  52.605  41.787  1.00  0.00    -0.179 NA
HETATM   27  C   UNL     1      31.380  52.401  40.470  1.00  0.00     0.061 A 
HETATM   28  C   UNL     1      32.673  52.341  39.740  1.00  0.00     0.073 C 
ENDBRANCH  20  21
BRANCH  20  29
HETATM   29  N   UNL     1      28.758  53.110  38.037  1.00  0.00    -0.062 N 
HETATM   30  H   UNL     1      28.790  53.932  38.649  1.00  0.00     0.275 HD
HETATM   31  H   UNL     1      29.141  53.421  37.131  1.00  0.00     0.275 HD
HETATM   32  H   UNL     1      27.797  52.783  37.915  1.00  0.00     0.275 HD
ENDBRANCH  20  29
ENDBRANCH   1  20
TORSDOF 7
ENDMDL
MODEL 5
REMARK VINA RESULT:      -8.4     13.381     15.572
REMARK  7 active torsions:
REMARK  status: ('A' for Active; 'I' for Inactive)
REMARK    1  A    between atoms: C_8  and  C_9 
REMARK    2  A    between atoms: C_9  and  N_10 
REMARK    3  A    between atoms: C_9  and  C_14 
REMARK       I    between atoms: C_14  and  N_15 
REMARK    4  A    between atoms: N_15  and  C_16 
REMARK    5  A    between atoms: C_16  and  C_17 
REMARK    6  A    between atoms: C_17  and  C_18 
REMARK    7  A    between atoms: C_17  and  C_24 
ROOT
HETATM    1  C   UNL     1      30.754  48.559  39.859  1.00  0.00     0.253 C 
HETATM    2  N   UNL     1      31.848  49.389  39.890  1.00  0.00    -0.358 N 
HETATM    3  O   UNL     1      30.446  47.773  40.757  1.00  0.00    -0.271 OA
HETATM    4  H   UNL     1      32.048  50.022  39.126  1.00  0.00     0.162 HD
ENDROOT
BRANCH   2   5
HETATM    5  C   UNL     1      32.801  49.392  41.003  1.00  0.00     0.141 C 
BRANCH   5   6
HETATM    6  C   UNL     1      32.513  50.482  42.098  1.00  0.00     0.026 C 
HETATM    7  C   UNL     1      31.768  49.752  43.251  1.00  0.00     0.027 C 
BRANCH   6   8
HETATM    8  C   UNL     1      33.899  51.033  42.549  1.00  0.00    -0.044 A 
HETATM    9  C   UNL     1      34.027  51.825  43.711  1.00  0.00     0.008 A 
HETATM   10  C   UNL     1      35.269  52.313  44.128  1.00  0.00     0.001 A 
HETATM   11  C   UNL     1      36.409  52.042  43.381  1.00  0.00     0.000 A 
HETATM   12  C   UNL     1      36.307  51.291  42.214  1.00  0.00     0.001 A 
HETATM   13  C   UNL     1      35.066  50.796  41.801  1.00  0.00     0.008 A 
ENDBRANCH   6   8
BRANCH   6  14
HETATM   14  C   UNL     1      31.534  51.603  41.649  1.00  0.00    -0.044 A 
HETATM   15  C   UNL     1      31.932  52.712  40.880  1.00  0.00     0.008 A 
HETATM   16  C   UNL     1      31.011  53.688  40.487  1.00  0.00     0.001 A 
HETATM   17  C   UNL     1      29.668  53.568  40.833  1.00  0.00     0.000 A 
HETATM   18  C   UNL     1      29.240  52.463  41.559  1.00  0.00     0.001 A 
HETATM   19  C   UNL     1      30.159  51.489  41.952  1.00  0.00     0.008 A 
ENDBRANCH   6  14
ENDBRANCH   5   6
ENDBRANCH   2   5
BRANCH   1  20
HETATM   20  C   UNL     1      29.921  48.566  38.561  1.00  0.00     0.311 C 
BRANCH  20  21
HETATM   21  C   UNL     1      28.896  49.652  38.574  1.00  0.00     0.031 A 
HETATM   22  C   UNL     1      27.574  49.628  39.006  1.00  0.00     0.035 A 
HETATM   23  C   UNL     1      26.713  48.579  39.612  1.00  0.00     0.070 C 
HETATM   24  N   UNL     1      27.086  50.893  38.803  1.00  0.00    -0.282 N 
HETATM   25  H   UNL     1      26.159  51.259  39.012  1.00  0.00     0.189 HD
HETATM   26  N   UNL     1      27.981  51.721  38.263  1.00  0.00    -0.179 NA
HETATM   27  C   UNL     1      29.090  50.995  38.131  1.00  0.00     0.061 A 
HETATM   28  C   UNL     1      30.312  51.638  37.579  1.00  0.00     0.073 C 
ENDBRANCH  20  21
BRANCH  20  29
HETATM   29  N   UNL     1      29.290  47.214  38.412  1.00  0.00    -0.062 N 
HETATM   30  H   UNL     1      28.290  47.299  38.204  1.00  0.00     0.275 HD
HETATM   31  H   UNL     1      29.714  46.778  37.580  1.00  0.00     0.275 HD
HETATM   32  H   UNL     1      29.443  46.622  39.232  1.00  0.00     0.275 HD
ENDBRANCH  20  29
ENDBRANCH   1  20
TORSDOF 7
ENDMDL
MODEL 6
REMARK VINA RESULT:      -8.3      2.011      4.449
REMARK  7 active torsions:
REMARK  status: ('A' for Active; 'I' for Inactive)
REMARK    1  A    between atoms: C_8  and  C_9 
REMARK    2  A    between atoms: C_9  and  N_10 
REMARK    3  A    between atoms: C_9  and  C_14 
REMARK       I    between atoms: C_14  and  N_15 
REMARK    4  A    between atoms: N_15  and  C_16 
REMARK    5  A    between atoms: C_16  and  C_17 
REMARK    6  A    between atoms: C_17  and  C_18 
REMARK    7  A    between atoms: C_17  and  C_24 
ROOT
HETATM    1  C   UNL     1      27.435  41.954  50.477  1.00  0.00     0.253 C 
HETATM    2  N   UNL     1      27.939  41.938  51.755  1.00  0.00    -0.358 N 
HETATM    3  O   UNL     1      27.572  42.886  49.682  1.00  0.00    -0.271 OA
HETATM    4  H   UNL     1      27.802  41.140  52.363  1.00  0.00     0.162 HD
ENDROOT
BRANCH   2   5
HETATM    5  C   UNL     1      28.671  43.072  52.325  1.00  0.00     0.141 C 
BRANCH   5   6
HETATM    6  C   UNL     1      27.966  43.742  53.560  1.00  0.00     0.026 C 
HETATM    7  C   UNL     1      26.929  42.707  54.080  1.00  0.00     0.027 C 
BRANCH   6   8
HETATM    8  C   UNL     1      29.084  44.030  54.606  1.00  0.00    -0.044 A 
HETATM    9  C   UNL     1      30.027  43.042  54.958  1.00  0.00     0.008 A 
HETATM   10  C   UNL     1      31.040  43.298  55.887  1.00  0.00     0.001 A 
HETATM   11  C   UNL     1      31.120  44.541  56.505  1.00  0.00     0.000 A 
HETATM   12  C   UNL     1      30.183  45.523  56.200  1.00  0.00     0.001 A 
HETATM   13  C   UNL     1      29.174  45.270  55.264  1.00  0.00     0.008 A 
ENDBRANCH   6   8
BRANCH   6  14
HETATM   14  C   UNL     1      27.121  45.001  53.215  1.00  0.00    -0.044 A 
HETATM   15  C   UNL     1      26.831  45.397  51.897  1.00  0.00     0.008 A 
HETATM   16  C   UNL     1      26.053  46.531  51.637  1.00  0.00     0.001 A 
HETATM   17  C   UNL     1      25.529  47.280  52.686  1.00  0.00     0.000 A 
HETATM   18  C   UNL     1      25.767  46.889  53.998  1.00  0.00     0.001 A 
HETATM   19  C   UNL     1      26.544  45.759  54.258  1.00  0.00     0.008 A 
ENDBRANCH   6  14
ENDBRANCH   5   6
ENDBRANCH   2   5
BRANCH   1  20
HETATM   20  C   UNL     1      26.566  40.748  50.064  1.00  0.00     0.311 C 
BRANCH  20  21
HETATM   21  C   UNL     1      25.318  41.185  49.370  1.00  0.00     0.031 A 
HETATM   22  C   UNL     1      24.345  42.095  49.771  1.00  0.00     0.035 A 
HETATM   23  C   UNL     1      24.182  42.960  50.968  1.00  0.00     0.070 C 
HETATM   24  N   UNL     1      23.419  42.129  48.759  1.00  0.00    -0.282 N 
HETATM   25  H   UNL     1      22.572  42.690  48.690  1.00  0.00     0.189 HD
HETATM   26  N   UNL     1      23.711  41.306  47.751  1.00  0.00    -0.179 NA
HETATM   27  C   UNL     1      24.866  40.736  48.093  1.00  0.00     0.061 A 
HETATM   28  C   UNL     1      25.498  39.770  47.155  1.00  0.00     0.073 C 
ENDBRANCH  20  21
BRANCH  20  29
HETATM   29  N   UNL     1      26.262  39.955  51.299  1.00  0.00    -0.062 N 
HETATM   30  H   UNL     1      25.677  39.144  51.077  1.00  0.00     0.275 HD
HETATM   31  H   UNL     1      27.158  39.571  51.634  1.00  0.00     0.275 HD
HETATM   32  H   UNL     1      25.832  40.526  52.031  1.00  0.00     0.275 HD
ENDBRANCH  20  29
ENDBRANCH   1  20
TORSDOF 7
ENDMDL
MODEL 7
REMARK VINA RESULT:      -8.3     12.583     15.283
REMARK  7 active torsions:
REMARK  status: ('A' for Active; 'I' for Inactive)
REMARK    1  A    between atoms: C_8  and  C_9 
REMARK    2  A    between atoms: C_9  and  N_10 
REMARK    3  A    between atoms: C_9  and  C_14 
REMARK       I    between atoms: C_14  and  N_15 
REMARK    4  A    between atoms: N_15  and  C_16 
REMARK    5  A    between atoms: C_16  and  C_17 
REMARK    6  A    between atoms: C_17  and  C_18 
REMARK    7  A    between atoms: C_17  and  C_24 
ROOT
HETATM    1  C   UNL     1      32.229  48.321  41.076  1.00  0.00     0.253 C 
HETATM    2  N   UNL     1      30.911  48.695  40.989  1.00  0.00    -0.358 N 
HETATM    3  O   UNL     1      32.651  47.185  40.850  1.00  0.00    -0.271 OA
HETATM    4  H   UNL     1      30.622  49.647  41.178  1.00  0.00     0.162 HD
ENDROOT
BRANCH   2   5
HETATM    5  C   UNL     1      29.846  47.747  40.651  1.00  0.00     0.141 C 
BRANCH   5   6
HETATM    6  C   UNL     1      28.621  48.390  39.904  1.00  0.00     0.026 C 
HETATM    7  C   UNL     1      28.864  48.149  38.387  1.00  0.00     0.027 C 
BRANCH   6   8
HETATM    8  C   UNL     1      27.350  47.652  40.420  1.00  0.00    -0.044 A 
HETATM    9  C   UNL     1      26.063  48.206  40.247  1.00  0.00     0.008 A 
HETATM   10  C   UNL     1      24.918  47.543  40.698  1.00  0.00     0.001 A 
HETATM   11  C   UNL     1      25.032  46.323  41.353  1.00  0.00     0.000 A 
HETATM   12  C   UNL     1      26.291  45.769  41.565  1.00  0.00     0.001 A 
HETATM   13  C   UNL     1      27.437  46.428  41.108  1.00  0.00     0.008 A 
ENDBRANCH   6   8
BRANCH   6  14
HETATM   14  C   UNL     1      28.521  49.935  40.042  1.00  0.00    -0.044 A 
HETATM   15  C   UNL     1      28.362  50.590  41.277  1.00  0.00     0.008 A 
HETATM   16  C   UNL     1      28.291  51.985  41.353  1.00  0.00     0.001 A 
HETATM   17  C   UNL     1      28.401  52.759  40.201  1.00  0.00     0.000 A 
HETATM   18  C   UNL     1      28.598  52.140  38.972  1.00  0.00     0.001 A 
HETATM   19  C   UNL     1      28.668  50.748  38.896  1.00  0.00     0.008 A 
ENDBRANCH   6  14
ENDBRANCH   5   6
ENDBRANCH   2   5
BRANCH   1  20
HETATM   20  C   UNL     1      33.218  49.393  41.580  1.00  0.00     0.311 C 
BRANCH  20  21
HETATM   21  C   UNL     1      32.657  50.769  41.431  1.00  0.00     0.031 A 
HETATM   22  C   UNL     1      32.368  51.496  40.281  1.00  0.00     0.035 A 
HETATM   23  C   UNL     1      32.475  51.202  38.829  1.00  0.00     0.070 C 
HETATM   24  N   UNL     1      31.865  52.698  40.710  1.00  0.00    -0.282 N 
HETATM   25  H   UNL     1      31.532  53.483  40.155  1.00  0.00     0.189 HD
HETATM   26  N   UNL     1      31.823  52.806  42.039  1.00  0.00    -0.179 NA
HETATM   27  C   UNL     1      32.282  51.642  42.497  1.00  0.00     0.061 A 
HETATM   28  C   UNL     1      32.336  51.416  43.965  1.00  0.00     0.073 C 
ENDBRANCH  20  21
BRANCH  20  29
HETATM   29  N   UNL     1      34.497  49.234  40.816  1.00  0.00    -0.062 N 
HETATM   30  H   UNL     1      34.335  49.327  39.809  1.00  0.00     0.275 HD
HETATM   31  H   UNL     1      35.101  50.028  41.077  1.00  0.00     0.275 HD
HETATM   32  H   UNL     1      34.971  48.353  41.030  1.00  0.00     0.275 HD
ENDBRANCH  20  29
ENDBRANCH   1  20
TORSDOF 7
ENDMDL
MODEL 8
REMARK VINA RESULT:      -8.2      1.844      4.301
REMARK  7 active torsions:
REMARK  status: ('A' for Active; 'I' for Inactive)
REMARK    1  A    between atoms: C_8  and  C_9 
REMARK    2  A    between atoms: C_9  and  N_10 
REMARK    3  A    between atoms: C_9  and  C_14 
REMARK       I    between atoms: C_14  and  N_15 
REMARK    4  A    between atoms: N_15  and  C_16 
REMARK    5  A    between atoms: C_16  and  C_17 
REMARK    6  A    between atoms: C_17  and  C_18 
REMARK    7  A    between atoms: C_17  and  C_24 
ROOT
HETATM    1  C   UNL     1      28.413  41.400  51.870  1.00  0.00     0.253 C 
HETATM    2  N   UNL     1      27.898  42.664  52.019  1.00  0.00    -0.358 N 
HETATM    3  O   UNL     1      29.509  41.035  52.301  1.00  0.00    -0.271 OA
HETATM    4  H   UNL     1      26.987  42.906  51.652  1.00  0.00     0.162 HD
ENDROOT
BRANCH   2   5
HETATM    5  C   UNL     1      28.638  43.740  52.685  1.00  0.00     0.141 C 
BRANCH   5   6
HETATM    6  C   UNL     1      28.041  44.172  54.073  1.00  0.00     0.026 C 
HETATM    7  C   UNL     1      27.003  43.080  54.457  1.00  0.00     0.027 C 
BRANCH   6   8
HETATM    8  C   UNL     1      29.235  44.225  55.072  1.00  0.00    -0.044 A 
HETATM    9  C   UNL     1      30.136  43.145  55.191  1.00  0.00     0.008 A 
HETATM   10  C   UNL     1      31.216  43.191  56.077  1.00  0.00     0.001 A 
HETATM   11  C   UNL     1      31.408  44.307  56.883  1.00  0.00     0.000 A 
HETATM   12  C   UNL     1      30.517  45.373  56.809  1.00  0.00     0.001 A 
HETATM   13  C   UNL     1      29.440  45.331  55.917  1.00  0.00     0.008 A 
ENDBRANCH   6   8
BRANCH   6  14
HETATM   14  C   UNL     1      27.222  45.494  54.039  1.00  0.00    -0.044 A 
HETATM   15  C   UNL     1      27.278  46.461  55.058  1.00  0.00     0.008 A 
HETATM   16  C   UNL     1      26.533  47.643  54.977  1.00  0.00     0.001 A 
HETATM   17  C   UNL     1      25.734  47.895  53.865  1.00  0.00     0.000 A 
HETATM   18  C   UNL     1      25.691  46.974  52.825  1.00  0.00     0.001 A 
HETATM   19  C   UNL     1      26.433  45.795  52.906  1.00  0.00     0.008 A 
ENDBRANCH   6  14
ENDBRANCH   5   6
ENDBRANCH   2   5
BRANCH   1  20
HETATM   20  C   UNL     1      27.583  40.412  51.026  1.00  0.00     0.311 C 
BRANCH  20  21
HETATM   21  C   UNL     1      27.696  40.710  49.567  1.00  0.00     0.031 A 
HETATM   22  C   UNL     1      27.079  41.698  48.806  1.00  0.00     0.035 A 
HETATM   23  C   UNL     1      26.135  42.799  49.128  1.00  0.00     0.070 C 
HETATM   24  N   UNL     1      27.537  41.530  47.524  1.00  0.00    -0.282 N 
HETATM   25  H   UNL     1      27.317  42.075  46.693  1.00  0.00     0.189 HD
HETATM   26  N   UNL     1      28.384  40.507  47.398  1.00  0.00    -0.179 NA
HETATM   27  C   UNL     1      28.508  40.006  48.626  1.00  0.00     0.061 A 
HETATM   28  C   UNL     1      29.422  38.854  48.846  1.00  0.00     0.073 C 
ENDBRANCH  20  21
BRANCH  20  29
HETATM   29  N   UNL     1      26.162  40.487  51.495  1.00  0.00    -0.062 N 
HETATM   30  H   UNL     1      25.515  40.226  50.744  1.00  0.00     0.275 HD
HETATM   31  H   UNL     1      26.050  39.766  52.224  1.00  0.00     0.275 HD
HETATM   32  H   UNL     1      25.926  41.407  51.877  1.00  0.00     0.275 HD
ENDBRANCH  20  29
ENDBRANCH   1  20
TORSDOF 7
ENDMDL
MODEL 9
REMARK VINA RESULT:      -8.1     12.587     15.234
REMARK  7 active torsions:
REMARK  status: ('A' for Active; 'I' for Inactive)
REMARK    1  A    between atoms: C_8  and  C_9 
REMARK    2  A    between atoms: C_9  and  N_10 
REMARK    3  A    between atoms: C_9  and  C_14 
REMARK       I    between atoms: C_14  and  N_15 
REMARK    4  A    between atoms: N_15  and  C_16 
REMARK    5  A    between atoms: C_16  and  C_17 
REMARK    6  A    between atoms: C_17  and  C_18 
REMARK    7  A    between atoms: C_17  and  C_24 
ROOT
HETATM    1  C   UNL     1      32.300  48.366  41.165  1.00  0.00     0.253 C 
HETATM    2  N   UNL     1      30.976  48.732  41.164  1.00  0.00    -0.358 N 
HETATM    3  O   UNL     1      32.715  47.240  40.884  1.00  0.00    -0.271 OA
HETATM    4  H   UNL     1      30.693  49.676  41.396  1.00  0.00     0.162 HD
ENDROOT
BRANCH   2   5
HETATM    5  C   UNL     1      29.899  47.785  40.861  1.00  0.00     0.141 C 
BRANCH   5   6
HETATM    6  C   UNL     1      28.738  48.385  39.988  1.00  0.00     0.026 C 
HETATM    7  C   UNL     1      29.093  48.056  38.510  1.00  0.00     0.027 C 
BRANCH   6   8
HETATM    8  C   UNL     1      27.428  47.679  40.449  1.00  0.00    -0.044 A 
HETATM    9  C   UNL     1      27.460  46.413  41.072  1.00  0.00     0.008 A 
HETATM   10  C   UNL     1      26.288  45.780  41.498  1.00  0.00     0.001 A 
HETATM   11  C   UNL     1      25.055  46.386  41.290  1.00  0.00     0.000 A 
HETATM   12  C   UNL     1      24.991  47.619  40.650  1.00  0.00     0.001 A 
HETATM   13  C   UNL     1      26.164  48.257  40.231  1.00  0.00     0.008 A 
ENDBRANCH   6   8
BRANCH   6  14
HETATM   14  C   UNL     1      28.636  49.936  40.029  1.00  0.00    -0.044 A 
HETATM   15  C   UNL     1      28.672  50.741  38.877  1.00  0.00     0.008 A 
HETATM   16  C   UNL     1      28.561  52.133  38.963  1.00  0.00     0.001 A 
HETATM   17  C   UNL     1      28.389  52.750  40.198  1.00  0.00     0.000 A 
HETATM   18  C   UNL     1      28.310  51.976  41.349  1.00  0.00     0.001 A 
HETATM   19  C   UNL     1      28.421  50.587  41.265  1.00  0.00     0.008 A 
ENDBRANCH   6  14
ENDBRANCH   5   6
ENDBRANCH   2   5
BRANCH   1  20
HETATM   20  C   UNL     1      33.309  49.431  41.641  1.00  0.00     0.311 C 
BRANCH  20  21
HETATM   21  C   UNL     1      32.715  50.801  41.611  1.00  0.00     0.031 A 
HETATM   22  C   UNL     1      32.353  51.640  42.660  1.00  0.00     0.035 A 
HETATM   23  C   UNL     1      32.430  51.524  44.139  1.00  0.00     0.070 C 
HETATM   24  N   UNL     1      31.864  52.783  42.079  1.00  0.00    -0.282 N 
HETATM   25  H   UNL     1      31.516  53.626  42.529  1.00  0.00     0.189 HD
HETATM   26  N   UNL     1      31.869  52.738  40.745  1.00  0.00    -0.179 NA
HETATM   27  C   UNL     1      32.396  51.553  40.440  1.00  0.00     0.061 A 
HETATM   28  C   UNL     1      32.577  51.192  39.010  1.00  0.00     0.073 C 
ENDBRANCH  20  21
BRANCH  20  29
HETATM   29  N   UNL     1      34.522  49.338  40.766  1.00  0.00    -0.062 N 
HETATM   30  H   UNL     1      35.045  48.477  40.956  1.00  0.00     0.275 HD
HETATM   31  H   UNL     1      34.184  49.251  39.796  1.00  0.00     0.275 HD
HETATM   32  H   UNL     1      35.127  50.158  40.851  1.00  0.00     0.275 HD
ENDBRANCH  20  29
ENDBRANCH   1  20
TORSDOF 7
ENDMDL
MODEL 10
REMARK VINA RESULT:      -8.0      2.215      4.385
REMARK  7 active torsions:
REMARK  status: ('A' for Active; 'I' for Inactive)
REMARK    1  A    between atoms: C_8  and  C_9 
REMARK    2  A    between atoms: C_9  and  N_10 
REMARK    3  A    between atoms: C_9  and  C_14 
REMARK       I    between atoms: C_14  and  N_15 
REMARK    4  A    between atoms: N_15  and  C_16 
REMARK    5  A    between atoms: C_16  and  C_17 
REMARK    6  A    between atoms: C_17  and  C_18 
REMARK    7  A    between atoms: C_17  and  C_24 
ROOT
HETATM    1  C   UNL     1      27.437  42.430  50.706  1.00  0.00     0.253 C 
HETATM    2  N   UNL     1      27.915  42.502  51.992  1.00  0.00    -0.358 N 
HETATM    3  O   UNL     1      27.508  43.344  49.881  1.00  0.00    -0.271 OA
HETATM    4  H   UNL     1      27.837  41.716  52.625  1.00  0.00     0.162 HD
ENDROOT
BRANCH   2   5
HETATM    5  C   UNL     1      28.533  43.715  52.534  1.00  0.00     0.141 C 
BRANCH   5   6
HETATM    6  C   UNL     1      27.956  44.169  53.924  1.00  0.00     0.026 C 
HETATM    7  C   UNL     1      26.890  43.107  54.318  1.00  0.00     0.027 C 
BRANCH   6   8
HETATM    8  C   UNL     1      29.157  44.192  54.916  1.00  0.00    -0.044 A 
HETATM    9  C   UNL     1      29.465  45.349  55.663  1.00  0.00     0.008 A 
HETATM   10  C   UNL     1      30.534  45.373  56.564  1.00  0.00     0.001 A 
HETATM   11  C   UNL     1      31.335  44.248  56.722  1.00  0.00     0.000 A 
HETATM   12  C   UNL     1      31.074  43.104  55.975  1.00  0.00     0.001 A 
HETATM   13  C   UNL     1      29.999  43.077  55.080  1.00  0.00     0.008 A 
ENDBRANCH   6   8
BRANCH   6  14
HETATM   14  C   UNL     1      27.174  45.513  53.890  1.00  0.00    -0.044 A 
HETATM   15  C   UNL     1      26.335  45.889  52.826  1.00  0.00     0.008 A 
HETATM   16  C   UNL     1      25.639  47.103  52.847  1.00  0.00     0.001 A 
HETATM   17  C   UNL     1      25.748  47.957  53.941  1.00  0.00     0.000 A 
HETATM   18  C   UNL     1      26.540  47.592  55.023  1.00  0.00     0.001 A 
HETATM   19  C   UNL     1      27.234  46.381  55.003  1.00  0.00     0.008 A 
ENDBRANCH   6  14
ENDBRANCH   5   6
ENDBRANCH   2   5
BRANCH   1  20
HETATM   20  C   UNL     1      26.686  41.139  50.321  1.00  0.00     0.311 C 
BRANCH  20  21
HETATM   21  C   UNL     1      25.397  41.442  49.630  1.00  0.00     0.031 A 
HETATM   22  C   UNL     1      24.878  40.933  48.444  1.00  0.00     0.035 A 
HETATM   23  C   UNL     1      25.362  39.930  47.461  1.00  0.00     0.070 C 
HETATM   24  N   UNL     1      23.661  41.541  48.272  1.00  0.00    -0.282 N 
HETATM   25  H   UNL     1      22.984  41.410  47.523  1.00  0.00     0.189 HD
HETATM   26  N   UNL     1      23.364  42.408  49.242  1.00  0.00    -0.179 NA
HETATM   27  C   UNL     1      24.394  42.351  50.084  1.00  0.00     0.061 A 
HETATM   28  C   UNL     1      24.366  43.186  51.314  1.00  0.00     0.073 C 
ENDBRANCH  20  21
BRANCH  20  29
HETATM   29  N   UNL     1      26.468  40.343  51.571  1.00  0.00    -0.062 N 
HETATM   30  H   UNL     1      27.337  40.260  52.107  1.00  0.00     0.275 HD
HETATM   31  H   UNL     1      25.825  40.890  52.164  1.00  0.00     0.275 HD
HETATM   32  H   UNL     1      26.066  39.422  51.381  1.00  0.00     0.275 HD
ENDBRANCH  20  29
ENDBRANCH   1  20
TORSDOF 7
ENDMDL
