MODEL 1
REMARK VINA RESULT:      -8.7      0.000      0.000
REMARK  4 active torsions:
REMARK  status: ('A' for Active; 'I' for Inactive)
REMARK    1  A    between atoms: C_6  and  C_7 
REMARK    2  A    between atoms: C_10  and  N_11 
REMARK       I    between atoms: N_11  and  C_12 
REMARK    3  A    between atoms: C_24  and  C_25 
REMARK       I    between atoms: C_25  and  N_26 
REMARK    4  A    between atoms: N_26  and  C_27 
ROOT
HETATM    1  C   UNL     1      17.559  46.569  45.353  1.00  0.00     0.070 C 
HETATM    2  C   UNL     1      18.398  47.517  46.172  1.00  0.00     0.037 C 
HETATM    3  N   UNL     1      19.246  46.911  47.096  1.00  0.00    -0.193 N 
HETATM    4  C   UNL     1      20.341  47.523  47.593  1.00  0.00     0.709 A 
HETATM    5  N   UNL     1      20.490  48.873  47.404  1.00  0.00    -0.165 N 
HETATM    6  C   UNL     1      19.452  49.709  46.784  1.00  0.00     0.182 C 
HETATM    7  N   UNL     1      21.367  47.003  48.216  1.00  0.00    -0.062 NA
HETATM    8  C   UNL     1      22.246  48.051  48.383  1.00  0.00     0.103 A 
HETATM    9  C   UNL     1      21.728  49.239  47.867  1.00  0.00     0.082 A 
HETATM   10  C   UNL     1      23.524  48.056  48.964  1.00  0.00     0.034 A 
HETATM   11  C   UNL     1      24.244  49.256  48.999  1.00  0.00     0.002 A 
HETATM   12  C   UNL     1      23.704  50.430  48.471  1.00  0.00     0.002 A 
HETATM   13  C   UNL     1      22.429  50.449  47.894  1.00  0.00     0.032 A 
HETATM   14  C   UNL     1      18.451  48.863  46.004  1.00  0.00     0.061 C 
HETATM   15  H   UNL     1      19.253  45.895  47.119  1.00  0.00     0.184 HD
ENDROOT
BRANCH   6  16
HETATM   16  C   UNL     1      18.805  50.566  47.873  1.00  0.00    -0.030 A 
HETATM   17  C   UNL     1      17.782  50.035  48.671  1.00  0.00     0.012 A 
HETATM   18  C   UNL     1      17.056  50.852  49.549  1.00  0.00     0.030 A 
HETATM   19  C   UNL     1      17.345  52.212  49.656  1.00  0.00     0.034 A 
HETATM   20  C   UNL     1      18.415  52.731  48.919  1.00  0.00     0.030 A 
HETATM   21  C   UNL     1      19.136  51.922  48.036  1.00  0.00     0.012 A 
BRANCH  19  22
HETATM   22  N   UNL     1      16.600  53.123  50.435  1.00  0.00    -0.328 N 
HETATM   23  C   UNL     1      15.471  53.826  50.055  1.00  0.00     0.218 C 
HETATM   24  C   UNL     1      15.023  54.798  51.119  1.00  0.00     0.117 C 
HETATM   25  O   UNL     1      14.849  53.716  49.005  1.00  0.00    -0.274 OA
HETATM   26  H   UNL     1      16.979  53.334  51.349  1.00  0.00     0.169 HD
ENDBRANCH  19  22
ENDBRANCH   6  16
BRANCH  14  27
HETATM   27  C   UNL     1      17.727  49.609  44.936  1.00  0.00     0.256 C 
HETATM   28  N   UNL     1      18.528  50.428  44.173  1.00  0.00    -0.323 N 
HETATM   29  H   UNL     1      19.526  50.360  44.314  1.00  0.00     0.169 HD
HETATM   30  O   UNL     1      16.522  49.426  44.807  1.00  0.00    -0.267 OA
BRANCH  28  31
HETATM   31  C   UNL     1      18.100  51.438  43.282  1.00  0.00     0.035 A 
HETATM   32  C   UNL     1      17.273  52.504  43.648  1.00  0.00     0.029 A 
HETATM   33  C   UNL     1      16.947  53.502  42.723  1.00  0.00     0.002 A 
HETATM   34  C   UNL     1      17.446  53.445  41.425  1.00  0.00     0.000 A 
HETATM   35  C   UNL     1      18.265  52.385  41.046  1.00  0.00     0.002 A 
HETATM   36  C   UNL     1      18.587  51.385  41.969  1.00  0.00     0.029 A 
ENDBRANCH  28  31
ENDBRANCH  14  27
TORSDOF 4
ENDMDL
MODEL 2
REMARK VINA RESULT:      -8.7      2.569      2.920
REMARK  4 active torsions:
REMARK  status: ('A' for Active; 'I' for Inactive)
REMARK    1  A    between atoms: C_6  and  C_7 
REMARK    2  A    between atoms: C_10  and  N_11 
REMARK       I    between atoms: N_11  and  C_12 
REMARK    3  A    between atoms: C_24  and  C_25 
REMARK       I    between atoms: C_25  and  N_26 
REMARK    4  A    between atoms: N_26  and  C_27 
ROOT
HETATM    1  C   UNL     1      18.394  45.357  47.285  1.00  0.00     0.070 C 
HETATM    2  C   UNL     1      19.176  46.606  47.602  1.00  0.00     0.037 C 
HETATM    3  N   UNL     1      20.236  46.434  48.488  1.00  0.00    -0.193 N 
HETATM    4  C   UNL     1      21.276  47.291  48.558  1.00  0.00     0.709 A 
HETATM    5  N   UNL     1      21.172  48.512  47.942  1.00  0.00    -0.165 N 
HETATM    6  C   UNL     1      19.932  48.979  47.305  1.00  0.00     0.182 C 
HETATM    7  N   UNL     1      22.452  47.121  49.104  1.00  0.00    -0.062 NA
HETATM    8  C   UNL     1      23.162  48.255  48.774  1.00  0.00     0.103 A 
HETATM    9  C   UNL     1      22.387  49.143  48.029  1.00  0.00     0.082 A 
HETATM   10  C   UNL     1      24.492  48.590  49.073  1.00  0.00     0.034 A 
HETATM   11  C   UNL     1      25.002  49.806  48.603  1.00  0.00     0.002 A 
HETATM   12  C   UNL     1      24.206  50.675  47.855  1.00  0.00     0.002 A 
HETATM   13  C   UNL     1      22.876  50.364  47.552  1.00  0.00     0.032 A 
HETATM   14  C   UNL     1      18.982  47.820  47.024  1.00  0.00     0.061 C 
HETATM   15  H   UNL     1      20.413  45.490  48.819  1.00  0.00     0.184 HD
ENDROOT
BRANCH   6  16
HETATM   16  C   UNL     1      19.317  50.070  48.182  1.00  0.00    -0.030 A 
HETATM   17  C   UNL     1      18.605  49.724  49.340  1.00  0.00     0.012 A 
HETATM   18  C   UNL     1      17.885  50.689  50.057  1.00  0.00     0.030 A 
HETATM   19  C   UNL     1      17.872  52.020  49.642  1.00  0.00     0.034 A 
HETATM   20  C   UNL     1      18.641  52.385  48.532  1.00  0.00     0.030 A 
HETATM   21  C   UNL     1      19.354  51.424  47.808  1.00  0.00     0.012 A 
BRANCH  19  22
HETATM   22  N   UNL     1      17.094  53.032  50.243  1.00  0.00    -0.328 N 
HETATM   23  C   UNL     1      15.718  53.176  50.196  1.00  0.00     0.218 C 
HETATM   24  C   UNL     1      15.258  54.451  50.859  1.00  0.00     0.117 C 
HETATM   25  O   UNL     1      14.910  52.396  49.705  1.00  0.00    -0.274 OA
HETATM   26  H   UNL     1      17.611  53.771  50.702  1.00  0.00     0.169 HD
ENDBRANCH  19  22
ENDBRANCH   6  16
BRANCH  14  27
HETATM   27  C   UNL     1      17.998  48.089  45.937  1.00  0.00     0.256 C 
HETATM   28  N   UNL     1      16.731  48.392  46.381  1.00  0.00    -0.323 N 
HETATM   29  H   UNL     1      16.610  48.527  47.375  1.00  0.00     0.169 HD
HETATM   30  O   UNL     1      18.382  48.045  44.774  1.00  0.00    -0.267 OA
BRANCH  28  31
HETATM   31  C   UNL     1      15.550  48.430  45.606  1.00  0.00     0.035 A 
HETATM   32  C   UNL     1      15.085  47.361  44.837  1.00  0.00     0.029 A 
HETATM   33  C   UNL     1      13.870  47.454  44.150  1.00  0.00     0.002 A 
HETATM   34  C   UNL     1      13.107  48.616  44.226  1.00  0.00     0.000 A 
HETATM   35  C   UNL     1      13.563  49.691  44.984  1.00  0.00     0.002 A 
HETATM   36  C   UNL     1      14.780  49.599  45.667  1.00  0.00     0.029 A 
ENDBRANCH  28  31
ENDBRANCH  14  27
TORSDOF 4
ENDMDL
MODEL 3
REMARK VINA RESULT:      -8.2      2.940      7.184
REMARK  4 active torsions:
REMARK  status: ('A' for Active; 'I' for Inactive)
REMARK    1  A    between atoms: C_6  and  C_7 
REMARK    2  A    between atoms: C_10  and  N_11 
REMARK       I    between atoms: N_11  and  C_12 
REMARK    3  A    between atoms: C_24  and  C_25 
REMARK       I    between atoms: C_25  and  N_26 
REMARK    4  A    between atoms: N_26  and  C_27 
ROOT
HETATM    1  C   UNL     1      14.714  50.438  44.539  1.00  0.00     0.070 C 
HETATM    2  C   UNL     1      15.107  51.096  45.837  1.00  0.00     0.037 C 
HETATM    3  N   UNL     1      14.892  52.471  45.894  1.00  0.00    -0.193 N 
HETATM    4  C   UNL     1      14.771  53.144  47.057  1.00  0.00     0.709 A 
HETATM    5  N   UNL     1      15.137  52.523  48.224  1.00  0.00    -0.165 N 
HETATM    6  C   UNL     1      15.766  51.194  48.255  1.00  0.00     0.182 C 
HETATM    7  N   UNL     1      14.289  54.340  47.274  1.00  0.00    -0.062 NA
HETATM    8  C   UNL     1      14.284  54.475  48.646  1.00  0.00     0.103 A 
HETATM    9  C   UNL     1      14.798  53.340  49.272  1.00  0.00     0.082 A 
HETATM   10  C   UNL     1      13.838  55.550  49.431  1.00  0.00     0.034 A 
HETATM   11  C   UNL     1      13.917  55.443  50.825  1.00  0.00     0.002 A 
HETATM   12  C   UNL     1      14.431  54.294  51.427  1.00  0.00     0.002 A 
HETATM   13  C   UNL     1      14.887  53.214  50.662  1.00  0.00     0.032 A 
HETATM   14  C   UNL     1      15.545  50.445  46.946  1.00  0.00     0.061 C 
HETATM   15  H   UNL     1      14.466  52.906  45.080  1.00  0.00     0.184 HD
ENDROOT
BRANCH   6  16
HETATM   16  C   UNL     1      17.242  51.365  48.617  1.00  0.00    -0.030 A 
HETATM   17  C   UNL     1      18.080  52.141  47.804  1.00  0.00     0.012 A 
HETATM   18  C   UNL     1      19.466  52.165  48.014  1.00  0.00     0.030 A 
HETATM   19  C   UNL     1      20.040  51.426  49.046  1.00  0.00     0.034 A 
HETATM   20  C   UNL     1      19.201  50.709  49.907  1.00  0.00     0.030 A 
HETATM   21  C   UNL     1      17.819  50.676  49.696  1.00  0.00     0.012 A 
BRANCH  19  22
HETATM   22  N   UNL     1      21.430  51.312  49.264  1.00  0.00    -0.328 N 
HETATM   23  C   UNL     1      22.359  50.684  48.454  1.00  0.00     0.218 C 
HETATM   24  C   UNL     1      23.733  50.663  49.077  1.00  0.00     0.117 C 
HETATM   25  O   UNL     1      22.165  50.192  47.348  1.00  0.00    -0.274 OA
HETATM   26  H   UNL     1      21.768  51.673  50.146  1.00  0.00     0.169 HD
ENDBRANCH  19  22
ENDBRANCH   6  16
BRANCH  14  27
HETATM   27  C   UNL     1      15.648  48.963  47.067  1.00  0.00     0.256 C 
HETATM   28  N   UNL     1      16.763  48.422  46.467  1.00  0.00    -0.323 N 
HETATM   29  H   UNL     1      17.458  49.067  46.118  1.00  0.00     0.169 HD
HETATM   30  O   UNL     1      14.779  48.363  47.687  1.00  0.00    -0.267 OA
BRANCH  28  31
HETATM   31  C   UNL     1      16.994  47.056  46.189  1.00  0.00     0.035 A 
HETATM   32  C   UNL     1      16.537  46.404  45.041  1.00  0.00     0.029 A 
HETATM   33  C   UNL     1      16.865  45.065  44.804  1.00  0.00     0.002 A 
HETATM   34  C   UNL     1      17.655  44.365  45.712  1.00  0.00     0.000 A 
HETATM   35  C   UNL     1      18.111  45.002  46.863  1.00  0.00     0.002 A 
HETATM   36  C   UNL     1      17.779  46.339  47.101  1.00  0.00     0.029 A 
ENDBRANCH  28  31
ENDBRANCH  14  27
TORSDOF 4
ENDMDL
MODEL 4
REMARK VINA RESULT:      -8.0      3.115      8.275
REMARK  4 active torsions:
REMARK  status: ('A' for Active; 'I' for Inactive)
REMARK    1  A    between atoms: C_6  and  C_7 
REMARK    2  A    between atoms: C_10  and  N_11 
REMARK       I    between atoms: N_11  and  C_12 
REMARK    3  A    between atoms: C_24  and  C_25 
REMARK       I    between atoms: C_25  and  N_26 
REMARK    4  A    between atoms: N_26  and  C_27 
ROOT
HETATM    1  C   UNL     1      21.748  51.135  50.951  1.00  0.00     0.070 C 
HETATM    2  C   UNL     1      20.802  50.682  49.869  1.00  0.00     0.037 C 
HETATM    3  N   UNL     1      19.454  50.928  50.119  1.00  0.00    -0.193 N 
HETATM    4  C   UNL     1      18.530  50.996  49.138  1.00  0.00     0.709 A 
HETATM    5  N   UNL     1      18.857  50.545  47.885  1.00  0.00    -0.165 N 
HETATM    6  C   UNL     1      20.135  49.881  47.587  1.00  0.00     0.182 C 
HETATM    7  N   UNL     1      17.321  51.495  49.174  1.00  0.00    -0.062 NA
HETATM    8  C   UNL     1      16.870  51.422  47.874  1.00  0.00     0.103 A 
HETATM    9  C   UNL     1      17.822  50.842  47.036  1.00  0.00     0.082 A 
HETATM   10  C   UNL     1      15.647  51.847  47.331  1.00  0.00     0.034 A 
HETATM   11  C   UNL     1      15.425  51.682  45.959  1.00  0.00     0.002 A 
HETATM   12  C   UNL     1      16.397  51.103  45.141  1.00  0.00     0.002 A 
HETATM   13  C   UNL     1      17.620  50.666  45.663  1.00  0.00     0.032 A 
HETATM   14  C   UNL     1      21.171  50.161  48.670  1.00  0.00     0.061 C 
HETATM   15  H   UNL     1      19.225  51.414  50.982  1.00  0.00     0.184 HD
ENDROOT
BRANCH   6  16
HETATM   16  C   UNL     1      19.869  48.391  47.371  1.00  0.00    -0.030 A 
HETATM   17  C   UNL     1      19.923  47.502  48.454  1.00  0.00     0.012 A 
HETATM   18  C   UNL     1      19.860  46.117  48.252  1.00  0.00     0.030 A 
HETATM   19  C   UNL     1      19.729  45.592  46.967  1.00  0.00     0.034 A 
HETATM   20  C   UNL     1      19.597  46.476  45.890  1.00  0.00     0.030 A 
HETATM   21  C   UNL     1      19.669  47.858  46.087  1.00  0.00     0.012 A 
BRANCH  19  22
HETATM   22  N   UNL     1      19.761  44.214  46.665  1.00  0.00    -0.328 N 
HETATM   23  C   UNL     1      20.847  43.471  46.237  1.00  0.00     0.218 C 
HETATM   24  C   UNL     1      20.466  42.051  45.899  1.00  0.00     0.117 C 
HETATM   25  O   UNL     1      22.008  43.852  46.132  1.00  0.00    -0.274 OA
HETATM   26  H   UNL     1      18.871  43.734  46.703  1.00  0.00     0.169 HD
ENDBRANCH  19  22
ENDBRANCH   6  16
BRANCH  14  27
HETATM   27  C   UNL     1      22.583  50.012  48.215  1.00  0.00     0.256 C 
HETATM   28  N   UNL     1      23.335  49.144  48.975  1.00  0.00    -0.323 N 
HETATM   29  H   UNL     1      22.847  48.603  49.675  1.00  0.00     0.169 HD
HETATM   30  O   UNL     1      22.948  50.632  47.224  1.00  0.00    -0.267 OA
BRANCH  28  31
HETATM   31  C   UNL     1      24.740  49.003  48.955  1.00  0.00     0.035 A 
HETATM   32  C   UNL     1      25.608  49.908  48.338  1.00  0.00     0.029 A 
HETATM   33  C   UNL     1      26.993  49.734  48.419  1.00  0.00     0.002 A 
HETATM   34  C   UNL     1      27.525  48.656  49.121  1.00  0.00     0.000 A 
HETATM   35  C   UNL     1      26.671  47.744  49.735  1.00  0.00     0.002 A 
HETATM   36  C   UNL     1      25.287  47.915  49.649  1.00  0.00     0.029 A 
ENDBRANCH  28  31
ENDBRANCH  14  27
TORSDOF 4
ENDMDL
MODEL 5
REMARK VINA RESULT:      -7.9      2.242      7.605
REMARK  4 active torsions:
REMARK  status: ('A' for Active; 'I' for Inactive)
REMARK    1  A    between atoms: C_6  and  C_7 
REMARK    2  A    between atoms: C_10  and  N_11 
REMARK       I    between atoms: N_11  and  C_12 
REMARK    3  A    between atoms: C_24  and  C_25 
REMARK       I    between atoms: C_25  and  N_26 
REMARK    4  A    between atoms: N_26  and  C_27 
ROOT
HETATM    1  C   UNL     1      18.075  52.535  49.143  1.00  0.00     0.070 C 
HETATM    2  C   UNL     1      17.943  51.933  47.766  1.00  0.00     0.037 C 
HETATM    3  N   UNL     1      17.107  52.627  46.894  1.00  0.00    -0.193 N 
HETATM    4  C   UNL     1      17.192  52.508  45.553  1.00  0.00     0.709 A 
HETATM    5  N   UNL     1      17.929  51.480  45.023  1.00  0.00    -0.165 N 
HETATM    6  C   UNL     1      18.538  50.429  45.851  1.00  0.00     0.182 C 
HETATM    7  N   UNL     1      16.702  53.285  44.621  1.00  0.00    -0.062 NA
HETATM    8  C   UNL     1      17.194  52.773  43.440  1.00  0.00     0.103 A 
HETATM    9  C   UNL     1      17.984  51.646  43.662  1.00  0.00     0.082 A 
HETATM   10  C   UNL     1      17.013  53.236  42.127  1.00  0.00     0.034 A 
HETATM   11  C   UNL     1      17.641  52.552  41.079  1.00  0.00     0.002 A 
HETATM   12  C   UNL     1      18.430  51.428  41.330  1.00  0.00     0.002 A 
HETATM   13  C   UNL     1      18.617  50.946  42.630  1.00  0.00     0.032 A 
HETATM   14  C   UNL     1      18.635  50.858  47.310  1.00  0.00     0.061 C 
HETATM   15  H   UNL     1      16.688  53.485  47.241  1.00  0.00     0.184 HD
ENDROOT
BRANCH   6  16
HETATM   16  C   UNL     1      17.749  49.135  45.648  1.00  0.00    -0.030 A 
HETATM   17  C   UNL     1      18.287  48.096  44.876  1.00  0.00     0.012 A 
HETATM   18  C   UNL     1      17.513  46.980  44.530  1.00  0.00     0.030 A 
HETATM   19  C   UNL     1      16.191  46.873  44.958  1.00  0.00     0.034 A 
HETATM   20  C   UNL     1      15.672  47.870  45.792  1.00  0.00     0.030 A 
HETATM   21  C   UNL     1      16.438  48.989  46.132  1.00  0.00     0.012 A 
BRANCH  19  22
HETATM   22  N   UNL     1      15.312  45.839  44.572  1.00  0.00    -0.328 N 
HETATM   23  C   UNL     1      14.369  45.870  43.559  1.00  0.00     0.218 C 
HETATM   24  C   UNL     1      13.533  44.615  43.524  1.00  0.00     0.117 C 
HETATM   25  O   UNL     1      14.188  46.768  42.745  1.00  0.00    -0.274 OA
HETATM   26  H   UNL     1      15.331  45.007  45.147  1.00  0.00     0.169 HD
ENDBRANCH  19  22
ENDBRANCH   6  16
BRANCH  14  27
HETATM   27  C   UNL     1      19.685  50.140  48.088  1.00  0.00     0.256 C 
HETATM   28  N   UNL     1      20.951  50.663  47.949  1.00  0.00    -0.323 N 
HETATM   29  H   UNL     1      21.037  51.537  47.451  1.00  0.00     0.169 HD
HETATM   30  O   UNL     1      19.351  49.188  48.783  1.00  0.00    -0.267 OA
BRANCH  28  31
HETATM   31  C   UNL     1      22.165  50.054  48.339  1.00  0.00     0.035 A 
HETATM   32  C   UNL     1      22.243  48.897  49.119  1.00  0.00     0.029 A 
HETATM   33  C   UNL     1      23.482  48.316  49.408  1.00  0.00     0.002 A 
HETATM   34  C   UNL     1      24.655  48.883  48.917  1.00  0.00     0.000 A 
HETATM   35  C   UNL     1      24.590  50.039  48.143  1.00  0.00     0.002 A 
HETATM   36  C   UNL     1      23.352  50.623  47.860  1.00  0.00     0.029 A 
ENDBRANCH  28  31
ENDBRANCH  14  27
TORSDOF 4
ENDMDL
MODEL 6
REMARK VINA RESULT:      -7.8     26.792     28.833
REMARK  4 active torsions:
REMARK  status: ('A' for Active; 'I' for Inactive)
REMARK    1  A    between atoms: C_6  and  C_7 
REMARK    2  A    between atoms: C_10  and  N_11 
REMARK       I    between atoms: N_11  and  C_12 
REMARK    3  A    between atoms: C_24  and  C_25 
REMARK       I    between atoms: C_25  and  N_26 
REMARK    4  A    between atoms: N_26  and  C_27 
ROOT
HETATM    1  C   UNL     1      35.518  47.310  67.928  1.00  0.00     0.070 C 
HETATM    2  C   UNL     1      36.596  46.663  67.095  1.00  0.00     0.037 C 
HETATM    3  N   UNL     1      36.611  45.271  67.122  1.00  0.00    -0.193 N 
HETATM    4  C   UNL     1      37.184  44.528  66.153  1.00  0.00     0.709 A 
HETATM    5  N   UNL     1      38.016  45.141  65.251  1.00  0.00    -0.165 N 
HETATM    6  C   UNL     1      38.404  46.555  65.361  1.00  0.00     0.182 C 
HETATM    7  N   UNL     1      37.031  43.256  65.885  1.00  0.00    -0.062 NA
HETATM    8  C   UNL     1      37.744  43.052  64.724  1.00  0.00     0.103 A 
HETATM    9  C   UNL     1      38.362  44.224  64.291  1.00  0.00     0.082 A 
HETATM   10  C   UNL     1      37.897  41.877  63.971  1.00  0.00     0.034 A 
HETATM   11  C   UNL     1      38.663  41.923  62.799  1.00  0.00     0.002 A 
HETATM   12  C   UNL     1      39.268  43.112  62.386  1.00  0.00     0.002 A 
HETATM   13  C   UNL     1      39.133  44.291  63.126  1.00  0.00     0.032 A 
HETATM   14  C   UNL     1      37.455  47.321  66.276  1.00  0.00     0.061 C 
HETATM   15  H   UNL     1      35.885  44.812  67.666  1.00  0.00     0.184 HD
ENDROOT
BRANCH   6  16
HETATM   16  C   UNL     1      39.866  46.623  65.805  1.00  0.00    -0.030 A 
HETATM   17  C   UNL     1      40.825  47.220  64.976  1.00  0.00     0.012 A 
HETATM   18  C   UNL     1      42.192  47.135  65.279  1.00  0.00     0.030 A 
HETATM   19  C   UNL     1      42.625  46.463  66.421  1.00  0.00     0.034 A 
HETATM   20  C   UNL     1      41.668  45.930  67.291  1.00  0.00     0.030 A 
HETATM   21  C   UNL     1      40.305  46.005  66.988  1.00  0.00     0.012 A 
BRANCH  19  22
HETATM   22  N   UNL     1      43.980  46.242  66.745  1.00  0.00    -0.328 N 
HETATM   23  C   UNL     1      44.757  45.146  66.413  1.00  0.00     0.218 C 
HETATM   24  C   UNL     1      46.128  45.210  67.041  1.00  0.00     0.117 C 
HETATM   25  O   UNL     1      44.441  44.207  65.691  1.00  0.00    -0.274 OA
HETATM   26  H   UNL     1      44.408  46.934  67.347  1.00  0.00     0.169 HD
ENDBRANCH  19  22
ENDBRANCH   6  16
BRANCH  14  27
HETATM   27  C   UNL     1      37.424  48.791  66.027  1.00  0.00     0.256 C 
HETATM   28  N   UNL     1      37.897  49.553  67.072  1.00  0.00    -0.323 N 
HETATM   29  H   UNL     1      38.329  49.062  67.843  1.00  0.00     0.169 HD
HETATM   30  O   UNL     1      37.018  49.194  64.944  1.00  0.00    -0.267 OA
BRANCH  28  31
HETATM   31  C   UNL     1      37.748  50.948  67.236  1.00  0.00     0.035 A 
HETATM   32  C   UNL     1      38.004  51.884  66.230  1.00  0.00     0.029 A 
HETATM   33  C   UNL     1      37.768  53.246  66.449  1.00  0.00     0.002 A 
HETATM   34  C   UNL     1      37.273  53.684  67.674  1.00  0.00     0.000 A 
HETATM   35  C   UNL     1      37.021  52.762  68.685  1.00  0.00     0.002 A 
HETATM   36  C   UNL     1      37.261  51.402  68.468  1.00  0.00     0.029 A 
ENDBRANCH  28  31
ENDBRANCH  14  27
TORSDOF 4
ENDMDL
MODEL 7
REMARK VINA RESULT:      -7.7      9.645     12.074
REMARK  4 active torsions:
REMARK  status: ('A' for Active; 'I' for Inactive)
REMARK    1  A    between atoms: C_6  and  C_7 
REMARK    2  A    between atoms: C_10  and  N_11 
REMARK       I    between atoms: N_11  and  C_12 
REMARK    3  A    between atoms: C_24  and  C_25 
REMARK       I    between atoms: C_25  and  N_26 
REMARK    4  A    between atoms: N_26  and  C_27 
ROOT
HETATM    1  C   UNL     1      30.653  47.709  38.762  1.00  0.00     0.070 C 
HETATM    2  C   UNL     1      29.419  47.037  39.310  1.00  0.00     0.037 C 
HETATM    3  N   UNL     1      29.308  45.678  39.026  1.00  0.00    -0.193 N 
HETATM    4  C   UNL     1      28.545  44.840  39.756  1.00  0.00     0.709 A 
HETATM    5  N   UNL     1      27.634  45.368  40.636  1.00  0.00    -0.165 N 
HETATM    6  C   UNL     1      27.370  46.810  40.737  1.00  0.00     0.182 C 
HETATM    7  N   UNL     1      28.564  43.533  39.804  1.00  0.00    -0.062 NA
HETATM    8  C   UNL     1      27.674  43.202  40.802  1.00  0.00     0.103 A 
HETATM    9  C   UNL     1      27.084  44.338  41.356  1.00  0.00     0.082 A 
HETATM   10  C   UNL     1      27.325  41.937  41.299  1.00  0.00     0.034 A 
HETATM   11  C   UNL     1      26.399  41.856  42.346  1.00  0.00     0.002 A 
HETATM   12  C   UNL     1      25.826  43.009  42.886  1.00  0.00     0.002 A 
HETATM   13  C   UNL     1      26.155  44.279  42.400  1.00  0.00     0.032 A 
HETATM   14  C   UNL     1      28.497  47.626  40.114  1.00  0.00     0.061 C 
HETATM   15  H   UNL     1      30.072  45.251  38.509  1.00  0.00     0.184 HD
ENDROOT
BRANCH   6  16
HETATM   16  C   UNL     1      26.000  47.096  40.121  1.00  0.00    -0.030 A 
HETATM   17  C   UNL     1      25.863  47.205  38.730  1.00  0.00     0.012 A 
HETATM   18  C   UNL     1      24.660  47.641  38.157  1.00  0.00     0.030 A 
HETATM   19  C   UNL     1      23.567  47.964  38.960  1.00  0.00     0.034 A 
HETATM   20  C   UNL     1      23.674  47.785  40.343  1.00  0.00     0.030 A 
HETATM   21  C   UNL     1      24.874  47.359  40.920  1.00  0.00     0.012 A 
BRANCH  19  22
HETATM   22  N   UNL     1      22.358  48.507  38.475  1.00  0.00    -0.328 N 
HETATM   23  C   UNL     1      22.028  49.844  38.347  1.00  0.00     0.218 C 
HETATM   24  C   UNL     1      20.598  50.036  37.904  1.00  0.00     0.117 C 
HETATM   25  O   UNL     1      22.760  50.809  38.539  1.00  0.00    -0.274 OA
HETATM   26  H   UNL     1      21.630  47.838  38.262  1.00  0.00     0.169 HD
ENDBRANCH  19  22
ENDBRANCH   6  16
BRANCH  14  27
HETATM   27  C   UNL     1      28.596  49.021  40.630  1.00  0.00     0.256 C 
HETATM   28  N   UNL     1      29.022  49.941  39.698  1.00  0.00    -0.323 N 
HETATM   29  H   UNL     1      29.105  49.626  38.742  1.00  0.00     0.169 HD
HETATM   30  O   UNL     1      28.283  49.239  41.794  1.00  0.00    -0.267 OA
BRANCH  28  31
HETATM   31  C   UNL     1      29.460  51.261  39.952  1.00  0.00     0.035 A 
HETATM   32  C   UNL     1      28.715  52.403  39.648  1.00  0.00     0.029 A 
HETATM   33  C   UNL     1      29.188  53.674  39.992  1.00  0.00     0.002 A 
HETATM   34  C   UNL     1      30.410  53.814  40.644  1.00  0.00     0.000 A 
HETATM   35  C   UNL     1      31.164  52.684  40.947  1.00  0.00     0.002 A 
HETATM   36  C   UNL     1      30.692  51.415  40.599  1.00  0.00     0.029 A 
ENDBRANCH  28  31
ENDBRANCH  14  27
TORSDOF 4
ENDMDL
MODEL 8
REMARK VINA RESULT:      -7.5     26.201     28.615
REMARK  4 active torsions:
REMARK  status: ('A' for Active; 'I' for Inactive)
REMARK    1  A    between atoms: C_6  and  C_7 
REMARK    2  A    between atoms: C_10  and  N_11 
REMARK       I    between atoms: N_11  and  C_12 
REMARK    3  A    between atoms: C_24  and  C_25 
REMARK       I    between atoms: C_25  and  N_26 
REMARK    4  A    between atoms: N_26  and  C_27 
ROOT
HETATM    1  C   UNL     1      42.585  44.819  67.300  1.00  0.00     0.070 C 
HETATM    2  C   UNL     1      41.352  45.664  67.103  1.00  0.00     0.037 C 
HETATM    3  N   UNL     1      41.231  46.747  67.971  1.00  0.00    -0.193 N 
HETATM    4  C   UNL     1      40.469  47.824  67.692  1.00  0.00     0.709 A 
HETATM    5  N   UNL     1      39.569  47.752  66.659  1.00  0.00    -0.165 N 
HETATM    6  C   UNL     1      39.315  46.512  65.912  1.00  0.00     0.182 C 
HETATM    7  N   UNL     1      40.481  49.011  68.243  1.00  0.00    -0.062 NA
HETATM    8  C   UNL     1      39.597  49.757  67.494  1.00  0.00     0.103 A 
HETATM    9  C   UNL     1      39.019  48.995  66.479  1.00  0.00     0.082 A 
HETATM   10  C   UNL     1      39.245  51.110  67.621  1.00  0.00     0.034 A 
HETATM   11  C   UNL     1      38.328  51.656  66.715  1.00  0.00     0.002 A 
HETATM   12  C   UNL     1      37.767  50.872  65.705  1.00  0.00     0.002 A 
HETATM   13  C   UNL     1      38.099  49.520  65.565  1.00  0.00     0.032 A 
HETATM   14  C   UNL     1      40.441  45.503  66.110  1.00  0.00     0.061 C 
HETATM   15  H   UNL     1      41.987  46.894  68.634  1.00  0.00     0.184 HD
ENDROOT
BRANCH   6  16
HETATM   16  C   UNL     1      37.941  45.976  66.317  1.00  0.00    -0.030 A 
HETATM   17  C   UNL     1      37.725  45.507  67.620  1.00  0.00     0.012 A 
HETATM   18  C   UNL     1      36.534  44.849  67.961  1.00  0.00     0.030 A 
HETATM   19  C   UNL     1      35.531  44.659  67.011  1.00  0.00     0.034 A 
HETATM   20  C   UNL     1      35.710  45.192  65.730  1.00  0.00     0.030 A 
HETATM   21  C   UNL     1      36.899  45.841  65.384  1.00  0.00     0.012 A 
BRANCH  19  22
HETATM   22  N   UNL     1      34.351  43.922  67.240  1.00  0.00    -0.328 N 
HETATM   23  C   UNL     1      34.028  42.673  66.739  1.00  0.00     0.218 C 
HETATM   24  C   UNL     1      32.625  42.259  67.106  1.00  0.00     0.117 C 
HETATM   25  O   UNL     1      34.749  41.931  66.081  1.00  0.00    -0.274 OA
HETATM   26  H   UNL     1      33.634  44.393  67.776  1.00  0.00     0.169 HD
ENDBRANCH  19  22
ENDBRANCH   6  16
BRANCH  14  27
HETATM   27  C   UNL     1      40.553  44.494  65.018  1.00  0.00     0.256 C 
HETATM   28  N   UNL     1      39.690  43.428  65.140  1.00  0.00    -0.323 N 
HETATM   29  H   UNL     1      38.989  43.483  65.866  1.00  0.00     0.169 HD
HETATM   30  O   UNL     1      41.358  44.693  64.117  1.00  0.00    -0.267 OA
BRANCH  28  31
HETATM   31  C   UNL     1      39.745  42.211  64.426  1.00  0.00     0.035 A 
HETATM   32  C   UNL     1      40.456  41.086  64.852  1.00  0.00     0.029 A 
HETATM   33  C   UNL     1      40.406  39.894  64.122  1.00  0.00     0.002 A 
HETATM   34  C   UNL     1      39.643  39.814  62.961  1.00  0.00     0.000 A 
HETATM   35  C   UNL     1      38.935  40.929  62.522  1.00  0.00     0.002 A 
HETATM   36  C   UNL     1      38.989  42.122  63.249  1.00  0.00     0.029 A 
ENDBRANCH  28  31
ENDBRANCH  14  27
TORSDOF 4
ENDMDL
MODEL 9
REMARK VINA RESULT:      -7.5     15.946     18.912
REMARK  4 active torsions:
REMARK  status: ('A' for Active; 'I' for Inactive)
REMARK    1  A    between atoms: C_6  and  C_7 
REMARK    2  A    between atoms: C_10  and  N_11 
REMARK       I    between atoms: N_11  and  C_12 
REMARK    3  A    between atoms: C_24  and  C_25 
REMARK       I    between atoms: C_25  and  N_26 
REMARK    4  A    between atoms: N_26  and  C_27 
ROOT
HETATM    1  C   UNL     1      33.425  52.006  44.321  1.00  0.00     0.070 C 
HETATM    2  C   UNL     1      34.796  52.002  43.695  1.00  0.00     0.037 C 
HETATM    3  N   UNL     1      35.843  52.317  44.558  1.00  0.00    -0.193 N 
HETATM    4  C   UNL     1      37.121  51.958  44.316  1.00  0.00     0.709 A 
HETATM    5  N   UNL     1      37.460  51.512  43.065  1.00  0.00    -0.165 N 
HETATM    6  C   UNL     1      36.517  51.515  41.937  1.00  0.00     0.182 C 
HETATM    7  N   UNL     1      38.138  51.916  45.139  1.00  0.00    -0.062 NA
HETATM    8  C   UNL     1      39.163  51.360  44.405  1.00  0.00     0.103 A 
HETATM    9  C   UNL     1      38.761  51.080  43.099  1.00  0.00     0.082 A 
HETATM   10  C   UNL     1      40.474  51.053  44.800  1.00  0.00     0.034 A 
HETATM   11  C   UNL     1      41.338  50.464  43.869  1.00  0.00     0.002 A 
HETATM   12  C   UNL     1      40.910  50.190  42.569  1.00  0.00     0.002 A 
HETATM   13  C   UNL     1      39.609  50.495  42.152  1.00  0.00     0.032 A 
HETATM   14  C   UNL     1      35.075  51.629  42.419  1.00  0.00     0.061 C 
HETATM   15  H   UNL     1      35.604  52.489  45.531  1.00  0.00     0.184 HD
ENDROOT
BRANCH   6  16
HETATM   16  C   UNL     1      36.924  52.625  40.967  1.00  0.00    -0.030 A 
HETATM   17  C   UNL     1      37.070  53.941  41.427  1.00  0.00     0.012 A 
HETATM   18  C   UNL     1      37.266  55.000  40.529  1.00  0.00     0.030 A 
HETATM   19  C   UNL     1      37.333  54.764  39.157  1.00  0.00     0.034 A 
HETATM   20  C   UNL     1      37.264  53.443  38.698  1.00  0.00     0.030 A 
HETATM   21  C   UNL     1      37.060  52.386  39.590  1.00  0.00     0.012 A 
BRANCH  19  22
HETATM   22  N   UNL     1      37.424  55.778  38.180  1.00  0.00    -0.328 N 
HETATM   23  C   UNL     1      38.437  56.708  38.025  1.00  0.00     0.218 C 
HETATM   24  C   UNL     1      38.126  57.711  36.942  1.00  0.00     0.117 C 
HETATM   25  O   UNL     1      39.492  56.764  38.648  1.00  0.00    -0.274 OA
HETATM   26  H   UNL     1      36.624  55.874  37.569  1.00  0.00     0.169 HD
ENDBRANCH  19  22
ENDBRANCH   6  16
BRANCH  14  27
HETATM   27  C   UNL     1      34.067  51.106  41.454  1.00  0.00     0.256 C 
HETATM   28  N   UNL     1      33.504  52.068  40.645  1.00  0.00    -0.323 N 
HETATM   29  H   UNL     1      33.903  52.996  40.685  1.00  0.00     0.169 HD
HETATM   30  O   UNL     1      33.839  49.903  41.438  1.00  0.00    -0.267 OA
BRANCH  28  31
HETATM   31  C   UNL     1      32.354  51.926  39.836  1.00  0.00     0.035 A 
HETATM   32  C   UNL     1      31.073  52.325  40.224  1.00  0.00     0.029 A 
HETATM   33  C   UNL     1      29.995  52.212  39.339  1.00  0.00     0.002 A 
HETATM   34  C   UNL     1      30.188  51.701  38.059  1.00  0.00     0.000 A 
HETATM   35  C   UNL     1      31.459  51.294  37.664  1.00  0.00     0.002 A 
HETATM   36  C   UNL     1      32.535  51.402  38.550  1.00  0.00     0.029 A 
ENDBRANCH  28  31
ENDBRANCH  14  27
TORSDOF 4
ENDMDL
MODEL 10
REMARK VINA RESULT:      -7.5      8.931     13.128
REMARK  4 active torsions:
REMARK  status: ('A' for Active; 'I' for Inactive)
REMARK    1  A    between atoms: C_6  and  C_7 
REMARK    2  A    between atoms: C_10  and  N_11 
REMARK       I    between atoms: N_11  and  C_12 
REMARK    3  A    between atoms: C_24  and  C_25 
REMARK       I    between atoms: C_25  and  N_26 
REMARK    4  A    between atoms: N_26  and  C_27 
ROOT
HETATM    1  C   UNL     1      23.866  45.132  48.428  1.00  0.00     0.070 C 
HETATM    2  C   UNL     1      24.845  44.129  48.984  1.00  0.00     0.037 C 
HETATM    3  N   UNL     1      26.052  44.663  49.430  1.00  0.00    -0.193 N 
HETATM    4  C   UNL     1      26.846  44.031  50.319  1.00  0.00     0.709 A 
HETATM    5  N   UNL     1      26.611  42.708  50.595  1.00  0.00    -0.165 N 
HETATM    6  C   UNL     1      25.603  41.913  49.879  1.00  0.00     0.182 C 
HETATM    7  N   UNL     1      27.827  44.510  51.039  1.00  0.00    -0.062 NA
HETATM    8  C   UNL     1      28.201  43.470  51.862  1.00  0.00     0.103 A 
HETATM    9  C   UNL     1      27.443  42.326  51.616  1.00  0.00     0.082 A 
HETATM   10  C   UNL     1      29.187  43.438  52.861  1.00  0.00     0.034 A 
HETATM   11  C   UNL     1      29.371  42.256  53.588  1.00  0.00     0.002 A 
HETATM   12  C   UNL     1      28.595  41.126  53.325  1.00  0.00     0.002 A 
HETATM   13  C   UNL     1      27.612  41.135  52.329  1.00  0.00     0.032 A 
HETATM   14  C   UNL     1      24.596  42.807  49.163  1.00  0.00     0.061 C 
HETATM   15  H   UNL     1      26.160  45.672  49.374  1.00  0.00     0.184 HD
ENDROOT
BRANCH   6  16
HETATM   16  C   UNL     1      26.326  40.942  48.944  1.00  0.00    -0.030 A 
HETATM   17  C   UNL     1      26.139  39.559  49.085  1.00  0.00     0.012 A 
HETATM   18  C   UNL     1      26.925  38.650  48.363  1.00  0.00     0.030 A 
HETATM   19  C   UNL     1      27.902  39.101  47.478  1.00  0.00     0.034 A 
HETATM   20  C   UNL     1      28.041  40.479  47.277  1.00  0.00     0.030 A 
HETATM   21  C   UNL     1      27.266  41.390  48.001  1.00  0.00     0.012 A 
BRANCH  19  22
HETATM   22  N   UNL     1      28.802  38.259  46.791  1.00  0.00    -0.328 N 
HETATM   23  C   UNL     1      28.552  37.507  45.657  1.00  0.00     0.218 C 
HETATM   24  C   UNL     1      29.726  36.636  45.284  1.00  0.00     0.117 C 
HETATM   25  O   UNL     1      27.530  37.507  44.980  1.00  0.00    -0.274 OA
HETATM   26  H   UNL     1      29.710  38.143  47.221  1.00  0.00     0.169 HD
ENDBRANCH  19  22
ENDBRANCH   6  16
BRANCH  14  27
HETATM   27  C   UNL     1      23.286  42.151  48.890  1.00  0.00     0.256 C 
HETATM   28  N   UNL     1      23.235  41.458  47.701  1.00  0.00    -0.323 N 
HETATM   29  H   UNL     1      24.102  41.350  47.193  1.00  0.00     0.169 HD
HETATM   30  O   UNL     1      22.393  42.254  49.722  1.00  0.00    -0.267 OA
BRANCH  28  31
HETATM   31  C   UNL     1      22.078  40.969  47.056  1.00  0.00     0.035 A 
HETATM   32  C   UNL     1      21.327  41.704  46.135  1.00  0.00     0.029 A 
HETATM   33  C   UNL     1      20.230  41.126  45.487  1.00  0.00     0.002 A 
HETATM   34  C   UNL     1      19.875  39.806  45.752  1.00  0.00     0.000 A 
HETATM   35  C   UNL     1      20.611  39.066  46.673  1.00  0.00     0.002 A 
HETATM   36  C   UNL     1      21.704  39.646  47.324  1.00  0.00     0.029 A 
ENDBRANCH  28  31
ENDBRANCH  14  27
TORSDOF 4
ENDMDL
