MODEL 1
REMARK VINA RESULT:      -9.9      0.000      0.000
REMARK  5 active torsions:
REMARK  status: ('A' for Active; 'I' for Inactive)
REMARK    1  A    between atoms: C_4  and  C_5 
REMARK    2  A    between atoms: N_7  and  C_8 
REMARK    3  A    between atoms: C_15  and  C_16 
REMARK       I    between atoms: C_16  and  N_17 
REMARK    4  A    between atoms: N_17  and  N_18 
REMARK       I    between atoms: N_18  and  C_19 
REMARK    5  A    between atoms: C_19  and  C_20 
ROOT
HETATM    1  C   UNL     1      26.955  43.379  51.907  1.00  0.00     0.105 A 
HETATM    2  N   UNL     1      27.996  43.177  52.733  1.00  0.00    -0.166 NA
HETATM    3  N   UNL     1      28.003  44.220  53.586  1.00  0.00    -0.244 N 
HETATM    4  C   UNL     1      26.968  45.083  53.323  1.00  0.00     0.138 A 
HETATM    5  C   UNL     1      26.247  44.571  52.256  1.00  0.00     0.082 A 
ENDROOT
BRANCH   5   6
HETATM    6  C   UNL     1      25.043  45.147  51.665  1.00  0.00     0.274 C 
HETATM    7  N   UNL     1      25.199  46.427  51.168  1.00  0.00    -0.263 N 
HETATM    8  H   UNL     1      26.043  46.980  51.281  1.00  0.00     0.190 HD
HETATM    9  O   UNL     1      23.966  44.560  51.600  1.00  0.00    -0.266 OA
BRANCH   7  10
HETATM   10  N   UNL     1      24.116  47.085  50.577  1.00  0.00    -0.263 N 
HETATM   11  C   UNL     1      24.378  48.163  49.764  1.00  0.00     0.275 C 
HETATM   12  O   UNL     1      25.525  48.582  49.594  1.00  0.00    -0.266 OA
HETATM   13  H   UNL     1      23.176  46.698  50.722  1.00  0.00     0.190 HD
BRANCH  11  14
HETATM   14  C   UNL     1      23.200  48.783  49.099  1.00  0.00     0.101 A 
HETATM   15  C   UNL     1      22.113  47.995  48.443  1.00  0.00     0.261 A 
HETATM   16  O   UNL     1      22.120  46.768  48.416  1.00  0.00    -0.267 OA
HETATM   17  N   UNL     1      21.096  48.721  47.862  1.00  0.00    -0.333 N 
HETATM   18  C   UNL     1      21.035  50.090  47.859  1.00  0.00     0.091 A 
HETATM   19  H   UNL     1      20.364  48.178  47.417  1.00  0.00     0.168 HD
HETATM   20  C   UNL     1      22.001  50.804  48.446  1.00  0.00     0.018 A 
HETATM   21  C   UNL     1      23.110  50.127  49.080  1.00  0.00     0.024 A 
ENDBRANCH  11  14
ENDBRANCH   7  10
ENDBRANCH   5   6
BRANCH   1  22
HETATM   22  C   UNL     1      26.691  42.391  50.857  1.00  0.00    -0.005 A 
HETATM   23  C   UNL     1      26.463  41.052  51.208  1.00  0.00     0.014 A 
HETATM   24  C   UNL     1      26.233  40.086  50.225  1.00  0.00     0.001 A 
HETATM   25  C   UNL     1      26.236  40.449  48.880  1.00  0.00     0.000 A 
HETATM   26  C   UNL     1      26.476  41.773  48.518  1.00  0.00     0.001 A 
HETATM   27  C   UNL     1      26.712  42.739  49.502  1.00  0.00     0.014 A 
ENDBRANCH   1  22
BRANCH   3  28
HETATM   28  C   UNL     1      28.989  44.319  54.610  1.00  0.00     0.058 A 
HETATM   29  C   UNL     1      29.897  43.264  54.795  1.00  0.00     0.031 A 
HETATM   30  C   UNL     1      30.866  43.335  55.798  1.00  0.00     0.002 A 
HETATM   31  C   UNL     1      30.936  44.454  56.623  1.00  0.00     0.000 A 
HETATM   32  C   UNL     1      30.040  45.508  56.445  1.00  0.00     0.002 A 
HETATM   33  C   UNL     1      29.068  45.445  55.442  1.00  0.00     0.031 A 
ENDBRANCH   3  28
TORSDOF 5
ENDMDL
MODEL 2
REMARK VINA RESULT:      -9.7      4.038      7.293
REMARK  5 active torsions:
REMARK  status: ('A' for Active; 'I' for Inactive)
REMARK    1  A    between atoms: C_4  and  C_5 
REMARK    2  A    between atoms: N_7  and  C_8 
REMARK    3  A    between atoms: C_15  and  C_16 
REMARK       I    between atoms: C_16  and  N_17 
REMARK    4  A    between atoms: N_17  and  N_18 
REMARK       I    between atoms: N_18  and  C_19 
REMARK    5  A    between atoms: C_19  and  C_20 
ROOT
HETATM    1  C   UNL     1      27.933  43.975  52.900  1.00  0.00     0.105 A 
HETATM    2  N   UNL     1      28.518  44.648  53.906  1.00  0.00    -0.166 NA
HETATM    3  N   UNL     1      29.219  43.736  54.608  1.00  0.00    -0.244 N 
HETATM    4  C   UNL     1      29.098  42.484  54.054  1.00  0.00     0.138 A 
HETATM    5  C   UNL     1      28.292  42.591  52.931  1.00  0.00     0.082 A 
ENDROOT
BRANCH   5   6
HETATM    6  C   UNL     1      27.927  41.513  52.019  1.00  0.00     0.274 C 
HETATM    7  N   UNL     1      28.951  41.080  51.196  1.00  0.00    -0.263 N 
HETATM    8  H   UNL     1      29.862  41.526  51.144  1.00  0.00     0.190 HD
HETATM    9  O   UNL     1      26.808  41.010  51.968  1.00  0.00    -0.266 OA
BRANCH   7  10
HETATM   10  N   UNL     1      28.724  40.050  50.279  1.00  0.00    -0.263 N 
HETATM   11  C   UNL     1      28.311  40.389  49.012  1.00  0.00     0.275 C 
HETATM   12  O   UNL     1      28.092  41.561  48.695  1.00  0.00    -0.266 OA
HETATM   13  H   UNL     1      28.935  39.088  50.569  1.00  0.00     0.190 HD
BRANCH  11  14
HETATM   14  C   UNL     1      28.153  39.264  48.052  1.00  0.00     0.101 A 
HETATM   15  C   UNL     1      28.966  38.012  48.107  1.00  0.00     0.261 A 
HETATM   16  O   UNL     1      29.824  37.827  48.965  1.00  0.00    -0.267 OA
HETATM   17  N   UNL     1      28.706  37.069  47.136  1.00  0.00    -0.333 N 
HETATM   18  C   UNL     1      27.763  37.220  46.153  1.00  0.00     0.091 A 
HETATM   19  H   UNL     1      29.265  36.224  47.180  1.00  0.00     0.168 HD
HETATM   20  C   UNL     1      27.028  38.335  46.097  1.00  0.00     0.018 A 
HETATM   21  C   UNL     1      27.234  39.381  47.073  1.00  0.00     0.024 A 
ENDBRANCH  11  14
ENDBRANCH   7  10
ENDBRANCH   5   6
BRANCH   1  22
HETATM   22  C   UNL     1      27.096  44.716  51.954  1.00  0.00    -0.005 A 
HETATM   23  C   UNL     1      27.291  44.547  50.575  1.00  0.00     0.014 A 
HETATM   24  C   UNL     1      26.522  45.259  49.651  1.00  0.00     0.001 A 
HETATM   25  C   UNL     1      25.554  46.156  50.099  1.00  0.00     0.000 A 
HETATM   26  C   UNL     1      25.360  46.344  51.466  1.00  0.00     0.001 A 
HETATM   27  C   UNL     1      26.134  45.635  52.390  1.00  0.00     0.014 A 
ENDBRANCH   1  22
BRANCH   3  28
HETATM   28  C   UNL     1      29.972  44.118  55.755  1.00  0.00     0.058 A 
HETATM   29  C   UNL     1      31.017  43.291  56.199  1.00  0.00     0.031 A 
HETATM   30  C   UNL     1      31.762  43.640  57.326  1.00  0.00     0.002 A 
HETATM   31  C   UNL     1      31.472  44.812  58.019  1.00  0.00     0.000 A 
HETATM   32  C   UNL     1      30.437  45.640  57.586  1.00  0.00     0.002 A 
HETATM   33  C   UNL     1      29.687  45.298  56.457  1.00  0.00     0.031 A 
ENDBRANCH   3  28
TORSDOF 5
ENDMDL
MODEL 3
REMARK VINA RESULT:      -9.4      3.704      9.376
REMARK  5 active torsions:
REMARK  status: ('A' for Active; 'I' for Inactive)
REMARK    1  A    between atoms: C_4  and  C_5 
REMARK    2  A    between atoms: N_7  and  C_8 
REMARK    3  A    between atoms: C_15  and  C_16 
REMARK       I    between atoms: C_16  and  N_17 
REMARK    4  A    between atoms: N_17  and  N_18 
REMARK       I    between atoms: N_18  and  C_19 
REMARK    5  A    between atoms: C_19  and  C_20 
ROOT
HETATM    1  C   UNL     1      23.247  48.752  48.936  1.00  0.00     0.105 A 
HETATM    2  N   UNL     1      22.481  49.847  49.079  1.00  0.00    -0.166 NA
HETATM    3  N   UNL     1      21.205  49.427  48.984  1.00  0.00    -0.244 N 
HETATM    4  C   UNL     1      21.143  48.068  48.793  1.00  0.00     0.138 A 
HETATM    5  C   UNL     1      22.441  47.581  48.776  1.00  0.00     0.082 A 
ENDROOT
BRANCH   5   6
HETATM    6  C   UNL     1      22.843  46.185  48.634  1.00  0.00     0.274 C 
HETATM    7  N   UNL     1      23.256  45.580  49.806  1.00  0.00    -0.263 N 
HETATM    8  H   UNL     1      23.372  46.071  50.687  1.00  0.00     0.190 HD
HETATM    9  O   UNL     1      22.822  45.574  47.569  1.00  0.00    -0.266 OA
BRANCH   7  10
HETATM   10  N   UNL     1      23.663  44.242  49.797  1.00  0.00    -0.263 N 
HETATM   11  C   UNL     1      25.012  43.977  49.739  1.00  0.00     0.275 C 
HETATM   12  O   UNL     1      25.846  44.880  49.644  1.00  0.00    -0.266 OA
HETATM   13  H   UNL     1      22.945  43.516  49.898  1.00  0.00     0.190 HD
BRANCH  11  14
HETATM   14  C   UNL     1      25.399  42.542  49.806  1.00  0.00     0.101 A 
HETATM   15  C   UNL     1      24.852  41.495  48.891  1.00  0.00     0.261 A 
HETATM   16  O   UNL     1      24.040  41.759  48.009  1.00  0.00    -0.267 OA
HETATM   17  N   UNL     1      25.304  40.209  49.091  1.00  0.00    -0.333 N 
HETATM   18  C   UNL     1      26.206  39.855  50.059  1.00  0.00     0.091 A 
HETATM   19  H   UNL     1      24.924  39.505  48.466  1.00  0.00     0.168 HD
HETATM   20  C   UNL     1      26.705  40.784  50.881  1.00  0.00     0.018 A 
HETATM   21  C   UNL     1      26.286  42.161  50.747  1.00  0.00     0.024 A 
ENDBRANCH  11  14
ENDBRANCH   7  10
ENDBRANCH   5   6
BRANCH   1  22
HETATM   22  C   UNL     1      24.702  48.900  48.998  1.00  0.00    -0.005 A 
HETATM   23  C   UNL     1      25.335  49.864  48.198  1.00  0.00     0.014 A 
HETATM   24  C   UNL     1      26.724  50.011  48.220  1.00  0.00     0.001 A 
HETATM   25  C   UNL     1      27.496  49.188  49.036  1.00  0.00     0.000 A 
HETATM   26  C   UNL     1      26.881  48.216  49.824  1.00  0.00     0.001 A 
HETATM   27  C   UNL     1      25.491  48.067  49.799  1.00  0.00     0.014 A 
ENDBRANCH   1  22
BRANCH   3  28
HETATM   28  C   UNL     1      20.122  50.346  49.095  1.00  0.00     0.058 A 
HETATM   29  C   UNL     1      20.168  51.553  48.379  1.00  0.00     0.031 A 
HETATM   30  C   UNL     1      19.123  52.473  48.480  1.00  0.00     0.002 A 
HETATM   31  C   UNL     1      18.027  52.199  49.294  1.00  0.00     0.000 A 
HETATM   32  C   UNL     1      17.972  51.002  50.008  1.00  0.00     0.002 A 
HETATM   33  C   UNL     1      19.014  50.075  49.911  1.00  0.00     0.031 A 
ENDBRANCH   3  28
TORSDOF 5
ENDMDL
MODEL 4
REMARK VINA RESULT:      -8.9      2.303      8.763
REMARK  5 active torsions:
REMARK  status: ('A' for Active; 'I' for Inactive)
REMARK    1  A    between atoms: C_4  and  C_5 
REMARK    2  A    between atoms: N_7  and  C_8 
REMARK    3  A    between atoms: C_15  and  C_16 
REMARK       I    between atoms: C_16  and  N_17 
REMARK    4  A    between atoms: N_17  and  N_18 
REMARK       I    between atoms: N_18  and  C_19 
REMARK    5  A    between atoms: C_19  and  C_20 
ROOT
HETATM    1  C   UNL     1      23.171  46.155  49.005  1.00  0.00     0.105 A 
HETATM    2  N   UNL     1      22.151  46.888  48.527  1.00  0.00    -0.166 NA
HETATM    3  N   UNL     1      22.399  48.160  48.895  1.00  0.00    -0.244 N 
HETATM    4  C   UNL     1      23.576  48.253  49.595  1.00  0.00     0.138 A 
HETATM    5  C   UNL     1      24.126  46.983  49.675  1.00  0.00     0.082 A 
ENDROOT
BRANCH   5   6
HETATM    6  C   UNL     1      25.394  46.623  50.302  1.00  0.00     0.274 C 
HETATM    7  N   UNL     1      25.279  46.061  51.559  1.00  0.00    -0.263 N 
HETATM    8  H   UNL     1      24.403  45.984  52.067  1.00  0.00     0.190 HD
HETATM    9  O   UNL     1      26.489  46.795  49.773  1.00  0.00    -0.266 OA
BRANCH   7  10
HETATM   10  N   UNL     1      26.425  45.674  52.260  1.00  0.00    -0.263 N 
HETATM   11  C   UNL     1      26.660  44.329  52.425  1.00  0.00     0.275 C 
HETATM   12  O   UNL     1      25.866  43.478  52.018  1.00  0.00    -0.266 OA
HETATM   13  H   UNL     1      27.076  46.407  52.568  1.00  0.00     0.190 HD
BRANCH  11  14
HETATM   14  C   UNL     1      27.929  43.966  53.112  1.00  0.00     0.101 A 
HETATM   15  C   UNL     1      28.255  44.374  54.512  1.00  0.00     0.261 A 
HETATM   16  O   UNL     1      27.483  45.040  55.195  1.00  0.00    -0.267 OA
HETATM   17  N   UNL     1      29.478  43.967  55.000  1.00  0.00    -0.333 N 
HETATM   18  C   UNL     1      30.381  43.226  54.284  1.00  0.00     0.091 A 
HETATM   19  H   UNL     1      29.691  44.251  55.950  1.00  0.00     0.168 HD
HETATM   20  C   UNL     1      30.098  42.852  53.032  1.00  0.00     0.018 A 
HETATM   21  C   UNL     1      28.838  43.237  52.435  1.00  0.00     0.024 A 
ENDBRANCH  11  14
ENDBRANCH   7  10
ENDBRANCH   5   6
BRANCH   1  22
HETATM   22  C   UNL     1      23.177  44.712  48.755  1.00  0.00    -0.005 A 
HETATM   23  C   UNL     1      23.270  44.238  47.438  1.00  0.00     0.014 A 
HETATM   24  C   UNL     1      23.253  42.867  47.170  1.00  0.00     0.001 A 
HETATM   25  C   UNL     1      23.135  41.956  48.217  1.00  0.00     0.000 A 
HETATM   26  C   UNL     1      23.027  42.415  49.529  1.00  0.00     0.001 A 
HETATM   27  C   UNL     1      23.038  43.787  49.796  1.00  0.00     0.014 A 
ENDBRANCH   1  22
BRANCH   3  28
HETATM   28  C   UNL     1      21.503  49.210  48.542  1.00  0.00     0.058 A 
HETATM   29  C   UNL     1      20.485  48.961  47.607  1.00  0.00     0.031 A 
HETATM   30  C   UNL     1      19.602  49.977  47.239  1.00  0.00     0.002 A 
HETATM   31  C   UNL     1      19.726  51.247  47.797  1.00  0.00     0.000 A 
HETATM   32  C   UNL     1      20.733  51.503  48.727  1.00  0.00     0.002 A 
HETATM   33  C   UNL     1      21.620  50.490  49.102  1.00  0.00     0.031 A 
ENDBRANCH   3  28
TORSDOF 5
ENDMDL
MODEL 5
REMARK VINA RESULT:      -8.9      4.084      7.027
REMARK  5 active torsions:
REMARK  status: ('A' for Active; 'I' for Inactive)
REMARK    1  A    between atoms: C_4  and  C_5 
REMARK    2  A    between atoms: N_7  and  C_8 
REMARK    3  A    between atoms: C_15  and  C_16 
REMARK       I    between atoms: C_16  and  N_17 
REMARK    4  A    between atoms: N_17  and  N_18 
REMARK       I    between atoms: N_18  and  C_19 
REMARK    5  A    between atoms: C_19  and  C_20 
ROOT
HETATM    1  C   UNL     1      27.927  43.539  52.855  1.00  0.00     0.105 A 
HETATM    2  N   UNL     1      28.436  44.301  53.838  1.00  0.00    -0.166 NA
HETATM    3  N   UNL     1      29.233  43.493  54.564  1.00  0.00    -0.244 N 
HETATM    4  C   UNL     1      29.250  42.220  54.048  1.00  0.00     0.138 A 
HETATM    5  C   UNL     1      28.435  42.204  52.927  1.00  0.00     0.082 A 
ENDROOT
BRANCH   5   6
HETATM    6  C   UNL     1      28.190  41.065  52.048  1.00  0.00     0.274 C 
HETATM    7  N   UNL     1      26.887  40.947  51.604  1.00  0.00    -0.263 N 
HETATM    8  H   UNL     1      26.124  41.534  51.925  1.00  0.00     0.190 HD
HETATM    9  O   UNL     1      29.058  40.262  51.713  1.00  0.00    -0.266 OA
BRANCH   7  10
HETATM   10  N   UNL     1      26.530  39.895  50.754  1.00  0.00    -0.263 N 
HETATM   11  C   UNL     1      26.612  40.102  49.397  1.00  0.00     0.275 C 
HETATM   12  O   UNL     1      26.938  41.194  48.927  1.00  0.00    -0.266 OA
HETATM   13  H   UNL     1      26.283  38.993  51.178  1.00  0.00     0.190 HD
BRANCH  11  14
HETATM   14  C   UNL     1      26.293  38.931  48.537  1.00  0.00     0.101 A 
HETATM   15  C   UNL     1      26.739  37.537  48.839  1.00  0.00     0.261 A 
HETATM   16  O   UNL     1      27.402  37.266  49.836  1.00  0.00    -0.267 OA
HETATM   17  N   UNL     1      26.369  36.566  47.935  1.00  0.00    -0.333 N 
HETATM   18  C   UNL     1      25.632  36.809  46.806  1.00  0.00     0.091 A 
HETATM   19  H   UNL     1      26.679  35.623  48.148  1.00  0.00     0.168 HD
HETATM   20  C   UNL     1      25.225  38.051  46.527  1.00  0.00     0.018 A 
HETATM   21  C   UNL     1      25.568  39.136  47.419  1.00  0.00     0.024 A 
ENDBRANCH  11  14
ENDBRANCH   7  10
ENDBRANCH   5   6
BRANCH   1  22
HETATM   22  C   UNL     1      27.012  44.155  51.891  1.00  0.00    -0.005 A 
HETATM   23  C   UNL     1      25.681  44.401  52.260  1.00  0.00     0.014 A 
HETATM   24  C   UNL     1      24.781  44.966  51.353  1.00  0.00     0.001 A 
HETATM   25  C   UNL     1      25.202  45.283  50.064  1.00  0.00     0.000 A 
HETATM   26  C   UNL     1      26.518  45.029  49.680  1.00  0.00     0.001 A 
HETATM   27  C   UNL     1      27.417  44.460  50.587  1.00  0.00     0.014 A 
ENDBRANCH   1  22
BRANCH   3  28
HETATM   28  C   UNL     1      29.941  43.990  55.696  1.00  0.00     0.058 A 
HETATM   29  C   UNL     1      29.601  45.247  56.223  1.00  0.00     0.031 A 
HETATM   30  C   UNL     1      30.287  45.758  57.326  1.00  0.00     0.002 A 
HETATM   31  C   UNL     1      31.315  45.023  57.911  1.00  0.00     0.000 A 
HETATM   32  C   UNL     1      31.658  43.774  57.396  1.00  0.00     0.002 A 
HETATM   33  C   UNL     1      30.975  43.254  56.292  1.00  0.00     0.031 A 
ENDBRANCH   3  28
TORSDOF 5
ENDMDL
MODEL 6
REMARK VINA RESULT:      -8.8      3.134      5.775
REMARK  5 active torsions:
REMARK  status: ('A' for Active; 'I' for Inactive)
REMARK    1  A    between atoms: C_4  and  C_5 
REMARK    2  A    between atoms: N_7  and  C_8 
REMARK    3  A    between atoms: C_15  and  C_16 
REMARK       I    between atoms: C_16  and  N_17 
REMARK    4  A    between atoms: N_17  and  N_18 
REMARK       I    between atoms: N_18  and  C_19 
REMARK    5  A    between atoms: C_19  and  C_20 
ROOT
HETATM    1  C   UNL     1      24.902  47.318  50.404  1.00  0.00     0.105 A 
HETATM    2  N   UNL     1      25.664  47.547  51.487  1.00  0.00    -0.166 NA
HETATM    3  N   UNL     1      25.815  46.355  52.097  1.00  0.00    -0.244 N 
HETATM    4  C   UNL     1      25.164  45.360  51.408  1.00  0.00     0.138 A 
HETATM    5  C   UNL     1      24.575  45.931  50.291  1.00  0.00     0.082 A 
ENDROOT
BRANCH   5   6
HETATM    6  C   UNL     1      23.813  45.233  49.260  1.00  0.00     0.274 C 
HETATM    7  N   UNL     1      22.480  45.590  49.185  1.00  0.00    -0.263 N 
HETATM    8  H   UNL     1      22.022  46.212  49.845  1.00  0.00     0.190 HD
HETATM    9  O   UNL     1      24.296  44.393  48.505  1.00  0.00    -0.266 OA
BRANCH   7  10
HETATM   10  N   UNL     1      21.647  44.991  48.235  1.00  0.00    -0.263 N 
HETATM   11  C   UNL     1      21.421  45.662  47.056  1.00  0.00     0.275 C 
HETATM   12  O   UNL     1      21.889  46.784  46.850  1.00  0.00    -0.266 OA
HETATM   13  H   UNL     1      21.290  44.048  48.430  1.00  0.00     0.190 HD
BRANCH  11  14
HETATM   14  C   UNL     1      20.589  44.951  46.048  1.00  0.00     0.101 A 
HETATM   15  C   UNL     1      19.330  44.221  46.384  1.00  0.00     0.261 A 
HETATM   16  O   UNL     1      18.893  44.165  47.529  1.00  0.00    -0.267 OA
HETATM   17  N   UNL     1      18.681  43.604  45.336  1.00  0.00    -0.333 N 
HETATM   18  C   UNL     1      19.122  43.630  44.039  1.00  0.00     0.091 A 
HETATM   19  H   UNL     1      17.829  43.109  45.574  1.00  0.00     0.168 HD
HETATM   20  C   UNL     1      20.246  44.284  43.727  1.00  0.00     0.018 A 
HETATM   21  C   UNL     1      20.995  44.959  44.763  1.00  0.00     0.024 A 
ENDBRANCH  11  14
ENDBRANCH   7  10
ENDBRANCH   5   6
BRANCH   1  22
HETATM   22  C   UNL     1      24.567  48.446  49.531  1.00  0.00    -0.005 A 
HETATM   23  C   UNL     1      23.228  48.848  49.401  1.00  0.00     0.014 A 
HETATM   24  C   UNL     1      22.878  49.904  48.557  1.00  0.00     0.001 A 
HETATM   25  C   UNL     1      23.864  50.565  47.827  1.00  0.00     0.000 A 
HETATM   26  C   UNL     1      25.195  50.166  47.935  1.00  0.00     0.001 A 
HETATM   27  C   UNL     1      25.544  49.105  48.777  1.00  0.00     0.014 A 
ENDBRANCH   1  22
BRANCH   3  28
HETATM   28  C   UNL     1      26.582  46.238  53.291  1.00  0.00     0.058 A 
HETATM   29  C   UNL     1      26.763  47.367  54.107  1.00  0.00     0.031 A 
HETATM   30  C   UNL     1      27.518  47.278  55.277  1.00  0.00     0.002 A 
HETATM   31  C   UNL     1      28.099  46.066  55.643  1.00  0.00     0.000 A 
HETATM   32  C   UNL     1      27.923  44.939  54.841  1.00  0.00     0.002 A 
HETATM   33  C   UNL     1      27.166  45.020  53.668  1.00  0.00     0.031 A 
ENDBRANCH   3  28
TORSDOF 5
ENDMDL
MODEL 7
REMARK VINA RESULT:      -8.6      2.194      9.152
REMARK  5 active torsions:
REMARK  status: ('A' for Active; 'I' for Inactive)
REMARK    1  A    between atoms: C_4  and  C_5 
REMARK    2  A    between atoms: N_7  and  C_8 
REMARK    3  A    between atoms: C_15  and  C_16 
REMARK       I    between atoms: C_16  and  N_17 
REMARK    4  A    between atoms: N_17  and  N_18 
REMARK       I    between atoms: N_18  and  C_19 
REMARK    5  A    between atoms: C_19  and  C_20 
ROOT
HETATM    1  C   UNL     1      22.280  47.186  48.426  1.00  0.00     0.105 A 
HETATM    2  N   UNL     1      21.222  47.870  47.957  1.00  0.00    -0.166 NA
HETATM    3  N   UNL     1      21.340  49.121  48.445  1.00  0.00    -0.244 N 
HETATM    4  C   UNL     1      22.471  49.249  49.214  1.00  0.00     0.138 A 
HETATM    5  C   UNL     1      23.126  48.027  49.215  1.00  0.00     0.082 A 
ENDROOT
BRANCH   5   6
HETATM    6  C   UNL     1      24.390  47.721  49.876  1.00  0.00     0.274 C 
HETATM    7  N   UNL     1      24.273  46.962  51.025  1.00  0.00    -0.263 N 
HETATM    8  H   UNL     1      23.385  46.708  51.448  1.00  0.00     0.190 HD
HETATM    9  O   UNL     1      25.485  48.095  49.463  1.00  0.00    -0.266 OA
BRANCH   7  10
HETATM   10  N   UNL     1      25.415  46.603  51.746  1.00  0.00    -0.263 N 
HETATM   11  C   UNL     1      25.429  45.377  52.370  1.00  0.00     0.275 C 
HETATM   12  O   UNL     1      24.450  44.628  52.348  1.00  0.00    -0.266 OA
HETATM   13  H   UNL     1      26.220  47.240  51.728  1.00  0.00     0.190 HD
BRANCH  11  14
HETATM   14  C   UNL     1      26.694  45.010  53.063  1.00  0.00     0.101 A 
HETATM   15  C   UNL     1      27.707  44.074  52.490  1.00  0.00     0.261 A 
HETATM   16  O   UNL     1      27.561  43.546  51.391  1.00  0.00    -0.267 OA
HETATM   17  N   UNL     1      28.821  43.829  53.263  1.00  0.00    -0.333 N 
HETATM   18  C   UNL     1      29.037  44.387  54.495  1.00  0.00     0.091 A 
HETATM   19  H   UNL     1      29.502  43.190  52.866  1.00  0.00     0.168 HD
HETATM   20  C   UNL     1      28.138  45.228  55.017  1.00  0.00     0.018 A 
HETATM   21  C   UNL     1      26.937  45.543  54.277  1.00  0.00     0.024 A 
ENDBRANCH  11  14
ENDBRANCH   7  10
ENDBRANCH   5   6
BRANCH   1  22
HETATM   22  C   UNL     1      22.424  45.777  48.055  1.00  0.00    -0.005 A 
HETATM   23  C   UNL     1      22.388  45.410  46.701  1.00  0.00     0.014 A 
HETATM   24  C   UNL     1      22.499  44.070  46.321  1.00  0.00     0.001 A 
HETATM   25  C   UNL     1      22.640  43.082  47.293  1.00  0.00     0.000 A 
HETATM   26  C   UNL     1      22.662  43.432  48.642  1.00  0.00     0.001 A 
HETATM   27  C   UNL     1      22.546  44.773  49.022  1.00  0.00     0.014 A 
ENDBRANCH   1  22
BRANCH   3  28
HETATM   28  C   UNL     1      20.373  50.120  48.135  1.00  0.00     0.058 A 
HETATM   29  C   UNL     1      20.369  51.323  48.861  1.00  0.00     0.031 A 
HETATM   30  C   UNL     1      19.425  52.312  48.581  1.00  0.00     0.002 A 
HETATM   31  C   UNL     1      18.479  52.112  47.578  1.00  0.00     0.000 A 
HETATM   32  C   UNL     1      18.476  50.922  46.852  1.00  0.00     0.002 A 
HETATM   33  C   UNL     1      19.419  49.926  47.125  1.00  0.00     0.031 A 
ENDBRANCH   3  28
TORSDOF 5
ENDMDL
MODEL 8
REMARK VINA RESULT:      -8.5      1.574      2.033
REMARK  5 active torsions:
REMARK  status: ('A' for Active; 'I' for Inactive)
REMARK    1  A    between atoms: C_4  and  C_5 
REMARK    2  A    between atoms: N_7  and  C_8 
REMARK    3  A    between atoms: C_15  and  C_16 
REMARK       I    between atoms: C_16  and  N_17 
REMARK    4  A    between atoms: N_17  and  N_18 
REMARK       I    between atoms: N_18  and  C_19 
REMARK    5  A    between atoms: C_19  and  C_20 
ROOT
HETATM    1  C   UNL     1      26.880  42.460  51.166  1.00  0.00     0.105 A 
HETATM    2  N   UNL     1      27.950  42.506  51.978  1.00  0.00    -0.166 NA
HETATM    3  N   UNL     1      27.705  43.493  52.863  1.00  0.00    -0.244 N 
HETATM    4  C   UNL     1      26.482  44.073  52.633  1.00  0.00     0.138 A 
HETATM    5  C   UNL     1      25.898  43.424  51.556  1.00  0.00     0.082 A 
ENDROOT
BRANCH   5   6
HETATM    6  C   UNL     1      24.579  43.692  50.992  1.00  0.00     0.274 C 
HETATM    7  N   UNL     1      24.352  45.013  50.656  1.00  0.00    -0.263 N 
HETATM    8  H   UNL     1      24.997  45.769  50.864  1.00  0.00     0.190 HD
HETATM    9  O   UNL     1      23.723  42.829  50.817  1.00  0.00    -0.266 OA
BRANCH   7  10
HETATM   10  N   UNL     1      23.125  45.394  50.104  1.00  0.00    -0.263 N 
HETATM   11  C   UNL     1      23.115  46.427  49.196  1.00  0.00     0.275 C 
HETATM   12  O   UNL     1      24.142  47.044  48.907  1.00  0.00    -0.266 OA
HETATM   13  H   UNL     1      22.292  44.846  50.351  1.00  0.00     0.190 HD
BRANCH  11  14
HETATM   14  C   UNL     1      21.797  46.746  48.583  1.00  0.00     0.101 A 
HETATM   15  C   UNL     1      20.718  45.735  48.373  1.00  0.00     0.261 A 
HETATM   16  O   UNL     1      20.850  44.560  48.703  1.00  0.00    -0.267 OA
HETATM   17  N   UNL     1      19.559  46.189  47.780  1.00  0.00    -0.333 N 
HETATM   18  C   UNL     1      19.356  47.486  47.389  1.00  0.00     0.091 A 
HETATM   19  H   UNL     1      18.834  45.495  47.640  1.00  0.00     0.168 HD
HETATM   20  C   UNL     1      20.314  48.400  47.575  1.00  0.00     0.018 A 
HETATM   21  C   UNL     1      21.565  48.013  48.188  1.00  0.00     0.024 A 
ENDBRANCH  11  14
ENDBRANCH   7  10
ENDBRANCH   5   6
BRANCH   1  22
HETATM   22  C   UNL     1      26.860  41.468  50.089  1.00  0.00    -0.005 A 
HETATM   23  C   UNL     1      26.586  40.125  50.390  1.00  0.00     0.014 A 
HETATM   24  C   UNL     1      26.584  39.154  49.386  1.00  0.00     0.001 A 
HETATM   25  C   UNL     1      26.863  39.516  48.070  1.00  0.00     0.000 A 
HETATM   26  C   UNL     1      27.151  40.844  47.760  1.00  0.00     0.001 A 
HETATM   27  C   UNL     1      27.158  41.814  48.766  1.00  0.00     0.014 A 
ENDBRANCH   1  22
BRANCH   3  28
HETATM   28  C   UNL     1      28.649  43.811  53.882  1.00  0.00     0.058 A 
HETATM   29  C   UNL     1      28.484  44.989  54.629  1.00  0.00     0.031 A 
HETATM   30  C   UNL     1      29.400  45.326  55.626  1.00  0.00     0.002 A 
HETATM   31  C   UNL     1      30.486  44.494  55.887  1.00  0.00     0.000 A 
HETATM   32  C   UNL     1      30.657  43.321  55.152  1.00  0.00     0.002 A 
HETATM   33  C   UNL     1      29.742  42.976  54.152  1.00  0.00     0.031 A 
ENDBRANCH   3  28
TORSDOF 5
ENDMDL
MODEL 9
REMARK VINA RESULT:      -8.4      5.553      9.202
REMARK  5 active torsions:
REMARK  status: ('A' for Active; 'I' for Inactive)
REMARK    1  A    between atoms: C_4  and  C_5 
REMARK    2  A    between atoms: N_7  and  C_8 
REMARK    3  A    between atoms: C_15  and  C_16 
REMARK       I    between atoms: C_16  and  N_17 
REMARK    4  A    between atoms: N_17  and  N_18 
REMARK       I    between atoms: N_18  and  C_19 
REMARK    5  A    between atoms: C_19  and  C_20 
ROOT
HETATM    1  C   UNL     1      21.390  49.405  48.865  1.00  0.00     0.105 A 
HETATM    2  N   UNL     1      22.653  49.812  49.080  1.00  0.00    -0.166 NA
HETATM    3  N   UNL     1      23.435  48.740  48.849  1.00  0.00    -0.244 N 
HETATM    4  C   UNL     1      22.686  47.650  48.477  1.00  0.00     0.138 A 
HETATM    5  C   UNL     1      21.355  48.037  48.451  1.00  0.00     0.082 A 
ENDROOT
BRANCH   5   6
HETATM    6  C   UNL     1      20.217  47.205  48.074  1.00  0.00     0.274 C 
HETATM    7  N   UNL     1      19.505  47.661  46.981  1.00  0.00    -0.263 N 
HETATM    8  H   UNL     1      19.680  48.549  46.521  1.00  0.00     0.190 HD
HETATM    9  O   UNL     1      19.898  46.176  48.664  1.00  0.00    -0.266 OA
BRANCH   7  10
HETATM   10  N   UNL     1      18.393  46.947  46.524  1.00  0.00    -0.263 N 
HETATM   11  C   UNL     1      17.986  47.144  45.225  1.00  0.00     0.275 C 
HETATM   12  O   UNL     1      18.543  47.962  44.488  1.00  0.00    -0.266 OA
HETATM   13  H   UNL     1      17.965  46.259  47.155  1.00  0.00     0.190 HD
BRANCH  11  14
HETATM   14  C   UNL     1      16.845  46.308  44.762  1.00  0.00     0.101 A 
HETATM   15  C   UNL     1      16.744  44.839  45.012  1.00  0.00     0.261 A 
HETATM   16  O   UNL     1      17.606  44.220  45.629  1.00  0.00    -0.267 OA
HETATM   17  N   UNL     1      15.628  44.207  44.507  1.00  0.00    -0.333 N 
HETATM   18  C   UNL     1      14.635  44.844  43.810  1.00  0.00     0.091 A 
HETATM   19  H   UNL     1      15.569  43.209  44.680  1.00  0.00     0.168 HD
HETATM   20  C   UNL     1      14.715  46.159  43.584  1.00  0.00     0.018 A 
HETATM   21  C   UNL     1      15.852  46.905  44.074  1.00  0.00     0.024 A 
ENDBRANCH  11  14
ENDBRANCH   7  10
ENDBRANCH   5   6
BRANCH   1  22
HETATM   22  C   UNL     1      20.302  50.371  49.039  1.00  0.00    -0.005 A 
HETATM   23  C   UNL     1      20.289  51.545  48.271  1.00  0.00     0.014 A 
HETATM   24  C   UNL     1      19.277  52.494  48.434  1.00  0.00     0.001 A 
HETATM   25  C   UNL     1      18.271  52.282  49.374  1.00  0.00     0.000 A 
HETATM   26  C   UNL     1      18.281  51.127  50.153  1.00  0.00     0.001 A 
HETATM   27  C   UNL     1      19.297  50.179  49.994  1.00  0.00     0.014 A 
ENDBRANCH   1  22
BRANCH   3  28
HETATM   28  C   UNL     1      24.851  48.825  48.985  1.00  0.00     0.058 A 
HETATM   29  C   UNL     1      25.542  49.865  48.341  1.00  0.00     0.031 A 
HETATM   30  C   UNL     1      26.930  49.964  48.452  1.00  0.00     0.002 A 
HETATM   31  C   UNL     1      27.639  49.030  49.202  1.00  0.00     0.000 A 
HETATM   32  C   UNL     1      26.961  47.995  49.847  1.00  0.00     0.002 A 
HETATM   33  C   UNL     1      25.571  47.890  49.742  1.00  0.00     0.031 A 
ENDBRANCH   3  28
TORSDOF 5
ENDMDL
MODEL 10
REMARK VINA RESULT:      -8.4      3.206      6.737
REMARK  5 active torsions:
REMARK  status: ('A' for Active; 'I' for Inactive)
REMARK    1  A    between atoms: C_4  and  C_5 
REMARK    2  A    between atoms: N_7  and  C_8 
REMARK    3  A    between atoms: C_15  and  C_16 
REMARK       I    between atoms: C_16  and  N_17 
REMARK    4  A    between atoms: N_17  and  N_18 
REMARK       I    between atoms: N_18  and  C_19 
REMARK    5  A    between atoms: C_19  and  C_20 
ROOT
HETATM    1  C   UNL     1      24.648  47.201  50.423  1.00  0.00     0.105 A 
HETATM    2  N   UNL     1      25.375  47.559  51.496  1.00  0.00    -0.166 NA
HETATM    3  N   UNL     1      25.667  46.416  52.147  1.00  0.00    -0.244 N 
HETATM    4  C   UNL     1      25.144  45.326  51.494  1.00  0.00     0.138 A 
HETATM    5  C   UNL     1      24.493  45.781  50.359  1.00  0.00     0.082 A 
ENDROOT
BRANCH   5   6
HETATM    6  C   UNL     1      23.823  44.961  49.354  1.00  0.00     0.274 C 
HETATM    7  N   UNL     1      24.670  44.190  48.580  1.00  0.00    -0.263 N 
HETATM    8  H   UNL     1      25.683  44.246  48.621  1.00  0.00     0.190 HD
HETATM    9  O   UNL     1      22.606  44.938  49.192  1.00  0.00    -0.266 OA
BRANCH   7  10
HETATM   10  N   UNL     1      24.145  43.361  47.584  1.00  0.00    -0.263 N 
HETATM   11  C   UNL     1      24.089  42.009  47.830  1.00  0.00     0.275 C 
HETATM   12  O   UNL     1      24.532  41.521  48.872  1.00  0.00    -0.266 OA
HETATM   13  H   UNL     1      23.766  43.800  46.737  1.00  0.00     0.190 HD
BRANCH  11  14
HETATM   14  C   UNL     1      23.456  41.177  46.771  1.00  0.00     0.101 A 
HETATM   15  C   UNL     1      22.041  41.348  46.323  1.00  0.00     0.261 A 
HETATM   16  O   UNL     1      21.302  42.202  46.803  1.00  0.00    -0.267 OA
HETATM   17  N   UNL     1      21.602  40.488  45.338  1.00  0.00    -0.333 N 
HETATM   18  C   UNL     1      22.380  39.516  44.768  1.00  0.00     0.091 A 
HETATM   19  H   UNL     1      20.640  40.611  45.043  1.00  0.00     0.168 HD
HETATM   20  C   UNL     1      23.648  39.356  45.159  1.00  0.00     0.018 A 
HETATM   21  C   UNL     1      24.194  40.211  46.189  1.00  0.00     0.024 A 
ENDBRANCH  11  14
ENDBRANCH   7  10
ENDBRANCH   5   6
BRANCH   1  22
HETATM   22  C   UNL     1      24.181  48.249  49.512  1.00  0.00    -0.005 A 
HETATM   23  C   UNL     1      25.115  49.084  48.879  1.00  0.00     0.014 A 
HETATM   24  C   UNL     1      24.695  50.106  48.025  1.00  0.00     0.001 A 
HETATM   25  C   UNL     1      23.335  50.308  47.799  1.00  0.00     0.000 A 
HETATM   26  C   UNL     1      22.397  49.495  48.433  1.00  0.00     0.001 A 
HETATM   27  C   UNL     1      22.817  48.475  49.293  1.00  0.00     0.014 A 
ENDBRANCH   1  22
BRANCH   3  28
HETATM   28  C   UNL     1      26.440  46.433  53.343  1.00  0.00     0.058 A 
HETATM   29  C   UNL     1      26.428  47.581  54.153  1.00  0.00     0.031 A 
HETATM   30  C   UNL     1      27.185  47.625  55.325  1.00  0.00     0.002 A 
HETATM   31  C   UNL     1      27.958  46.529  55.699  1.00  0.00     0.000 A 
HETATM   32  C   UNL     1      27.975  45.385  54.902  1.00  0.00     0.002 A 
HETATM   33  C   UNL     1      27.218  45.332  53.728  1.00  0.00     0.031 A 
ENDBRANCH   3  28
TORSDOF 5
ENDMDL
