MODEL 1
REMARK VINA RESULT:     -10.5      0.000      0.000
REMARK  7 active torsions:
REMARK  status: ('A' for Active; 'I' for Inactive)
REMARK    1  A    between atoms: O_2  and  C_3 
REMARK    2  A    between atoms: C_5  and  C_6 
REMARK    3  A    between atoms: C_8  and  N_9 
REMARK    4  A    between atoms: N_12  and  C_14 
REMARK    5  A    between atoms: C_14  and  C_15 
REMARK       I    between atoms: C_15  and  N_16 
REMARK    6  A    between atoms: N_16  and  N_17 
REMARK       I    between atoms: N_17  and  C_18 
REMARK    7  A    between atoms: C_18  and  C_19 
ROOT
HETATM    1  N   UNL     1      26.470  47.376  50.239  1.00  0.00    -0.357 N 
HETATM    2  C   UNL     1      27.029  46.189  49.571  1.00  0.00     0.152 C 
HETATM    3  C   UNL     1      26.049  44.996  49.665  1.00  0.00     0.255 C 
HETATM    4  N   UNL     1      25.695  44.743  51.131  1.00  0.00    -0.060 N 
HETATM    5  H   UNL     1      26.581  44.612  51.631  1.00  0.00     0.280 HD
HETATM    6  C   UNL     1      25.054  45.998  51.746  1.00  0.00     0.255 C 
HETATM    7  C   UNL     1      26.065  47.162  51.643  1.00  0.00     0.152 C 
ENDROOT
BRANCH   4   8
HETATM    8  C   UNL     1      24.895  43.463  51.375  1.00  0.00     0.338 C 
BRANCH   8   9
HETATM    9  C   UNL     1      25.556  42.149  50.955  1.00  0.00     0.262 C 
HETATM   10  N   UNL     1      26.687  41.754  51.635  1.00  0.00    -0.266 N 
HETATM   11  H   UNL     1      27.028  40.815  51.432  1.00  0.00     0.190 HD
HETATM   12  O   UNL     1      25.136  41.475  50.015  1.00  0.00    -0.270 OA
BRANCH  10  13
HETATM   13  N   UNL     1      27.136  42.368  52.820  1.00  0.00    -0.263 N 
HETATM   14  C   UNL     1      28.508  42.444  53.028  1.00  0.00     0.270 C 
HETATM   15  O   UNL     1      29.316  41.769  52.398  1.00  0.00    -0.266 OA
HETATM   16  H   UNL     1      26.551  43.126  53.171  1.00  0.00     0.190 HD
BRANCH  14  17
HETATM   17  C   UNL     1      28.962  43.381  54.088  1.00  0.00     0.033 A 
HETATM   18  C   UNL     1      30.175  43.117  54.737  1.00  0.00     0.019 A 
HETATM   19  C   UNL     1      30.623  43.965  55.754  1.00  0.00     0.025 A 
HETATM   20  C   UNL     1      29.851  45.063  56.132  1.00  0.00     0.034 A 
HETATM   21 CL   UNL     1      30.393  46.098  57.391  1.00  0.00    -0.084 Cl
HETATM   22  C   UNL     1      28.635  45.321  55.499  1.00  0.00     0.025 A 
HETATM   23  C   UNL     1      28.186  44.482  54.475  1.00  0.00     0.019 A 
ENDBRANCH  14  17
ENDBRANCH  10  13
ENDBRANCH   8   9
ENDBRANCH   4   8
BRANCH   1  24
HETATM   24  C   UNL     1      25.740  48.298  49.533  1.00  0.00     0.169 A 
HETATM   25  N   UNL     1      24.431  48.383  49.630  1.00  0.00    -0.223 NA
HETATM   26  C   UNL     1      23.929  49.433  48.875  1.00  0.00     0.076 A 
HETATM   27  C   UNL     1      24.883  50.136  48.170  1.00  0.00     0.085 A 
HETATM   28  S   UNL     1      26.431  49.475  48.468  1.00  0.00    -0.062 SA
BRANCH  26  29
HETATM   29  C   UNL     1      22.507  49.757  48.887  1.00  0.00    -0.004 A 
HETATM   30  C   UNL     1      21.531  48.810  49.227  1.00  0.00     0.050 A 
HETATM   31  C   UNL     1      20.169  49.138  49.218  1.00  0.00     0.069 A 
HETATM   32  C   UNL     1      19.776  50.428  48.867  1.00  0.00     0.037 A 
HETATM   33  C   UNL     1      20.737  51.384  48.533  1.00  0.00     0.004 A 
HETATM   34  C   UNL     1      22.093  51.051  48.546  1.00  0.00     0.014 A 
BRANCH  31  35
HETATM   35  O   UNL     1      19.337  48.111  49.571  1.00  0.00    -0.356 OA
HETATM   36  C   UNL     1      17.958  48.261  49.252  1.00  0.00     0.210 C 
ENDBRANCH  31  35
ENDBRANCH  26  29
ENDBRANCH   1  24
TORSDOF 7
ENDMDL
MODEL 2
REMARK VINA RESULT:     -10.1      3.991     10.207
REMARK  7 active torsions:
REMARK  status: ('A' for Active; 'I' for Inactive)
REMARK    1  A    between atoms: O_2  and  C_3 
REMARK    2  A    between atoms: C_5  and  C_6 
REMARK    3  A    between atoms: C_8  and  N_9 
REMARK    4  A    between atoms: N_12  and  C_14 
REMARK    5  A    between atoms: C_14  and  C_15 
REMARK       I    between atoms: C_15  and  N_16 
REMARK    6  A    between atoms: N_16  and  N_17 
REMARK       I    between atoms: N_17  and  C_18 
REMARK    7  A    between atoms: C_18  and  C_19 
ROOT
HETATM    1  N   UNL     1      25.915  43.332  50.596  1.00  0.00    -0.357 N 
HETATM    2  C   UNL     1      26.210  44.112  49.383  1.00  0.00     0.152 C 
HETATM    3  C   UNL     1      26.151  45.629  49.680  1.00  0.00     0.255 C 
HETATM    4  N   UNL     1      24.794  45.974  50.294  1.00  0.00    -0.060 N 
HETATM    5  H   UNL     1      24.080  45.636  49.641  1.00  0.00     0.280 HD
HETATM    6  C   UNL     1      24.581  45.177  51.591  1.00  0.00     0.255 C 
HETATM    7  C   UNL     1      24.636  43.670  51.252  1.00  0.00     0.152 C 
ENDROOT
BRANCH   4   8
HETATM    8  C   UNL     1      24.534  47.473  50.445  1.00  0.00     0.338 C 
BRANCH   8   9
HETATM    9  C   UNL     1      25.114  48.384  49.361  1.00  0.00     0.262 C 
HETATM   10  N   UNL     1      24.230  49.118  48.601  1.00  0.00    -0.266 N 
HETATM   11  H   UNL     1      24.643  49.816  47.982  1.00  0.00     0.190 HD
HETATM   12  O   UNL     1      26.321  48.441  49.130  1.00  0.00    -0.270 OA
BRANCH  10  13
HETATM   13  N   UNL     1      22.861  49.244  48.902  1.00  0.00    -0.263 N 
HETATM   14  C   UNL     1      22.425  50.447  49.444  1.00  0.00     0.270 C 
HETATM   15  O   UNL     1      23.191  51.274  49.930  1.00  0.00    -0.266 OA
HETATM   16  H   UNL     1      22.227  48.733  48.287  1.00  0.00     0.190 HD
BRANCH  14  17
HETATM   17  C   UNL     1      20.959  50.683  49.433  1.00  0.00     0.033 A 
HETATM   18  C   UNL     1      20.453  51.699  48.612  1.00  0.00     0.019 A 
HETATM   19  C   UNL     1      19.081  51.962  48.591  1.00  0.00     0.025 A 
HETATM   20  C   UNL     1      18.220  51.223  49.402  1.00  0.00     0.034 A 
HETATM   21 CL   UNL     1      16.534  51.555  49.389  1.00  0.00    -0.084 Cl
HETATM   22  C   UNL     1      18.721  50.221  50.233  1.00  0.00     0.025 A 
HETATM   23  C   UNL     1      20.091  49.946  50.251  1.00  0.00     0.019 A 
ENDBRANCH  14  17
ENDBRANCH  10  13
ENDBRANCH   8   9
ENDBRANCH   4   8
BRANCH   1  24
HETATM   24  C   UNL     1      26.926  42.913  51.422  1.00  0.00     0.169 A 
HETATM   25  N   UNL     1      27.456  43.693  52.338  1.00  0.00    -0.223 NA
HETATM   26  C   UNL     1      28.410  43.024  53.091  1.00  0.00     0.076 A 
HETATM   27  C   UNL     1      28.623  41.716  52.711  1.00  0.00     0.085 A 
HETATM   28  S   UNL     1      27.603  41.319  51.398  1.00  0.00    -0.062 SA
BRANCH  26  29
HETATM   29  C   UNL     1      29.081  43.677  54.211  1.00  0.00    -0.004 A 
HETATM   30  C   UNL     1      28.574  44.841  54.804  1.00  0.00     0.050 A 
HETATM   31  C   UNL     1      29.241  45.460  55.869  1.00  0.00     0.069 A 
HETATM   32  C   UNL     1      30.428  44.910  56.349  1.00  0.00     0.037 A 
HETATM   33  C   UNL     1      30.940  43.746  55.773  1.00  0.00     0.004 A 
HETATM   34  C   UNL     1      30.270  43.133  54.713  1.00  0.00     0.014 A 
BRANCH  31  35
HETATM   35  O   UNL     1      28.627  46.587  56.343  1.00  0.00    -0.356 OA
HETATM   36  C   UNL     1      27.648  47.189  55.503  1.00  0.00     0.210 C 
ENDBRANCH  31  35
ENDBRANCH  26  29
ENDBRANCH   1  24
TORSDOF 7
ENDMDL
MODEL 3
REMARK VINA RESULT:      -9.8      1.764      2.210
REMARK  7 active torsions:
REMARK  status: ('A' for Active; 'I' for Inactive)
REMARK    1  A    between atoms: O_2  and  C_3 
REMARK    2  A    between atoms: C_5  and  C_6 
REMARK    3  A    between atoms: C_8  and  N_9 
REMARK    4  A    between atoms: N_12  and  C_14 
REMARK    5  A    between atoms: C_14  and  C_15 
REMARK       I    between atoms: C_15  and  N_16 
REMARK    6  A    between atoms: N_16  and  N_17 
REMARK       I    between atoms: N_17  and  C_18 
REMARK    7  A    between atoms: C_18  and  C_19 
ROOT
HETATM    1  N   UNL     1      25.977  45.867  50.604  1.00  0.00    -0.357 N 
HETATM    2  C   UNL     1      27.022  45.078  49.933  1.00  0.00     0.152 C 
HETATM    3  C   UNL     1      26.833  43.568  50.213  1.00  0.00     0.255 C 
HETATM    4  N   UNL     1      26.787  43.333  51.723  1.00  0.00    -0.060 N 
HETATM    5  H   UNL     1      27.645  43.737  52.112  1.00  0.00     0.280 HD
HETATM    6  C   UNL     1      25.632  44.132  52.349  1.00  0.00     0.255 C 
HETATM    7  C   UNL     1      25.863  45.632  52.058  1.00  0.00     0.152 C 
ENDROOT
BRANCH   4   8
HETATM    8  C   UNL     1      26.807  41.860  52.133  1.00  0.00     0.338 C 
BRANCH   8   9
HETATM    9  C   UNL     1      27.799  40.956  51.399  1.00  0.00     0.262 C 
HETATM   10  N   UNL     1      29.110  40.967  51.821  1.00  0.00    -0.266 N 
HETATM   11  H   UNL     1      29.720  40.260  51.411  1.00  0.00     0.190 HD
HETATM   12  O   UNL     1      27.469  40.269  50.433  1.00  0.00    -0.270 OA
BRANCH  10  13
HETATM   13  N   UNL     1      29.539  41.586  53.011  1.00  0.00    -0.263 N 
HETATM   14  C   UNL     1      29.787  42.953  52.977  1.00  0.00     0.270 C 
HETATM   15  O   UNL     1      29.930  43.577  51.930  1.00  0.00    -0.266 OA
HETATM   16  H   UNL     1      29.171  41.183  53.873  1.00  0.00     0.190 HD
BRANCH  14  17
HETATM   17  C   UNL     1      29.900  43.635  54.291  1.00  0.00     0.033 A 
HETATM   18  C   UNL     1      29.010  44.677  54.581  1.00  0.00     0.019 A 
HETATM   19  C   UNL     1      29.100  45.355  55.799  1.00  0.00     0.025 A 
HETATM   20  C   UNL     1      30.089  45.004  56.717  1.00  0.00     0.034 A 
HETATM   21 CL   UNL     1      30.211  45.846  58.210  1.00  0.00    -0.084 Cl
HETATM   22  C   UNL     1      30.988  43.977  56.427  1.00  0.00     0.025 A 
HETATM   23  C   UNL     1      30.897  43.289  55.214  1.00  0.00     0.019 A 
ENDBRANCH  14  17
ENDBRANCH  10  13
ENDBRANCH   8   9
ENDBRANCH   4   8
BRANCH   1  24
HETATM   24  C   UNL     1      24.815  46.190  49.951  1.00  0.00     0.169 A 
HETATM   25  N   UNL     1      24.319  47.408  49.958  1.00  0.00    -0.223 NA
HETATM   26  C   UNL     1      23.179  47.501  49.173  1.00  0.00     0.076 A 
HETATM   27  C   UNL     1      22.793  46.315  48.585  1.00  0.00     0.085 A 
HETATM   28  S   UNL     1      23.883  45.071  49.016  1.00  0.00    -0.062 SA
BRANCH  26  29
HETATM   29  C   UNL     1      22.498  48.777  48.980  1.00  0.00    -0.004 A 
HETATM   30  C   UNL     1      21.103  48.893  49.054  1.00  0.00     0.050 A 
HETATM   31  C   UNL     1      20.468  50.125  48.852  1.00  0.00     0.069 A 
HETATM   32  C   UNL     1      21.234  51.255  48.573  1.00  0.00     0.037 A 
HETATM   33  C   UNL     1      22.625  51.156  48.505  1.00  0.00     0.004 A 
HETATM   34  C   UNL     1      23.252  49.925  48.710  1.00  0.00     0.014 A 
BRANCH  31  35
HETATM   35  O   UNL     1      19.104  50.083  48.953  1.00  0.00    -0.356 OA
HETATM   36  C   UNL     1      18.554  50.139  50.265  1.00  0.00     0.210 C 
ENDBRANCH  31  35
ENDBRANCH  26  29
ENDBRANCH   1  24
TORSDOF 7
ENDMDL
MODEL 4
REMARK VINA RESULT:      -9.4      3.896      9.868
REMARK  7 active torsions:
REMARK  status: ('A' for Active; 'I' for Inactive)
REMARK    1  A    between atoms: O_2  and  C_3 
REMARK    2  A    between atoms: C_5  and  C_6 
REMARK    3  A    between atoms: C_8  and  N_9 
REMARK    4  A    between atoms: N_12  and  C_14 
REMARK    5  A    between atoms: C_14  and  C_15 
REMARK       I    between atoms: C_15  and  N_16 
REMARK    6  A    between atoms: N_16  and  N_17 
REMARK       I    between atoms: N_17  and  C_18 
REMARK    7  A    between atoms: C_18  and  C_19 
ROOT
HETATM    1  N   UNL     1      27.195  43.347  50.016  1.00  0.00    -0.357 N 
HETATM    2  C   UNL     1      26.854  44.768  49.842  1.00  0.00     0.152 C 
HETATM    3  C   UNL     1      25.383  45.031  50.243  1.00  0.00     0.255 C 
HETATM    4  N   UNL     1      24.466  44.098  49.452  1.00  0.00    -0.060 N 
HETATM    5  H   UNL     1      24.674  44.249  48.460  1.00  0.00     0.280 HD
HETATM    6  C   UNL     1      24.832  42.631  49.733  1.00  0.00     0.255 C 
HETATM    7  C   UNL     1      26.301  42.406  49.310  1.00  0.00     0.152 C 
ENDROOT
BRANCH   4   8
HETATM    8  C   UNL     1      22.975  44.398  49.608  1.00  0.00     0.338 C 
BRANCH   8   9
HETATM    9  C   UNL     1      22.064  43.972  48.455  1.00  0.00     0.262 C 
HETATM   10  N   UNL     1      20.960  44.752  48.189  1.00  0.00    -0.266 N 
HETATM   11  H   UNL     1      20.448  44.528  47.336  1.00  0.00     0.190 HD
HETATM   12  O   UNL     1      22.266  42.948  47.804  1.00  0.00    -0.270 OA
BRANCH  10  13
HETATM   13  N   UNL     1      20.744  46.018  48.764  1.00  0.00    -0.263 N 
HETATM   14  C   UNL     1      20.983  47.137  47.974  1.00  0.00     0.270 C 
HETATM   15  O   UNL     1      21.630  47.090  46.933  1.00  0.00    -0.266 OA
HETATM   16  H   UNL     1      19.995  46.066  49.454  1.00  0.00     0.190 HD
BRANCH  14  17
HETATM   17  C   UNL     1      20.431  48.423  48.470  1.00  0.00     0.033 A 
HETATM   18  C   UNL     1      19.415  48.387  49.434  1.00  0.00     0.019 A 
HETATM   19  C   UNL     1      18.858  49.577  49.908  1.00  0.00     0.025 A 
HETATM   20  C   UNL     1      19.303  50.799  49.407  1.00  0.00     0.034 A 
HETATM   21 CL   UNL     1      18.609  52.264  49.979  1.00  0.00    -0.084 Cl
HETATM   22  C   UNL     1      20.304  50.842  48.437  1.00  0.00     0.025 A 
HETATM   23  C   UNL     1      20.872  49.655  47.965  1.00  0.00     0.019 A 
ENDBRANCH  14  17
ENDBRANCH  10  13
ENDBRANCH   8   9
ENDBRANCH   4   8
BRANCH   1  24
HETATM   24  C   UNL     1      27.741  42.897  51.190  1.00  0.00     0.169 A 
HETATM   25  N   UNL     1      28.280  43.709  52.073  1.00  0.00    -0.223 NA
HETATM   26  C   UNL     1      28.701  43.027  53.206  1.00  0.00     0.076 A 
HETATM   27  C   UNL     1      28.500  41.664  53.159  1.00  0.00     0.085 A 
HETATM   28  S   UNL     1      27.762  41.236  51.678  1.00  0.00    -0.062 SA
BRANCH  26  29
HETATM   29  C   UNL     1      29.268  43.738  54.347  1.00  0.00    -0.004 A 
HETATM   30  C   UNL     1      28.658  44.877  54.890  1.00  0.00     0.050 A 
HETATM   31  C   UNL     1      29.227  45.553  55.977  1.00  0.00     0.069 A 
HETATM   32  C   UNL     1      30.418  45.087  56.529  1.00  0.00     0.037 A 
HETATM   33  C   UNL     1      31.033  43.949  56.003  1.00  0.00     0.004 A 
HETATM   34  C   UNL     1      30.460  43.278  54.921  1.00  0.00     0.014 A 
BRANCH  31  35
HETATM   35  O   UNL     1      28.519  46.646  56.397  1.00  0.00    -0.356 OA
HETATM   36  C   UNL     1      27.625  47.234  55.458  1.00  0.00     0.210 C 
ENDBRANCH  31  35
ENDBRANCH  26  29
ENDBRANCH   1  24
TORSDOF 7
ENDMDL
MODEL 5
REMARK VINA RESULT:      -9.2      5.064      7.561
REMARK  7 active torsions:
REMARK  status: ('A' for Active; 'I' for Inactive)
REMARK    1  A    between atoms: O_2  and  C_3 
REMARK    2  A    between atoms: C_5  and  C_6 
REMARK    3  A    between atoms: C_8  and  N_9 
REMARK    4  A    between atoms: N_12  and  C_14 
REMARK    5  A    between atoms: C_14  and  C_15 
REMARK       I    between atoms: C_15  and  N_16 
REMARK    6  A    between atoms: N_16  and  N_17 
REMARK       I    between atoms: N_17  and  C_18 
REMARK    7  A    between atoms: C_18  and  C_19 
ROOT
HETATM    1  N   UNL     1      18.833  50.460  50.308  1.00  0.00    -0.357 N 
HETATM    2  C   UNL     1      20.127  51.157  50.255  1.00  0.00     0.152 C 
HETATM    3  C   UNL     1      21.013  50.581  49.125  1.00  0.00     0.255 C 
HETATM    4  N   UNL     1      21.158  49.070  49.314  1.00  0.00    -0.060 N 
HETATM    5  H   UNL     1      21.521  48.924  50.262  1.00  0.00     0.280 HD
HETATM    6  C   UNL     1      19.776  48.398  49.291  1.00  0.00     0.255 C 
HETATM    7  C   UNL     1      18.926  48.991  50.438  1.00  0.00     0.152 C 
ENDROOT
BRANCH   4   8
HETATM    8  C   UNL     1      22.176  48.413  48.381  1.00  0.00     0.338 C 
BRANCH   8   9
HETATM    9  C   UNL     1      23.464  49.192  48.111  1.00  0.00     0.262 C 
HETATM   10  N   UNL     1      24.557  48.918  48.903  1.00  0.00    -0.266 N 
HETATM   11  H   UNL     1      25.437  49.347  48.618  1.00  0.00     0.190 HD
HETATM   12  O   UNL     1      23.532  50.070  47.252  1.00  0.00    -0.270 OA
BRANCH  10  13
HETATM   13  N   UNL     1      24.622  47.825  49.788  1.00  0.00    -0.263 N 
HETATM   14  C   UNL     1      25.806  47.629  50.489  1.00  0.00     0.270 C 
HETATM   15  O   UNL     1      26.863  48.166  50.173  1.00  0.00    -0.266 OA
HETATM   16  H   UNL     1      23.744  47.576  50.244  1.00  0.00     0.190 HD
BRANCH  14  17
HETATM   17  C   UNL     1      25.740  46.702  51.648  1.00  0.00     0.033 A 
HETATM   18  C   UNL     1      25.268  45.401  51.435  1.00  0.00     0.019 A 
HETATM   19  C   UNL     1      25.173  44.508  52.506  1.00  0.00     0.025 A 
HETATM   20  C   UNL     1      25.532  44.921  53.788  1.00  0.00     0.034 A 
HETATM   21 CL   UNL     1      25.402  43.829  55.108  1.00  0.00    -0.084 Cl
HETATM   22  C   UNL     1      25.989  46.221  54.008  1.00  0.00     0.025 A 
HETATM   23  C   UNL     1      26.095  47.116  52.939  1.00  0.00     0.019 A 
ENDBRANCH  14  17
ENDBRANCH  10  13
ENDBRANCH   8   9
ENDBRANCH   4   8
BRANCH   1  24
HETATM   24  C   UNL     1      17.750  50.938  49.614  1.00  0.00     0.169 A 
HETATM   25  N   UNL     1      16.919  51.820  50.126  1.00  0.00    -0.223 NA
HETATM   26  C   UNL     1      15.948  52.198  49.211  1.00  0.00     0.076 A 
HETATM   27  C   UNL     1      16.034  51.562  47.990  1.00  0.00     0.085 A 
HETATM   28  S   UNL     1      17.360  50.483  47.990  1.00  0.00    -0.062 SA
BRANCH  26  29
HETATM   29  C   UNL     1      14.959  53.219  49.540  1.00  0.00    -0.004 A 
HETATM   30  C   UNL     1      14.676  53.580  50.865  1.00  0.00     0.050 A 
HETATM   31  C   UNL     1      13.713  54.553  51.160  1.00  0.00     0.069 A 
HETATM   32  C   UNL     1      13.023  55.174  50.120  1.00  0.00     0.037 A 
HETATM   33  C   UNL     1      13.300  54.830  48.795  1.00  0.00     0.004 A 
HETATM   34  C   UNL     1      14.263  53.861  48.508  1.00  0.00     0.014 A 
BRANCH  31  35
HETATM   35  O   UNL     1      13.546  54.798  52.496  1.00  0.00    -0.356 OA
HETATM   36  C   UNL     1      14.196  55.948  53.025  1.00  0.00     0.210 C 
ENDBRANCH  31  35
ENDBRANCH  26  29
ENDBRANCH   1  24
TORSDOF 7
ENDMDL
MODEL 6
REMARK VINA RESULT:      -9.1      2.337      2.855
REMARK  7 active torsions:
REMARK  status: ('A' for Active; 'I' for Inactive)
REMARK    1  A    between atoms: O_2  and  C_3 
REMARK    2  A    between atoms: C_5  and  C_6 
REMARK    3  A    between atoms: C_8  and  N_9 
REMARK    4  A    between atoms: N_12  and  C_14 
REMARK    5  A    between atoms: C_14  and  C_15 
REMARK       I    between atoms: C_15  and  N_16 
REMARK    6  A    between atoms: N_16  and  N_17 
REMARK       I    between atoms: N_17  and  C_18 
REMARK    7  A    between atoms: C_18  and  C_19 
ROOT
HETATM    1  N   UNL     1      23.137  45.973  48.472  1.00  0.00    -0.357 N 
HETATM    2  C   UNL     1      23.316  44.678  47.795  1.00  0.00     0.152 C 
HETATM    3  C   UNL     1      23.310  43.519  48.820  1.00  0.00     0.255 C 
HETATM    4  N   UNL     1      24.369  43.783  49.891  1.00  0.00    -0.060 N 
HETATM    5  H   UNL     1      25.259  43.918  49.401  1.00  0.00     0.280 HD
HETATM    6  C   UNL     1      24.083  45.115  50.603  1.00  0.00     0.255 C 
HETATM    7  C   UNL     1      24.108  46.246  49.551  1.00  0.00     0.152 C 
ENDROOT
BRANCH   4   8
HETATM    8  C   UNL     1      24.602  42.613  50.848  1.00  0.00     0.338 C 
BRANCH   8   9
HETATM    9  C   UNL     1      25.667  41.593  50.440  1.00  0.00     0.262 C 
HETATM   10  N   UNL     1      26.936  41.753  50.951  1.00  0.00    -0.266 N 
HETATM   11  H   UNL     1      27.590  40.989  50.777  1.00  0.00     0.190 HD
HETATM   12  O   UNL     1      25.432  40.681  49.648  1.00  0.00    -0.270 OA
BRANCH  10  13
HETATM   13  N   UNL     1      27.252  42.657  51.983  1.00  0.00    -0.263 N 
HETATM   14  C   UNL     1      27.875  42.151  53.118  1.00  0.00     0.270 C 
HETATM   15  O   UNL     1      27.901  40.954  53.385  1.00  0.00    -0.266 OA
HETATM   16  H   UNL     1      27.489  43.602  51.682  1.00  0.00     0.190 HD
BRANCH  14  17
HETATM   17  C   UNL     1      28.500  43.147  54.026  1.00  0.00     0.033 A 
HETATM   18  C   UNL     1      29.783  42.885  54.523  1.00  0.00     0.019 A 
HETATM   19  C   UNL     1      30.393  43.789  55.395  1.00  0.00     0.025 A 
HETATM   20  C   UNL     1      29.715  44.944  55.783  1.00  0.00     0.034 A 
HETATM   21 CL   UNL     1      30.458  46.051  56.868  1.00  0.00    -0.084 Cl
HETATM   22  C   UNL     1      28.430  45.202  55.304  1.00  0.00     0.025 A 
HETATM   23  C   UNL     1      27.819  44.306  54.423  1.00  0.00     0.019 A 
ENDBRANCH  14  17
ENDBRANCH  10  13
ENDBRANCH   8   9
ENDBRANCH   4   8
BRANCH   1  24
HETATM   24  C   UNL     1      21.886  46.512  48.633  1.00  0.00     0.169 A 
HETATM   25  N   UNL     1      21.687  47.806  48.754  1.00  0.00    -0.223 NA
HETATM   26  C   UNL     1      20.337  48.111  48.837  1.00  0.00     0.076 A 
HETATM   27  C   UNL     1      19.501  47.014  48.807  1.00  0.00     0.085 A 
HETATM   28  S   UNL     1      20.425  45.583  48.662  1.00  0.00    -0.062 SA
BRANCH  26  29
HETATM   29  C   UNL     1      19.879  49.494  48.907  1.00  0.00    -0.004 A 
HETATM   30  C   UNL     1      18.688  49.851  49.555  1.00  0.00     0.050 A 
HETATM   31  C   UNL     1      18.259  51.184  49.600  1.00  0.00     0.069 A 
HETATM   32  C   UNL     1      19.028  52.173  48.990  1.00  0.00     0.037 A 
HETATM   33  C   UNL     1      20.221  51.834  48.348  1.00  0.00     0.004 A 
HETATM   34  C   UNL     1      20.644  50.504  48.309  1.00  0.00     0.014 A 
BRANCH  31  35
HETATM   35  O   UNL     1      17.080  51.377  50.266  1.00  0.00    -0.356 OA
HETATM   36  C   UNL     1      16.030  52.013  49.544  1.00  0.00     0.210 C 
ENDBRANCH  31  35
ENDBRANCH  26  29
ENDBRANCH   1  24
TORSDOF 7
ENDMDL
MODEL 7
REMARK VINA RESULT:      -9.0      4.658      8.506
REMARK  7 active torsions:
REMARK  status: ('A' for Active; 'I' for Inactive)
REMARK    1  A    between atoms: O_2  and  C_3 
REMARK    2  A    between atoms: C_5  and  C_6 
REMARK    3  A    between atoms: C_8  and  N_9 
REMARK    4  A    between atoms: N_12  and  C_14 
REMARK    5  A    between atoms: C_14  and  C_15 
REMARK       I    between atoms: C_15  and  N_16 
REMARK    6  A    between atoms: N_16  and  N_17 
REMARK       I    between atoms: N_17  and  C_18 
REMARK    7  A    between atoms: C_18  and  C_19 
ROOT
HETATM    1  N   UNL     1      26.286  44.308  50.021  1.00  0.00    -0.357 N 
HETATM    2  C   UNL     1      25.156  44.880  49.272  1.00  0.00     0.152 C 
HETATM    3  C   UNL     1      23.903  43.982  49.400  1.00  0.00     0.255 C 
HETATM    4  N   UNL     1      24.250  42.560  48.958  1.00  0.00    -0.060 N 
HETATM    5  H   UNL     1      24.634  42.630  48.010  1.00  0.00     0.280 HD
HETATM    6  C   UNL     1      25.389  41.999  49.825  1.00  0.00     0.255 C 
HETATM    7  C   UNL     1      26.622  42.914  49.663  1.00  0.00     0.152 C 
ENDROOT
BRANCH   4   8
HETATM    8  C   UNL     1      23.046  41.624  48.844  1.00  0.00     0.338 C 
BRANCH   8   9
HETATM    9  C   UNL     1      22.671  41.154  47.438  1.00  0.00     0.262 C 
HETATM   10  N   UNL     1      23.436  40.160  46.869  1.00  0.00    -0.266 N 
HETATM   11  H   UNL     1      23.087  39.770  45.994  1.00  0.00     0.190 HD
HETATM   12  O   UNL     1      21.751  41.664  46.800  1.00  0.00    -0.270 OA
BRANCH  10  13
HETATM   13  N   UNL     1      24.392  39.409  47.580  1.00  0.00    -0.263 N 
HETATM   14  C   UNL     1      25.708  39.450  47.136  1.00  0.00     0.270 C 
HETATM   15  O   UNL     1      26.022  39.856  46.022  1.00  0.00    -0.266 OA
HETATM   16  H   UNL     1      24.222  39.320  48.582  1.00  0.00     0.190 HD
BRANCH  14  17
HETATM   17  C   UNL     1      26.737  38.945  48.080  1.00  0.00     0.033 A 
HETATM   18  C   UNL     1      27.887  39.717  48.290  1.00  0.00     0.019 A 
HETATM   19  C   UNL     1      28.886  39.263  49.155  1.00  0.00     0.025 A 
HETATM   20  C   UNL     1      28.743  38.033  49.795  1.00  0.00     0.034 A 
HETATM   21 CL   UNL     1      29.977  37.466  50.848  1.00  0.00    -0.084 Cl
HETATM   22  C   UNL     1      27.608  37.252  49.578  1.00  0.00     0.025 A 
HETATM   23  C   UNL     1      26.601  37.706  48.721  1.00  0.00     0.019 A 
ENDBRANCH  14  17
ENDBRANCH  10  13
ENDBRANCH   8   9
ENDBRANCH   4   8
BRANCH   1  24
HETATM   24  C   UNL     1      26.518  44.670  51.323  1.00  0.00     0.169 A 
HETATM   25  N   UNL     1      27.549  44.222  52.005  1.00  0.00    -0.223 NA
HETATM   26  C   UNL     1      27.607  44.782  53.273  1.00  0.00     0.076 A 
HETATM   27  C   UNL     1      26.577  45.651  53.560  1.00  0.00     0.085 A 
HETATM   28  S   UNL     1      25.528  45.774  52.216  1.00  0.00    -0.062 SA
BRANCH  26  29
HETATM   29  C   UNL     1      28.708  44.480  54.181  1.00  0.00    -0.004 A 
HETATM   30  C   UNL     1      28.956  45.245  55.329  1.00  0.00     0.050 A 
HETATM   31  C   UNL     1      30.027  44.947  56.181  1.00  0.00     0.069 A 
HETATM   32  C   UNL     1      30.862  43.871  55.884  1.00  0.00     0.037 A 
HETATM   33  C   UNL     1      30.622  43.095  54.748  1.00  0.00     0.004 A 
HETATM   34  C   UNL     1      29.552  43.396  53.904  1.00  0.00     0.014 A 
BRANCH  31  35
HETATM   35  O   UNL     1      30.143  45.781  57.259  1.00  0.00    -0.356 OA
HETATM   36  C   UNL     1      28.936  46.167  57.908  1.00  0.00     0.210 C 
ENDBRANCH  31  35
ENDBRANCH  26  29
ENDBRANCH   1  24
TORSDOF 7
ENDMDL
MODEL 8
REMARK VINA RESULT:      -9.0      3.913     10.129
REMARK  7 active torsions:
REMARK  status: ('A' for Active; 'I' for Inactive)
REMARK    1  A    between atoms: O_2  and  C_3 
REMARK    2  A    between atoms: C_5  and  C_6 
REMARK    3  A    between atoms: C_8  and  N_9 
REMARK    4  A    between atoms: N_12  and  C_14 
REMARK    5  A    between atoms: C_14  and  C_15 
REMARK       I    between atoms: C_15  and  N_16 
REMARK    6  A    between atoms: N_16  and  N_17 
REMARK       I    between atoms: N_17  and  C_18 
REMARK    7  A    between atoms: C_18  and  C_19 
ROOT
HETATM    1  N   UNL     1      26.027  44.047  50.500  1.00  0.00    -0.357 N 
HETATM    2  C   UNL     1      25.776  45.002  49.409  1.00  0.00     0.152 C 
HETATM    3  C   UNL     1      24.271  45.350  49.320  1.00  0.00     0.255 C 
HETATM    4  N   UNL     1      23.460  44.061  49.182  1.00  0.00    -0.060 N 
HETATM    5  H   UNL     1      23.834  43.562  48.368  1.00  0.00     0.280 HD
HETATM    6  C   UNL     1      23.716  43.141  50.386  1.00  0.00     0.255 C 
HETATM    7  C   UNL     1      25.224  42.809  50.434  1.00  0.00     0.152 C 
ENDROOT
BRANCH   4   8
HETATM    8  C   UNL     1      21.977  44.279  48.880  1.00  0.00     0.338 C 
BRANCH   8   9
HETATM    9  C   UNL     1      21.561  44.240  47.409  1.00  0.00     0.262 C 
HETATM   10  N   UNL     1      20.633  45.162  46.979  1.00  0.00    -0.266 N 
HETATM   11  H   UNL     1      20.476  45.206  45.973  1.00  0.00     0.190 HD
HETATM   12  O   UNL     1      21.994  43.393  46.628  1.00  0.00    -0.270 OA
BRANCH  10  13
HETATM   13  N   UNL     1      20.216  46.263  47.752  1.00  0.00    -0.263 N 
HETATM   14  C   UNL     1      20.869  47.474  47.559  1.00  0.00     0.270 C 
HETATM   15  O   UNL     1      21.949  47.563  46.983  1.00  0.00    -0.266 OA
HETATM   16  H   UNL     1      19.223  46.282  47.989  1.00  0.00     0.190 HD
BRANCH  14  17
HETATM   17  C   UNL     1      20.202  48.679  48.115  1.00  0.00     0.033 A 
HETATM   18  C   UNL     1      20.872  49.907  48.043  1.00  0.00     0.019 A 
HETATM   19  C   UNL     1      20.283  51.057  48.574  1.00  0.00     0.025 A 
HETATM   20  C   UNL     1      19.036  50.976  49.192  1.00  0.00     0.034 A 
HETATM   21 CL   UNL     1      18.317  52.386  49.859  1.00  0.00    -0.084 Cl
HETATM   22  C   UNL     1      18.371  49.753  49.281  1.00  0.00     0.025 A 
HETATM   23  C   UNL     1      18.951  48.600  48.743  1.00  0.00     0.019 A 
ENDBRANCH  14  17
ENDBRANCH  10  13
ENDBRANCH   8   9
ENDBRANCH   4   8
BRANCH   1  24
HETATM   24  C   UNL     1      26.354  44.489  51.757  1.00  0.00     0.169 A 
HETATM   25  N   UNL     1      27.433  44.082  52.388  1.00  0.00    -0.223 NA
HETATM   26  C   UNL     1      27.583  44.719  53.610  1.00  0.00     0.076 A 
HETATM   27  C   UNL     1      26.575  45.608  53.918  1.00  0.00     0.085 A 
HETATM   28  S   UNL     1      25.430  45.649  52.650  1.00  0.00    -0.062 SA
BRANCH  26  29
HETATM   29  C   UNL     1      28.749  44.471  54.452  1.00  0.00    -0.004 A 
HETATM   30  C   UNL     1      29.115  45.340  55.490  1.00  0.00     0.050 A 
HETATM   31  C   UNL     1      30.246  45.091  56.277  1.00  0.00     0.069 A 
HETATM   32  C   UNL     1      31.022  43.961  56.027  1.00  0.00     0.037 A 
HETATM   33  C   UNL     1      30.665  43.082  55.002  1.00  0.00     0.004 A 
HETATM   34  C   UNL     1      29.535  43.335  54.222  1.00  0.00     0.014 A 
BRANCH  31  35
HETATM   35  O   UNL     1      30.476  46.026  57.249  1.00  0.00    -0.356 OA
HETATM   36  C   UNL     1      30.640  45.546  58.579  1.00  0.00     0.210 C 
ENDBRANCH  31  35
ENDBRANCH  26  29
ENDBRANCH   1  24
TORSDOF 7
ENDMDL
MODEL 9
REMARK VINA RESULT:      -9.0      2.649      3.740
REMARK  7 active torsions:
REMARK  status: ('A' for Active; 'I' for Inactive)
REMARK    1  A    between atoms: O_2  and  C_3 
REMARK    2  A    between atoms: C_5  and  C_6 
REMARK    3  A    between atoms: C_8  and  N_9 
REMARK    4  A    between atoms: N_12  and  C_14 
REMARK    5  A    between atoms: C_14  and  C_15 
REMARK       I    between atoms: C_15  and  N_16 
REMARK    6  A    between atoms: N_16  and  N_17 
REMARK       I    between atoms: N_17  and  C_18 
REMARK    7  A    between atoms: C_18  and  C_19 
ROOT
HETATM    1  N   UNL     1      23.026  42.931  49.229  1.00  0.00    -0.357 N 
HETATM    2  C   UNL     1      23.573  43.228  50.562  1.00  0.00     0.152 C 
HETATM    3  C   UNL     1      25.104  43.442  50.490  1.00  0.00     0.255 C 
HETATM    4  N   UNL     1      25.757  42.224  49.836  1.00  0.00    -0.060 N 
HETATM    5  H   UNL     1      25.463  41.405  50.377  1.00  0.00     0.280 HD
HETATM    6  C   UNL     1      25.190  42.014  48.423  1.00  0.00     0.255 C 
HETATM    7  C   UNL     1      23.665  41.793  48.537  1.00  0.00     0.152 C 
ENDROOT
BRANCH   4   8
HETATM    8  C   UNL     1      27.285  42.224  49.890  1.00  0.00     0.338 C 
BRANCH   8   9
HETATM    9  C   UNL     1      27.957  40.916  50.313  1.00  0.00     0.262 C 
HETATM   10  N   UNL     1      28.902  40.975  51.314  1.00  0.00    -0.266 N 
HETATM   11  H   UNL     1      29.234  40.080  51.672  1.00  0.00     0.190 HD
HETATM   12  O   UNL     1      27.710  39.844  49.762  1.00  0.00    -0.270 OA
BRANCH  10  13
HETATM   13  N   UNL     1      29.124  42.116  52.108  1.00  0.00    -0.263 N 
HETATM   14  C   UNL     1      28.528  42.157  53.363  1.00  0.00     0.270 C 
HETATM   15  O   UNL     1      27.612  41.409  53.689  1.00  0.00    -0.266 OA
HETATM   16  H   UNL     1      30.033  42.563  51.991  1.00  0.00     0.190 HD
BRANCH  14  17
HETATM   17  C   UNL     1      29.042  43.184  54.304  1.00  0.00     0.033 A 
HETATM   18  C   UNL     1      30.247  42.933  54.973  1.00  0.00     0.019 A 
HETATM   19  C   UNL     1      30.750  43.869  55.881  1.00  0.00     0.025 A 
HETATM   20  C   UNL     1      30.042  45.043  56.132  1.00  0.00     0.034 A 
HETATM   21 CL   UNL     1      30.652  46.188  57.259  1.00  0.00    -0.084 Cl
HETATM   22  C   UNL     1      28.834  45.291  55.480  1.00  0.00     0.025 A 
HETATM   23  C   UNL     1      28.330  44.364  54.563  1.00  0.00     0.019 A 
ENDBRANCH  14  17
ENDBRANCH  10  13
ENDBRANCH   8   9
ENDBRANCH   4   8
BRANCH   1  24
HETATM   24  C   UNL     1      22.553  43.938  48.426  1.00  0.00     0.169 A 
HETATM   25  N   UNL     1      22.573  45.200  48.794  1.00  0.00    -0.223 NA
HETATM   26  C   UNL     1      22.105  46.034  47.789  1.00  0.00     0.076 A 
HETATM   27  C   UNL     1      21.697  45.378  46.647  1.00  0.00     0.085 A 
HETATM   28  S   UNL     1      21.913  43.693  46.836  1.00  0.00    -0.062 SA
BRANCH  26  29
HETATM   29  C   UNL     1      22.102  47.484  47.952  1.00  0.00    -0.004 A 
HETATM   30  C   UNL     1      23.225  48.182  48.416  1.00  0.00     0.050 A 
HETATM   31  C   UNL     1      23.196  49.573  48.579  1.00  0.00     0.069 A 
HETATM   32  C   UNL     1      22.032  50.276  48.275  1.00  0.00     0.037 A 
HETATM   33  C   UNL     1      20.908  49.595  47.805  1.00  0.00     0.004 A 
HETATM   34  C   UNL     1      20.944  48.209  47.642  1.00  0.00     0.014 A 
BRANCH  31  35
HETATM   35  O   UNL     1      24.366  50.113  49.040  1.00  0.00    -0.356 OA
HETATM   36  C   UNL     1      25.556  49.763  48.342  1.00  0.00     0.210 C 
ENDBRANCH  31  35
ENDBRANCH  26  29
ENDBRANCH   1  24
TORSDOF 7
ENDMDL
MODEL 10
REMARK VINA RESULT:      -8.8      4.656      6.896
REMARK  7 active torsions:
REMARK  status: ('A' for Active; 'I' for Inactive)
REMARK    1  A    between atoms: O_2  and  C_3 
REMARK    2  A    between atoms: C_5  and  C_6 
REMARK    3  A    between atoms: C_8  and  N_9 
REMARK    4  A    between atoms: N_12  and  C_14 
REMARK    5  A    between atoms: C_14  and  C_15 
REMARK       I    between atoms: C_15  and  N_16 
REMARK    6  A    between atoms: N_16  and  N_17 
REMARK       I    between atoms: N_17  and  C_18 
REMARK    7  A    between atoms: C_18  and  C_19 
ROOT
HETATM    1  N   UNL     1      18.868  49.913  50.320  1.00  0.00    -0.357 N 
HETATM    2  C   UNL     1      20.150  50.625  50.429  1.00  0.00     0.152 C 
HETATM    3  C   UNL     1      21.154  50.109  49.371  1.00  0.00     0.255 C 
HETATM    4  N   UNL     1      21.302  48.593  49.506  1.00  0.00    -0.060 N 
HETATM    5  H   UNL     1      21.569  48.407  50.478  1.00  0.00     0.280 HD
HETATM    6  C   UNL     1      19.938  47.909  49.313  1.00  0.00     0.255 C 
HETATM    7  C   UNL     1      18.969  48.441  50.393  1.00  0.00     0.152 C 
ENDROOT
BRANCH   4   8
HETATM    8  C   UNL     1      22.417  47.990  48.652  1.00  0.00     0.338 C 
BRANCH   8   9
HETATM    9  C   UNL     1      22.320  46.493  48.353  1.00  0.00     0.262 C 
HETATM   10  N   UNL     1      23.067  45.634  49.128  1.00  0.00    -0.266 N 
HETATM   11  H   UNL     1      22.882  44.639  49.002  1.00  0.00     0.190 HD
HETATM   12  O   UNL     1      21.639  46.052  47.427  1.00  0.00    -0.270 OA
BRANCH  10  13
HETATM   13  N   UNL     1      23.735  46.028  50.303  1.00  0.00    -0.263 N 
HETATM   14  C   UNL     1      24.186  45.029  51.157  1.00  0.00     0.270 C 
HETATM   15  O   UNL     1      23.791  43.870  51.092  1.00  0.00    -0.266 OA
HETATM   16  H   UNL     1      24.283  46.885  50.230  1.00  0.00     0.190 HD
BRANCH  14  17
HETATM   17  C   UNL     1      25.170  45.441  52.191  1.00  0.00     0.033 A 
HETATM   18  C   UNL     1      25.446  46.805  52.344  1.00  0.00     0.019 A 
HETATM   19  C   UNL     1      26.381  47.228  53.293  1.00  0.00     0.025 A 
HETATM   20  C   UNL     1      27.050  46.286  54.073  1.00  0.00     0.034 A 
HETATM   21 CL   UNL     1      28.211  46.803  55.230  1.00  0.00    -0.084 Cl
HETATM   22  C   UNL     1      26.791  44.925  53.914  1.00  0.00     0.025 A 
HETATM   23  C   UNL     1      25.850  44.497  52.974  1.00  0.00     0.019 A 
ENDBRANCH  14  17
ENDBRANCH  10  13
ENDBRANCH   8   9
ENDBRANCH   4   8
BRANCH   1  24
HETATM   24  C   UNL     1      17.854  50.411  49.542  1.00  0.00     0.169 A 
HETATM   25  N   UNL     1      17.053  51.368  49.957  1.00  0.00    -0.223 NA
HETATM   26  C   UNL     1      16.155  51.748  48.971  1.00  0.00     0.076 A 
HETATM   27  C   UNL     1      16.265  51.038  47.794  1.00  0.00     0.085 A 
HETATM   28  S   UNL     1      17.521  49.886  47.926  1.00  0.00    -0.062 SA
BRANCH  26  29
HETATM   29  C   UNL     1      15.214  52.842  49.188  1.00  0.00    -0.004 A 
HETATM   30  C   UNL     1      14.798  53.220  50.472  1.00  0.00     0.050 A 
HETATM   31  C   UNL     1      13.883  54.264  50.658  1.00  0.00     0.069 A 
HETATM   32  C   UNL     1      13.377  54.940  49.549  1.00  0.00     0.037 A 
HETATM   33  C   UNL     1      13.788  54.579  48.265  1.00  0.00     0.004 A 
HETATM   34  C   UNL     1      14.702  53.538  48.086  1.00  0.00     0.014 A 
BRANCH  31  35
HETATM   35  O   UNL     1      13.572  54.518  51.966  1.00  0.00    -0.356 OA
HETATM   36  C   UNL     1      14.456  55.373  52.684  1.00  0.00     0.210 C 
ENDBRANCH  31  35
ENDBRANCH  26  29
ENDBRANCH   1  24
TORSDOF 7
ENDMDL
