MODEL 1
REMARK VINA RESULT:      -9.2      0.000      0.000
REMARK  4 active torsions:
REMARK  status: ('A' for Active; 'I' for Inactive)
REMARK    1  A    between atoms: C_5  and  C_6 
REMARK    2  A    between atoms: C_9  and  C_10 
REMARK    3  A    between atoms: C_10  and  N_11 
REMARK       I    between atoms: N_11  and  C_12 
REMARK       I    between atoms: C_12  and  N_13 
REMARK    4  A    between atoms: N_13  and  C_14 
ROOT
HETATM    1  C   UNL     1      26.528  43.634  50.383  1.00  0.00     0.213 C 
ENDROOT
BRANCH   1   2
HETATM    2  C   UNL     1      27.550  43.483  51.445  1.00  0.00     0.190 A 
HETATM    3  O   UNL     1      28.326  42.365  51.395  1.00  0.00    -0.194 OA
HETATM    4  N   UNL     1      29.146  42.399  52.519  1.00  0.00    -0.106 NA
HETATM    5  C   UNL     1      28.793  43.536  53.142  1.00  0.00     0.189 A 
HETATM    6  N   UNL     1      27.803  44.245  52.488  1.00  0.00    -0.202 NA
BRANCH   5   7
HETATM    7  C   UNL     1      29.371  43.983  54.406  1.00  0.00     0.014 A 
HETATM    8  C   UNL     1      30.429  43.283  55.005  1.00  0.00     0.016 A 
HETATM    9  C   UNL     1      30.969  43.707  56.224  1.00  0.00     0.007 A 
HETATM   10  C   UNL     1      30.459  44.838  56.869  1.00  0.00    -0.062 A 
HETATM   11  C   UNL     1      31.043  45.313  58.166  1.00  0.00     0.048 C 
HETATM   12  C   UNL     1      29.409  45.545  56.271  1.00  0.00     0.007 A 
HETATM   13  C   UNL     1      28.869  45.119  55.054  1.00  0.00     0.016 A 
ENDBRANCH   5   7
ENDBRANCH   1   2
BRANCH   1  14
HETATM   14  N   UNL     1      26.179  45.029  50.208  1.00  0.00    -0.335 N 
HETATM   15  C   UNL     1      25.038  45.543  50.736  1.00  0.00     0.321 C 
HETATM   16  N   UNL     1      24.854  46.887  50.663  1.00  0.00    -0.309 N 
HETATM   17  O   UNL     1      24.218  44.856  51.341  1.00  0.00    -0.247 OA
HETATM   18  H   UNL     1      24.117  47.185  51.292  1.00  0.00     0.170 HD
HETATM   19  H   UNL     1      26.940  45.674  50.059  1.00  0.00     0.164 HD
BRANCH  16  20
HETATM   20  C   UNL     1      25.459  47.896  49.893  1.00  0.00     0.036 A 
HETATM   21  C   UNL     1      26.840  48.097  49.810  1.00  0.00     0.029 A 
HETATM   22  C   UNL     1      27.356  49.123  49.010  1.00  0.00     0.002 A 
HETATM   23  C   UNL     1      26.500  49.943  48.280  1.00  0.00     0.000 A 
HETATM   24  C   UNL     1      25.125  49.729  48.332  1.00  0.00     0.002 A 
HETATM   25  C   UNL     1      24.610  48.702  49.125  1.00  0.00     0.029 A 
ENDBRANCH  16  20
ENDBRANCH   1  14
TORSDOF 4
ENDMDL
MODEL 2
REMARK VINA RESULT:      -9.0      2.265      8.515
REMARK  4 active torsions:
REMARK  status: ('A' for Active; 'I' for Inactive)
REMARK    1  A    between atoms: C_5  and  C_6 
REMARK    2  A    between atoms: C_9  and  C_10 
REMARK    3  A    between atoms: C_10  and  N_11 
REMARK       I    between atoms: N_11  and  C_12 
REMARK       I    between atoms: C_12  and  N_13 
REMARK    4  A    between atoms: N_13  and  C_14 
ROOT
HETATM    1  C   UNL     1      25.777  44.616  49.768  1.00  0.00     0.213 C 
ENDROOT
BRANCH   1   2
HETATM    2  C   UNL     1      25.344  46.029  49.650  1.00  0.00     0.190 A 
HETATM    3  O   UNL     1      26.229  46.977  50.067  1.00  0.00    -0.194 OA
HETATM    4  N   UNL     1      25.584  48.205  49.939  1.00  0.00    -0.106 NA
HETATM    5  C   UNL     1      24.373  47.885  49.454  1.00  0.00     0.189 A 
HETATM    6  N   UNL     1      24.194  46.530  49.251  1.00  0.00    -0.202 NA
BRANCH   5   7
HETATM    7  C   UNL     1      23.321  48.862  49.187  1.00  0.00     0.014 A 
HETATM    8  C   UNL     1      23.630  50.205  48.928  1.00  0.00     0.016 A 
HETATM    9  C   UNL     1      22.617  51.139  48.687  1.00  0.00     0.007 A 
HETATM   10  C   UNL     1      21.275  50.748  48.704  1.00  0.00    -0.062 A 
HETATM   11  C   UNL     1      20.182  51.738  48.428  1.00  0.00     0.048 C 
HETATM   12  C   UNL     1      20.961  49.407  48.953  1.00  0.00     0.007 A 
HETATM   13  C   UNL     1      21.974  48.475  49.196  1.00  0.00     0.016 A 
ENDBRANCH   5   7
ENDBRANCH   1   2
BRANCH   1  14
HETATM   14  N   UNL     1      26.249  44.340  51.110  1.00  0.00    -0.335 N 
HETATM   15  C   UNL     1      25.409  43.875  52.071  1.00  0.00     0.321 C 
HETATM   16  N   UNL     1      25.952  43.493  53.257  1.00  0.00    -0.309 N 
HETATM   17  O   UNL     1      24.207  43.712  51.880  1.00  0.00    -0.247 OA
HETATM   18  H   UNL     1      25.293  42.941  53.794  1.00  0.00     0.170 HD
HETATM   19  H   UNL     1      27.226  44.110  51.212  1.00  0.00     0.164 HD
BRANCH  16  20
HETATM   20  C   UNL     1      27.200  43.730  53.859  1.00  0.00     0.036 A 
HETATM   21  C   UNL     1      27.558  44.931  54.477  1.00  0.00     0.029 A 
HETATM   22  C   UNL     1      28.822  45.075  55.060  1.00  0.00     0.002 A 
HETATM   23  C   UNL     1      29.729  44.019  55.041  1.00  0.00     0.000 A 
HETATM   24  C   UNL     1      29.369  42.808  54.456  1.00  0.00     0.002 A 
HETATM   25  C   UNL     1      28.106  42.662  53.880  1.00  0.00     0.029 A 
ENDBRANCH  16  20
ENDBRANCH   1  14
TORSDOF 4
ENDMDL
MODEL 3
REMARK VINA RESULT:      -8.8      1.434      7.932
REMARK  4 active torsions:
REMARK  status: ('A' for Active; 'I' for Inactive)
REMARK    1  A    between atoms: C_5  and  C_6 
REMARK    2  A    between atoms: C_9  and  C_10 
REMARK    3  A    between atoms: C_10  and  N_11 
REMARK       I    between atoms: N_11  and  C_12 
REMARK       I    between atoms: C_12  and  N_13 
REMARK    4  A    between atoms: N_13  and  C_14 
ROOT
HETATM    1  C   UNL     1      27.261  42.776  53.184  1.00  0.00     0.213 C 
ENDROOT
BRANCH   1   2
HETATM    2  C   UNL     1      26.465  43.891  52.618  1.00  0.00     0.190 A 
HETATM    3  O   UNL     1      25.130  43.890  52.889  1.00  0.00    -0.194 OA
HETATM    4  N   UNL     1      24.584  44.969  52.199  1.00  0.00    -0.106 NA
HETATM    5  C   UNL     1      25.639  45.523  51.578  1.00  0.00     0.189 A 
HETATM    6  N   UNL     1      26.835  44.878  51.830  1.00  0.00    -0.202 NA
BRANCH   5   7
HETATM    7  C   UNL     1      25.545  46.681  50.694  1.00  0.00     0.014 A 
HETATM    8  C   UNL     1      24.299  47.179  50.285  1.00  0.00     0.016 A 
HETATM    9  C   UNL     1      24.216  48.281  49.427  1.00  0.00     0.007 A 
HETATM   10  C   UNL     1      25.377  48.903  48.959  1.00  0.00    -0.062 A 
HETATM   11  C   UNL     1      25.299  50.097  48.053  1.00  0.00     0.048 C 
HETATM   12  C   UNL     1      26.622  48.416  49.371  1.00  0.00     0.007 A 
HETATM   13  C   UNL     1      26.705  47.314  50.227  1.00  0.00     0.016 A 
ENDBRANCH   5   7
ENDBRANCH   1   2
BRANCH   1  14
HETATM   14  N   UNL     1      28.293  43.285  54.066  1.00  0.00    -0.335 N 
HETATM   15  C   UNL     1      29.605  43.011  53.847  1.00  0.00     0.321 C 
HETATM   16  N   UNL     1      30.523  43.646  54.622  1.00  0.00    -0.309 N 
HETATM   17  O   UNL     1      29.988  42.283  52.934  1.00  0.00    -0.247 OA
HETATM   18  H   UNL     1      31.450  43.567  54.220  1.00  0.00     0.170 HD
HETATM   19  H   UNL     1      28.085  44.134  54.569  1.00  0.00     0.164 HD
BRANCH  16  20
HETATM   20  C   UNL     1      30.431  44.346  55.837  1.00  0.00     0.036 A 
HETATM   21  C   UNL     1      29.540  45.398  56.070  1.00  0.00     0.029 A 
HETATM   22  C   UNL     1      29.510  46.034  57.316  1.00  0.00     0.002 A 
HETATM   23  C   UNL     1      30.358  45.616  58.339  1.00  0.00     0.000 A 
HETATM   24  C   UNL     1      31.225  44.548  58.125  1.00  0.00     0.002 A 
HETATM   25  C   UNL     1      31.252  43.910  56.884  1.00  0.00     0.029 A 
ENDBRANCH  16  20
ENDBRANCH   1  14
TORSDOF 4
ENDMDL
MODEL 4
REMARK VINA RESULT:      -8.8      3.516      9.260
REMARK  4 active torsions:
REMARK  status: ('A' for Active; 'I' for Inactive)
REMARK    1  A    between atoms: C_5  and  C_6 
REMARK    2  A    between atoms: C_9  and  C_10 
REMARK    3  A    between atoms: C_10  and  N_11 
REMARK       I    between atoms: N_11  and  C_12 
REMARK       I    between atoms: C_12  and  N_13 
REMARK    4  A    between atoms: N_13  and  C_14 
ROOT
HETATM    1  C   UNL     1      24.629  46.104  49.649  1.00  0.00     0.213 C 
ENDROOT
BRANCH   1   2
HETATM    2  C   UNL     1      24.044  47.451  49.453  1.00  0.00     0.190 A 
HETATM    3  O   UNL     1      24.882  48.512  49.612  1.00  0.00    -0.194 OA
HETATM    4  N   UNL     1      24.106  49.658  49.460  1.00  0.00    -0.106 NA
HETATM    5  C   UNL     1      22.872  49.183  49.220  1.00  0.00     0.189 A 
HETATM    6  N   UNL     1      22.801  47.804  49.198  1.00  0.00    -0.202 NA
BRANCH   5   7
HETATM    7  C   UNL     1      21.699  50.031  49.027  1.00  0.00     0.014 A 
HETATM    8  C   UNL     1      21.109  50.705  50.106  1.00  0.00     0.016 A 
HETATM    9  C   UNL     1      19.976  51.505  49.918  1.00  0.00     0.007 A 
HETATM   10  C   UNL     1      19.411  51.643  48.646  1.00  0.00    -0.062 A 
HETATM   11  C   UNL     1      18.208  52.513  48.429  1.00  0.00     0.048 C 
HETATM   12  C   UNL     1      20.001  50.979  47.565  1.00  0.00     0.007 A 
HETATM   13  C   UNL     1      21.132  50.179  47.755  1.00  0.00     0.016 A 
ENDBRANCH   5   7
ENDBRANCH   1   2
BRANCH   1  14
HETATM   14  N   UNL     1      25.147  45.967  50.996  1.00  0.00    -0.335 N 
HETATM   15  C   UNL     1      24.680  45.009  51.837  1.00  0.00     0.321 C 
HETATM   16  N   UNL     1      25.319  44.841  53.025  1.00  0.00    -0.309 N 
HETATM   17  O   UNL     1      23.768  44.244  51.532  1.00  0.00    -0.247 OA
HETATM   18  H   UNL     1      25.059  43.960  53.453  1.00  0.00     0.170 HD
HETATM   19  H   UNL     1      26.088  46.293  51.157  1.00  0.00     0.164 HD
BRANCH  16  20
HETATM   20  C   UNL     1      26.220  45.641  53.748  1.00  0.00     0.036 A 
HETATM   21  C   UNL     1      25.972  46.966  54.117  1.00  0.00     0.029 A 
HETATM   22  C   UNL     1      26.926  47.686  54.846  1.00  0.00     0.002 A 
HETATM   23  C   UNL     1      28.124  47.084  55.222  1.00  0.00     0.000 A 
HETATM   24  C   UNL     1      28.365  45.755  54.887  1.00  0.00     0.002 A 
HETATM   25  C   UNL     1      27.412  45.034  54.164  1.00  0.00     0.029 A 
ENDBRANCH  16  20
ENDBRANCH   1  14
TORSDOF 4
ENDMDL
MODEL 5
REMARK VINA RESULT:      -8.8      3.694      9.187
REMARK  4 active torsions:
REMARK  status: ('A' for Active; 'I' for Inactive)
REMARK    1  A    between atoms: C_5  and  C_6 
REMARK    2  A    between atoms: C_9  and  C_10 
REMARK    3  A    between atoms: C_10  and  N_11 
REMARK       I    between atoms: N_11  and  C_12 
REMARK       I    between atoms: C_12  and  N_13 
REMARK    4  A    between atoms: N_13  and  C_14 
ROOT
HETATM    1  C   UNL     1      26.870  48.665  48.991  1.00  0.00     0.213 C 
ENDROOT
BRANCH   1   2
HETATM    2  C   UNL     1      25.584  49.294  48.610  1.00  0.00     0.190 A 
HETATM    3  O   UNL     1      25.547  49.932  47.407  1.00  0.00    -0.194 OA
HETATM    4  N   UNL     1      24.283  50.506  47.300  1.00  0.00    -0.106 NA
HETATM    5  C   UNL     1      23.673  50.158  48.446  1.00  0.00     0.189 A 
HETATM    6  N   UNL     1      24.457  49.389  49.283  1.00  0.00    -0.202 NA
BRANCH   5   7
HETATM    7  C   UNL     1      22.318  50.570  48.801  1.00  0.00     0.014 A 
HETATM    8  C   UNL     1      21.354  50.819  47.813  1.00  0.00     0.016 A 
HETATM    9  C   UNL     1      20.062  51.226  48.159  1.00  0.00     0.007 A 
HETATM   10  C   UNL     1      19.709  51.397  49.501  1.00  0.00    -0.062 A 
HETATM   11  C   UNL     1      18.321  51.816  49.885  1.00  0.00     0.048 C 
HETATM   12  C   UNL     1      20.664  51.142  50.492  1.00  0.00     0.007 A 
HETATM   13  C   UNL     1      21.956  50.736  50.145  1.00  0.00     0.016 A 
ENDBRANCH   5   7
ENDBRANCH   1   2
BRANCH   1  14
HETATM   14  N   UNL     1      26.729  47.932  50.234  1.00  0.00    -0.335 N 
HETATM   15  C   UNL     1      26.204  46.680  50.257  1.00  0.00     0.321 C 
HETATM   16  N   UNL     1      26.244  45.997  51.432  1.00  0.00    -0.309 N 
HETATM   17  O   UNL     1      25.775  46.120  49.251  1.00  0.00    -0.247 OA
HETATM   18  H   UNL     1      26.064  45.011  51.282  1.00  0.00     0.170 HD
HETATM   19  H   UNL     1      27.364  48.171  50.979  1.00  0.00     0.164 HD
BRANCH  16  20
HETATM   20  C   UNL     1      26.462  46.393  52.762  1.00  0.00     0.036 A 
HETATM   21  C   UNL     1      25.795  47.453  53.384  1.00  0.00     0.029 A 
HETATM   22  C   UNL     1      26.070  47.772  54.719  1.00  0.00     0.002 A 
HETATM   23  C   UNL     1      26.999  47.030  55.443  1.00  0.00     0.000 A 
HETATM   24  C   UNL     1      27.644  45.953  54.841  1.00  0.00     0.002 A 
HETATM   25  C   UNL     1      27.367  45.630  53.511  1.00  0.00     0.029 A 
ENDBRANCH  16  20
ENDBRANCH   1  14
TORSDOF 4
ENDMDL
MODEL 6
REMARK VINA RESULT:      -8.6      3.142      4.928
REMARK  4 active torsions:
REMARK  status: ('A' for Active; 'I' for Inactive)
REMARK    1  A    between atoms: C_5  and  C_6 
REMARK    2  A    between atoms: C_9  and  C_10 
REMARK    3  A    between atoms: C_10  and  N_11 
REMARK       I    between atoms: N_11  and  C_12 
REMARK       I    between atoms: C_12  and  N_13 
REMARK    4  A    between atoms: N_13  and  C_14 
ROOT
HETATM    1  C   UNL     1      24.975  44.919  51.629  1.00  0.00     0.213 C 
ENDROOT
BRANCH   1   2
HETATM    2  C   UNL     1      25.981  45.193  52.682  1.00  0.00     0.190 A 
HETATM    3  O   UNL     1      26.039  46.468  53.157  1.00  0.00    -0.194 OA
HETATM    4  N   UNL     1      27.093  46.506  54.065  1.00  0.00    -0.106 NA
HETATM    5  C   UNL     1      27.572  45.251  54.057  1.00  0.00     0.189 A 
HETATM    6  N   UNL     1      26.889  44.400  53.209  1.00  0.00    -0.202 NA
BRANCH   5   7
HETATM    7  C   UNL     1      28.723  44.816  54.843  1.00  0.00     0.014 A 
HETATM    8  C   UNL     1      29.366  43.599  54.572  1.00  0.00     0.016 A 
HETATM    9  C   UNL     1      30.459  43.181  55.338  1.00  0.00     0.007 A 
HETATM   10  C   UNL     1      30.929  43.970  56.392  1.00  0.00    -0.062 A 
HETATM   11  C   UNL     1      32.112  43.541  57.208  1.00  0.00     0.048 C 
HETATM   12  C   UNL     1      30.296  45.189  56.662  1.00  0.00     0.007 A 
HETATM   13  C   UNL     1      29.202  45.606  55.897  1.00  0.00     0.016 A 
ENDBRANCH   5   7
ENDBRANCH   1   2
BRANCH   1  14
HETATM   14  N   UNL     1      25.299  43.696  50.923  1.00  0.00    -0.335 N 
HETATM   15  C   UNL     1      24.330  42.824  50.541  1.00  0.00     0.321 C 
HETATM   16  N   UNL     1      24.692  41.779  49.751  1.00  0.00    -0.309 N 
HETATM   17  O   UNL     1      23.143  42.990  50.812  1.00  0.00    -0.247 OA
HETATM   18  H   UNL     1      23.878  41.348  49.328  1.00  0.00     0.170 HD
HETATM   19  H   UNL     1      26.150  43.694  50.380  1.00  0.00     0.164 HD
BRANCH  16  20
HETATM   20  C   UNL     1      25.934  41.199  49.441  1.00  0.00     0.036 A 
HETATM   21  C   UNL     1      26.641  40.353  50.300  1.00  0.00     0.029 A 
HETATM   22  C   UNL     1      27.869  39.812  49.903  1.00  0.00     0.002 A 
HETATM   23  C   UNL     1      28.392  40.101  48.645  1.00  0.00     0.000 A 
HETATM   24  C   UNL     1      27.678  40.916  47.771  1.00  0.00     0.002 A 
HETATM   25  C   UNL     1      26.450  41.452  48.163  1.00  0.00     0.029 A 
ENDBRANCH  16  20
ENDBRANCH   1  14
TORSDOF 4
ENDMDL
MODEL 7
REMARK VINA RESULT:      -8.6      2.544      4.578
REMARK  4 active torsions:
REMARK  status: ('A' for Active; 'I' for Inactive)
REMARK    1  A    between atoms: C_5  and  C_6 
REMARK    2  A    between atoms: C_9  and  C_10 
REMARK    3  A    between atoms: C_10  and  N_11 
REMARK       I    between atoms: N_11  and  C_12 
REMARK       I    between atoms: C_12  and  N_13 
REMARK    4  A    between atoms: N_13  and  C_14 
ROOT
HETATM    1  C   UNL     1      25.252  46.689  52.239  1.00  0.00     0.213 C 
ENDROOT
BRANCH   1   2
HETATM    2  C   UNL     1      26.229  46.570  53.347  1.00  0.00     0.190 A 
HETATM    3  O   UNL     1      26.316  47.626  54.203  1.00  0.00    -0.194 OA
HETATM    4  N   UNL     1      27.338  47.326  55.100  1.00  0.00    -0.106 NA
HETATM    5  C   UNL     1      27.771  46.117  54.705  1.00  0.00     0.189 A 
HETATM    6  N   UNL     1      27.088  45.610  53.616  1.00  0.00    -0.202 NA
BRANCH   5   7
HETATM    7  C   UNL     1      28.876  45.403  55.338  1.00  0.00     0.014 A 
HETATM    8  C   UNL     1      29.395  44.228  54.775  1.00  0.00     0.016 A 
HETATM    9  C   UNL     1      30.445  43.541  55.394  1.00  0.00     0.007 A 
HETATM   10  C   UNL     1      30.993  44.014  56.590  1.00  0.00    -0.062 A 
HETATM   11  C   UNL     1      32.131  43.296  57.252  1.00  0.00     0.048 C 
HETATM   12  C   UNL     1      30.484  45.191  57.152  1.00  0.00     0.007 A 
HETATM   13  C   UNL     1      29.434  45.876  56.533  1.00  0.00     0.016 A 
ENDBRANCH   5   7
ENDBRANCH   1   2
BRANCH   1  14
HETATM   14  N   UNL     1      25.459  45.637  51.264  1.00  0.00    -0.335 N 
HETATM   15  C   UNL     1      25.969  45.906  50.034  1.00  0.00     0.321 C 
HETATM   16  N   UNL     1      26.278  44.854  49.231  1.00  0.00    -0.309 N 
HETATM   17  O   UNL     1      26.233  47.046  49.659  1.00  0.00    -0.247 OA
HETATM   18  H   UNL     1      26.870  45.148  48.463  1.00  0.00     0.170 HD
HETATM   19  H   UNL     1      25.606  44.706  51.622  1.00  0.00     0.164 HD
BRANCH  16  20
HETATM   20  C   UNL     1      25.927  43.493  49.260  1.00  0.00     0.036 A 
HETATM   21  C   UNL     1      24.677  42.997  48.880  1.00  0.00     0.029 A 
HETATM   22  C   UNL     1      24.418  41.623  48.931  1.00  0.00     0.002 A 
HETATM   23  C   UNL     1      25.407  40.736  49.350  1.00  0.00     0.000 A 
HETATM   24  C   UNL     1      26.666  41.219  49.699  1.00  0.00     0.002 A 
HETATM   25  C   UNL     1      26.927  42.589  49.642  1.00  0.00     0.029 A 
ENDBRANCH  16  20
ENDBRANCH   1  14
TORSDOF 4
ENDMDL
MODEL 8
REMARK VINA RESULT:      -8.4      3.115      4.582
REMARK  4 active torsions:
REMARK  status: ('A' for Active; 'I' for Inactive)
REMARK    1  A    between atoms: C_5  and  C_6 
REMARK    2  A    between atoms: C_9  and  C_10 
REMARK    3  A    between atoms: C_10  and  N_11 
REMARK       I    between atoms: N_11  and  C_12 
REMARK       I    between atoms: C_12  and  N_13 
REMARK    4  A    between atoms: N_13  and  C_14 
ROOT
HETATM    1  C   UNL     1      23.720  45.662  49.644  1.00  0.00     0.213 C 
ENDROOT
BRANCH   1   2
HETATM    2  C   UNL     1      24.576  46.104  50.770  1.00  0.00     0.190 A 
HETATM    3  O   UNL     1      24.634  47.444  51.006  1.00  0.00    -0.194 OA
HETATM    4  N   UNL     1      25.546  47.626  52.041  1.00  0.00    -0.106 NA
HETATM    5  C   UNL     1      25.952  46.380  52.337  1.00  0.00     0.189 A 
HETATM    6  N   UNL     1      25.354  45.402  51.566  1.00  0.00    -0.202 NA
BRANCH   5   7
HETATM    7  C   UNL     1      26.952  46.072  53.357  1.00  0.00     0.014 A 
HETATM    8  C   UNL     1      27.291  47.009  54.344  1.00  0.00     0.016 A 
HETATM    9  C   UNL     1      28.259  46.714  55.309  1.00  0.00     0.007 A 
HETATM   10  C   UNL     1      28.910  45.476  55.303  1.00  0.00    -0.062 A 
HETATM   11  C   UNL     1      29.936  45.141  56.344  1.00  0.00     0.048 C 
HETATM   12  C   UNL     1      28.569  44.534  54.326  1.00  0.00     0.007 A 
HETATM   13  C   UNL     1      27.602  44.831  53.360  1.00  0.00     0.016 A 
ENDBRANCH   5   7
ENDBRANCH   1   2
BRANCH   1  14
HETATM   14  N   UNL     1      22.817  46.722  49.246  1.00  0.00    -0.335 N 
HETATM   15  C   UNL     1      22.167  46.684  48.054  1.00  0.00     0.321 C 
HETATM   16  N   UNL     1      21.222  47.631  47.815  1.00  0.00    -0.309 N 
HETATM   17  O   UNL     1      22.342  45.789  47.230  1.00  0.00    -0.247 OA
HETATM   18  H   UNL     1      20.638  47.368  47.029  1.00  0.00     0.170 HD
HETATM   19  H   UNL     1      22.376  47.248  49.985  1.00  0.00     0.164 HD
BRANCH  16  20
HETATM   20  C   UNL     1      20.930  48.866  48.421  1.00  0.00     0.036 A 
HETATM   21  C   UNL     1      21.477  50.087  48.017  1.00  0.00     0.029 A 
HETATM   22  C   UNL     1      21.122  51.270  48.674  1.00  0.00     0.002 A 
HETATM   23  C   UNL     1      20.210  51.244  49.726  1.00  0.00     0.000 A 
HETATM   24  C   UNL     1      19.636  50.037  50.113  1.00  0.00     0.002 A 
HETATM   25  C   UNL     1      19.985  48.856  49.455  1.00  0.00     0.029 A 
ENDBRANCH  16  20
ENDBRANCH   1  14
TORSDOF 4
ENDMDL
MODEL 9
REMARK VINA RESULT:      -8.2      3.243      5.840
REMARK  4 active torsions:
REMARK  status: ('A' for Active; 'I' for Inactive)
REMARK    1  A    between atoms: C_5  and  C_6 
REMARK    2  A    between atoms: C_9  and  C_10 
REMARK    3  A    between atoms: C_10  and  N_11 
REMARK       I    between atoms: N_11  and  C_12 
REMARK       I    between atoms: C_12  and  N_13 
REMARK    4  A    between atoms: N_13  and  C_14 
ROOT
HETATM    1  C   UNL     1      26.675  43.876  49.839  1.00  0.00     0.213 C 
ENDROOT
BRANCH   1   2
HETATM    2  C   UNL     1      27.066  44.133  51.246  1.00  0.00     0.190 A 
HETATM    3  O   UNL     1      26.262  44.966  51.963  1.00  0.00    -0.194 OA
HETATM    4  N   UNL     1      26.861  45.120  53.210  1.00  0.00    -0.106 NA
HETATM    5  C   UNL     1      27.968  44.363  53.132  1.00  0.00     0.189 A 
HETATM    6  N   UNL     1      28.120  43.721  51.918  1.00  0.00    -0.202 NA
BRANCH   5   7
HETATM    7  C   UNL     1      28.945  44.240  54.210  1.00  0.00     0.014 A 
HETATM    8  C   UNL     1      29.784  43.120  54.302  1.00  0.00     0.016 A 
HETATM    9  C   UNL     1      30.709  43.001  55.345  1.00  0.00     0.007 A 
HETATM   10  C   UNL     1      30.809  43.999  56.319  1.00  0.00    -0.062 A 
HETATM   11  C   UNL     1      31.810  43.891  57.431  1.00  0.00     0.048 C 
HETATM   12  C   UNL     1      29.981  45.123  56.227  1.00  0.00     0.007 A 
HETATM   13  C   UNL     1      29.056  45.240  55.185  1.00  0.00     0.016 A 
ENDBRANCH   5   7
ENDBRANCH   1   2
BRANCH   1  14
HETATM   14  N   UNL     1      26.716  42.456  49.551  1.00  0.00    -0.335 N 
HETATM   15  C   UNL     1      25.688  41.638  49.894  1.00  0.00     0.321 C 
HETATM   16  N   UNL     1      25.728  40.352  49.457  1.00  0.00    -0.309 N 
HETATM   17  O   UNL     1      24.698  42.034  50.506  1.00  0.00    -0.247 OA
HETATM   18  H   UNL     1      24.820  39.911  49.548  1.00  0.00     0.170 HD
HETATM   19  H   UNL     1      27.287  42.165  48.773  1.00  0.00     0.164 HD
BRANCH  16  20
HETATM   20  C   UNL     1      26.758  39.548  48.939  1.00  0.00     0.036 A 
HETATM   21  C   UNL     1      26.953  39.302  47.577  1.00  0.00     0.029 A 
HETATM   22  C   UNL     1      28.014  38.495  47.151  1.00  0.00     0.002 A 
HETATM   23  C   UNL     1      28.892  37.941  48.078  1.00  0.00     0.000 A 
HETATM   24  C   UNL     1      28.725  38.207  49.434  1.00  0.00     0.002 A 
HETATM   25  C   UNL     1      27.670  39.017  49.860  1.00  0.00     0.029 A 
ENDBRANCH  16  20
ENDBRANCH   1  14
TORSDOF 4
ENDMDL
MODEL 10
REMARK VINA RESULT:      -8.1      3.814      9.583
REMARK  4 active torsions:
REMARK  status: ('A' for Active; 'I' for Inactive)
REMARK    1  A    between atoms: C_5  and  C_6 
REMARK    2  A    between atoms: C_9  and  C_10 
REMARK    3  A    between atoms: C_10  and  N_11 
REMARK       I    between atoms: N_11  and  C_12 
REMARK       I    between atoms: C_12  and  N_13 
REMARK    4  A    between atoms: N_13  and  C_14 
ROOT
HETATM    1  C   UNL     1      25.301  48.049  49.648  1.00  0.00     0.213 C 
ENDROOT
BRANCH   1   2
HETATM    2  C   UNL     1      23.862  48.330  49.437  1.00  0.00     0.190 A 
HETATM    3  O   UNL     1      23.145  47.385  48.768  1.00  0.00    -0.194 OA
HETATM    4  N   UNL     1      21.857  47.893  48.621  1.00  0.00    -0.106 NA
HETATM    5  C   UNL     1      21.915  49.096  49.216  1.00  0.00     0.189 A 
HETATM    6  N   UNL     1      23.154  49.395  49.748  1.00  0.00    -0.202 NA
BRANCH   5   7
HETATM    7  C   UNL     1      20.790  50.025  49.280  1.00  0.00     0.014 A 
HETATM    8  C   UNL     1      19.653  49.733  50.047  1.00  0.00     0.016 A 
HETATM    9  C   UNL     1      18.573  50.621  50.093  1.00  0.00     0.007 A 
HETATM   10  C   UNL     1      18.608  51.816  49.370  1.00  0.00    -0.062 A 
HETATM   11  C   UNL     1      17.463  52.784  49.427  1.00  0.00     0.048 C 
HETATM   12  C   UNL     1      19.743  52.117  48.609  1.00  0.00     0.007 A 
HETATM   13  C   UNL     1      20.822  51.228  48.563  1.00  0.00     0.016 A 
ENDBRANCH   5   7
ENDBRANCH   1   2
BRANCH   1  14
HETATM   14  N   UNL     1      25.478  46.780  50.324  1.00  0.00    -0.335 N 
HETATM   15  C   UNL     1      25.450  46.693  51.679  1.00  0.00     0.321 C 
HETATM   16  N   UNL     1      25.468  45.454  52.237  1.00  0.00    -0.309 N 
HETATM   17  O   UNL     1      25.329  47.677  52.406  1.00  0.00    -0.247 OA
HETATM   18  H   UNL     1      25.195  45.493  53.212  1.00  0.00     0.170 HD
HETATM   19  H   UNL     1      25.220  45.950  49.812  1.00  0.00     0.164 HD
BRANCH  16  20
HETATM   20  C   UNL     1      25.799  44.183  51.735  1.00  0.00     0.036 A 
HETATM   21  C   UNL     1      27.057  43.589  51.872  1.00  0.00     0.029 A 
HETATM   22  C   UNL     1      27.295  42.314  51.347  1.00  0.00     0.002 A 
HETATM   23  C   UNL     1      26.279  41.621  50.695  1.00  0.00     0.000 A 
HETATM   24  C   UNL     1      25.014  42.192  50.582  1.00  0.00     0.002 A 
HETATM   25  C   UNL     1      24.774  43.462  51.110  1.00  0.00     0.029 A 
ENDBRANCH  16  20
ENDBRANCH   1  14
TORSDOF 4
ENDMDL
