MODEL 1
REMARK VINA RESULT:      -8.3      0.000      0.000
REMARK  3 active torsions:
REMARK  status: ('A' for Active; 'I' for Inactive)
REMARK    1  A    between atoms: N_6  and  C_7 
REMARK    2  A    between atoms: C_7  and  C_8 
REMARK    3  A    between atoms: N_10  and  C_11 
ROOT
HETATM    1  C   UNL     1      29.374  44.890  55.708  1.00  0.00     0.073 A 
HETATM    2  C   UNL     1      29.723  45.208  57.045  1.00  0.00     0.062 A 
HETATM    3 CL   UNL     1      28.792  46.260  58.055  1.00  0.00    -0.082 Cl
HETATM    4  C   UNL     1      30.835  44.619  57.672  1.00  0.00     0.026 A 
HETATM    5  C   UNL     1      31.612  43.678  57.009  1.00  0.00     0.003 A 
HETATM    6  C   UNL     1      31.276  43.310  55.716  1.00  0.00     0.025 A 
HETATM    7  C   UNL     1      30.177  43.903  55.068  1.00  0.00     0.072 A 
HETATM    8  C   UNL     1      29.902  43.455  53.728  1.00  0.00     0.102 C 
HETATM    9  N   UNL     1      29.688  43.038  52.664  1.00  0.00    -0.191 NA
ENDROOT
BRANCH   1  10
HETATM   10  N   UNL     1      28.314  45.472  54.977  1.00  0.00    -0.378 N 
HETATM   11  C   UNL     1      27.026  44.767  55.102  1.00  0.00     0.129 C 
HETATM   12  C   UNL     1      26.132  45.133  53.891  1.00  0.00     0.032 C 
HETATM   13  C   UNL     1      25.962  46.661  53.821  1.00  0.00     0.009 C 
HETATM   14  C   UNL     1      27.308  47.394  53.829  1.00  0.00     0.020 C 
HETATM   15  C   UNL     1      28.178  46.941  55.005  1.00  0.00     0.123 C 
BRANCH  12  16
HETATM   16  C   UNL     1      26.746  44.547  52.599  1.00  0.00     0.278 C 
BRANCH  16  17
HETATM   17  N   UNL     1      26.086  44.966  51.343  1.00  0.00     0.092 N 
HETATM   18  C   UNL     1      24.716  44.432  51.215  1.00  0.00     0.300 C 
HETATM   19  C   UNL     1      24.621  42.913  50.944  1.00  0.00     0.264 C 
HETATM   20  N   UNL     1      25.493  42.516  49.764  1.00  0.00    -0.072 N 
HETATM   21  C   UNL     1      25.478  41.035  49.533  1.00  0.00     0.269 C 
HETATM   22  H   UNL     1      25.097  42.971  48.931  1.00  0.00     0.279 HD
HETATM   23  C   UNL     1      26.916  43.040  49.906  1.00  0.00     0.264 C 
HETATM   24  C   UNL     1      26.893  44.557  50.171  1.00  0.00     0.300 C 
ENDBRANCH  16  17
ENDBRANCH  12  16
ENDBRANCH   1  10
TORSDOF 3
ENDMDL
MODEL 2
REMARK VINA RESULT:      -7.7      2.424      3.771
REMARK  3 active torsions:
REMARK  status: ('A' for Active; 'I' for Inactive)
REMARK    1  A    between atoms: N_6  and  C_7 
REMARK    2  A    between atoms: C_7  and  C_8 
REMARK    3  A    between atoms: N_10  and  C_11 
ROOT
HETATM    1  C   UNL     1      28.667  44.314  54.618  1.00  0.00     0.073 A 
HETATM    2  C   UNL     1      29.549  43.212  54.753  1.00  0.00     0.062 A 
HETATM    3 CL   UNL     1      29.326  41.699  53.942  1.00  0.00    -0.082 Cl
HETATM    4  C   UNL     1      30.727  43.305  55.516  1.00  0.00     0.026 A 
HETATM    5  C   UNL     1      31.082  44.495  56.138  1.00  0.00     0.003 A 
HETATM    6  C   UNL     1      30.265  45.605  55.993  1.00  0.00     0.025 A 
HETATM    7  C   UNL     1      29.075  45.524  55.247  1.00  0.00     0.072 A 
HETATM    8  C   UNL     1      28.295  46.729  55.148  1.00  0.00     0.102 C 
HETATM    9  N   UNL     1      27.714  47.733  55.058  1.00  0.00    -0.191 NA
ENDROOT
BRANCH   1  10
HETATM   10  N   UNL     1      27.437  44.298  53.923  1.00  0.00    -0.378 N 
HETATM   11  C   UNL     1      27.469  43.575  52.640  1.00  0.00     0.129 C 
HETATM   12  C   UNL     1      26.301  44.073  51.753  1.00  0.00     0.032 C 
HETATM   13  C   UNL     1      24.969  43.883  52.502  1.00  0.00     0.009 C 
HETATM   14  C   UNL     1      24.993  44.523  53.894  1.00  0.00     0.020 C 
HETATM   15  C   UNL     1      26.207  44.050  54.700  1.00  0.00     0.123 C 
BRANCH  12  16
HETATM   16  C   UNL     1      26.547  45.545  51.351  1.00  0.00     0.278 C 
BRANCH  16  17
HETATM   17  N   UNL     1      26.613  45.797  49.895  1.00  0.00     0.092 N 
HETATM   18  C   UNL     1      26.828  47.221  49.572  1.00  0.00     0.300 C 
HETATM   19  C   UNL     1      25.620  48.148  49.835  1.00  0.00     0.264 C 
HETATM   20  N   UNL     1      24.363  47.604  49.176  1.00  0.00    -0.072 N 
HETATM   21  C   UNL     1      23.162  48.446  49.487  1.00  0.00     0.269 C 
HETATM   22  H   UNL     1      24.518  47.636  48.161  1.00  0.00     0.279 HD
HETATM   23  C   UNL     1      24.121  46.143  49.531  1.00  0.00     0.264 C 
HETATM   24  C   UNL     1      25.383  45.312  49.228  1.00  0.00     0.300 C 
ENDBRANCH  16  17
ENDBRANCH  12  16
ENDBRANCH   1  10
TORSDOF 3
ENDMDL
MODEL 3
REMARK VINA RESULT:      -7.4     13.628     14.808
REMARK  3 active torsions:
REMARK  status: ('A' for Active; 'I' for Inactive)
REMARK    1  A    between atoms: N_6  and  C_7 
REMARK    2  A    between atoms: C_7  and  C_8 
REMARK    3  A    between atoms: N_10  and  C_11 
ROOT
HETATM    1  C   UNL     1      32.572  51.633  41.439  1.00  0.00     0.073 A 
HETATM    2  C   UNL     1      33.219  51.568  42.699  1.00  0.00     0.062 A 
HETATM    3 CL   UNL     1      32.393  51.731  44.211  1.00  0.00    -0.082 Cl
HETATM    4  C   UNL     1      34.593  51.289  42.804  1.00  0.00     0.026 A 
HETATM    5  C   UNL     1      35.358  51.035  41.673  1.00  0.00     0.003 A 
HETATM    6  C   UNL     1      34.751  51.048  40.427  1.00  0.00     0.025 A 
HETATM    7  C   UNL     1      33.381  51.343  40.303  1.00  0.00     0.072 A 
HETATM    8  C   UNL     1      32.837  51.328  38.971  1.00  0.00     0.102 C 
HETATM    9  N   UNL     1      32.428  51.267  37.884  1.00  0.00    -0.191 NA
ENDROOT
BRANCH   1  10
HETATM   10  N   UNL     1      31.214  51.963  41.231  1.00  0.00    -0.378 N 
HETATM   11  C   UNL     1      30.264  51.182  42.043  1.00  0.00     0.129 C 
HETATM   12  C   UNL     1      28.872  51.224  41.366  1.00  0.00     0.032 C 
HETATM   13  C   UNL     1      28.430  52.688  41.189  1.00  0.00     0.009 C 
HETATM   14  C   UNL     1      29.486  53.527  40.462  1.00  0.00     0.020 C 
HETATM   15  C   UNL     1      30.857  53.392  41.132  1.00  0.00     0.123 C 
BRANCH  12  16
HETATM   16  C   UNL     1      28.925  50.457  40.024  1.00  0.00     0.278 C 
BRANCH  16  17
HETATM   17  N   UNL     1      27.643  49.863  39.588  1.00  0.00     0.092 N 
HETATM   18  C   UNL     1      27.035  49.000  40.618  1.00  0.00     0.300 C 
HETATM   19  C   UNL     1      27.756  47.654  40.862  1.00  0.00     0.264 C 
HETATM   20  N   UNL     1      27.970  46.907  39.555  1.00  0.00    -0.072 N 
HETATM   21  C   UNL     1      28.739  45.637  39.759  1.00  0.00     0.269 C 
HETATM   22  H   UNL     1      27.040  46.660  39.194  1.00  0.00     0.279 HD
HETATM   23  C   UNL     1      28.624  47.786  38.497  1.00  0.00     0.264 C 
HETATM   24  C   UNL     1      27.827  49.095  38.335  1.00  0.00     0.300 C 
ENDBRANCH  16  17
ENDBRANCH  12  16
ENDBRANCH   1  10
TORSDOF 3
ENDMDL
MODEL 4
REMARK VINA RESULT:      -7.4     13.656     15.062
REMARK  3 active torsions:
REMARK  status: ('A' for Active; 'I' for Inactive)
REMARK    1  A    between atoms: N_6  and  C_7 
REMARK    2  A    between atoms: C_7  and  C_8 
REMARK    3  A    between atoms: N_10  and  C_11 
ROOT
HETATM    1  C   UNL     1      34.640  51.038  42.093  1.00  0.00     0.073 A 
HETATM    2  C   UNL     1      35.949  51.139  41.556  1.00  0.00     0.062 A 
HETATM    3 CL   UNL     1      36.387  50.570  39.982  1.00  0.00    -0.082 Cl
HETATM    4  C   UNL     1      36.980  51.788  42.258  1.00  0.00     0.026 A 
HETATM    5  C   UNL     1      36.741  52.381  43.491  1.00  0.00     0.003 A 
HETATM    6  C   UNL     1      35.464  52.340  44.027  1.00  0.00     0.025 A 
HETATM    7  C   UNL     1      34.424  51.679  43.346  1.00  0.00     0.072 A 
HETATM    8  C   UNL     1      33.131  51.692  43.977  1.00  0.00     0.102 C 
HETATM    9  N   UNL     1      32.095  51.760  44.500  1.00  0.00    -0.191 NA
ENDROOT
BRANCH   1  10
HETATM   10  N   UNL     1      33.558  50.357  41.491  1.00  0.00    -0.378 N 
HETATM   11  C   UNL     1      33.068  50.971  40.244  1.00  0.00     0.129 C 
HETATM   12  C   UNL     1      31.614  50.502  39.991  1.00  0.00     0.032 C 
HETATM   13  C   UNL     1      31.570  48.963  39.946  1.00  0.00     0.009 C 
HETATM   14  C   UNL     1      32.207  48.331  41.188  1.00  0.00     0.020 C 
HETATM   15  C   UNL     1      33.615  48.884  41.431  1.00  0.00     0.123 C 
BRANCH  12  16
HETATM   16  C   UNL     1      30.684  51.087  41.078  1.00  0.00     0.278 C 
BRANCH  16  17
HETATM   17  N   UNL     1      29.843  52.223  40.641  1.00  0.00     0.092 N 
HETATM   18  C   UNL     1      28.604  52.352  41.433  1.00  0.00     0.300 C 
HETATM   19  C   UNL     1      27.539  51.261  41.176  1.00  0.00     0.264 C 
HETATM   20  N   UNL     1      27.247  51.125  39.690  1.00  0.00    -0.072 N 
HETATM   21  C   UNL     1      26.276  50.017  39.413  1.00  0.00     0.269 C 
HETATM   22  H   UNL     1      26.817  52.007  39.386  1.00  0.00     0.279 HD
HETATM   23  C   UNL     1      28.521  50.962  38.873  1.00  0.00     0.264 C 
HETATM   24  C   UNL     1      29.508  52.098  39.204  1.00  0.00     0.300 C 
ENDBRANCH  16  17
ENDBRANCH  12  16
ENDBRANCH   1  10
TORSDOF 3
ENDMDL
MODEL 5
REMARK VINA RESULT:      -7.2      1.937      3.442
REMARK  3 active torsions:
REMARK  status: ('A' for Active; 'I' for Inactive)
REMARK    1  A    between atoms: N_6  and  C_7 
REMARK    2  A    between atoms: C_7  and  C_8 
REMARK    3  A    between atoms: N_10  and  C_11 
ROOT
HETATM    1  C   UNL     1      27.333  45.411  53.585  1.00  0.00     0.073 A 
HETATM    2  C   UNL     1      27.162  46.482  54.498  1.00  0.00     0.062 A 
HETATM    3 CL   UNL     1      25.830  47.586  54.444  1.00  0.00    -0.082 Cl
HETATM    4  C   UNL     1      28.047  46.677  55.573  1.00  0.00     0.026 A 
HETATM    5  C   UNL     1      29.104  45.803  55.795  1.00  0.00     0.003 A 
HETATM    6  C   UNL     1      29.276  44.719  54.948  1.00  0.00     0.025 A 
HETATM    7  C   UNL     1      28.410  44.520  53.857  1.00  0.00     0.072 A 
HETATM    8  C   UNL     1      28.665  43.366  53.036  1.00  0.00     0.102 C 
HETATM    9  N   UNL     1      28.879  42.403  52.421  1.00  0.00    -0.191 NA
ENDROOT
BRANCH   1  10
HETATM   10  N   UNL     1      26.533  45.170  52.445  1.00  0.00    -0.378 N 
HETATM   11  C   UNL     1      25.324  44.369  52.706  1.00  0.00     0.129 C 
HETATM   12  C   UNL     1      24.852  43.725  51.378  1.00  0.00     0.032 C 
HETATM   13  C   UNL     1      24.613  44.827  50.329  1.00  0.00     0.009 C 
HETATM   14  C   UNL     1      25.832  45.741  50.164  1.00  0.00     0.020 C 
HETATM   15  C   UNL     1      26.298  46.291  51.515  1.00  0.00     0.123 C 
BRANCH  12  16
HETATM   16  C   UNL     1      25.891  42.680  50.911  1.00  0.00     0.278 C 
BRANCH  16  17
HETATM   17  N   UNL     1      25.330  41.375  50.501  1.00  0.00     0.092 N 
HETATM   18  C   UNL     1      26.264  40.255  50.731  1.00  0.00     0.300 C 
HETATM   19  C   UNL     1      27.483  40.206  49.782  1.00  0.00     0.264 C 
HETATM   20  N   UNL     1      27.043  40.285  48.328  1.00  0.00    -0.072 N 
HETATM   21  C   UNL     1      28.215  40.319  47.394  1.00  0.00     0.269 C 
HETATM   22  H   UNL     1      26.505  39.431  48.131  1.00  0.00     0.279 HD
HETATM   23  C   UNL     1      26.102  41.456  48.080  1.00  0.00     0.264 C 
HETATM   24  C   UNL     1      24.928  41.407  49.077  1.00  0.00     0.300 C 
ENDBRANCH  16  17
ENDBRANCH  12  16
ENDBRANCH   1  10
TORSDOF 3
ENDMDL
MODEL 6
REMARK VINA RESULT:      -7.1      1.447      2.347
REMARK  3 active torsions:
REMARK  status: ('A' for Active; 'I' for Inactive)
REMARK    1  A    between atoms: N_6  and  C_7 
REMARK    2  A    between atoms: C_7  and  C_8 
REMARK    3  A    between atoms: N_10  and  C_11 
ROOT
HETATM    1  C   UNL     1      29.440  44.714  55.526  1.00  0.00     0.073 A 
HETATM    2  C   UNL     1      30.331  43.761  54.969  1.00  0.00     0.062 A 
HETATM    3 CL   UNL     1      30.277  43.249  53.317  1.00  0.00    -0.082 Cl
HETATM    4  C   UNL     1      31.384  43.214  55.724  1.00  0.00     0.026 A 
HETATM    5  C   UNL     1      31.606  43.614  57.035  1.00  0.00     0.003 A 
HETATM    6  C   UNL     1      30.781  44.575  57.599  1.00  0.00     0.025 A 
HETATM    7  C   UNL     1      29.713  45.120  56.864  1.00  0.00     0.072 A 
HETATM    8  C   UNL     1      28.914  46.114  57.531  1.00  0.00     0.102 C 
HETATM    9  N   UNL     1      28.319  46.942  58.089  1.00  0.00    -0.191 NA
ENDROOT
BRANCH   1  10
HETATM   10  N   UNL     1      28.323  45.273  54.868  1.00  0.00    -0.378 N 
HETATM   11  C   UNL     1      27.083  44.485  54.992  1.00  0.00     0.129 C 
HETATM   12  C   UNL     1      26.126  44.869  53.836  1.00  0.00     0.032 C 
HETATM   13  C   UNL     1      25.865  46.386  53.866  1.00  0.00     0.009 C 
HETATM   14  C   UNL     1      27.165  47.196  53.875  1.00  0.00     0.020 C 
HETATM   15  C   UNL     1      28.102  46.727  54.992  1.00  0.00     0.123 C 
BRANCH  12  16
HETATM   16  C   UNL     1      26.726  44.400  52.490  1.00  0.00     0.278 C 
BRANCH  16  17
HETATM   17  N   UNL     1      25.999  44.856  51.285  1.00  0.00     0.092 N 
HETATM   18  C   UNL     1      24.639  44.289  51.193  1.00  0.00     0.300 C 
HETATM   19  C   UNL     1      24.573  42.782  50.855  1.00  0.00     0.264 C 
HETATM   20  N   UNL     1      25.402  42.464  49.621  1.00  0.00    -0.072 N 
HETATM   21  C   UNL     1      25.416  40.994  49.324  1.00  0.00     0.269 C 
HETATM   22  H   UNL     1      24.957  42.943  48.829  1.00  0.00     0.279 HD
HETATM   23  C   UNL     1      26.815  43.021  49.725  1.00  0.00     0.264 C 
HETATM   24  C   UNL     1      26.764  44.524  50.062  1.00  0.00     0.300 C 
ENDBRANCH  16  17
ENDBRANCH  12  16
ENDBRANCH   1  10
TORSDOF 3
ENDMDL
MODEL 7
REMARK VINA RESULT:      -7.1     13.249     15.936
REMARK  3 active torsions:
REMARK  status: ('A' for Active; 'I' for Inactive)
REMARK    1  A    between atoms: N_6  and  C_7 
REMARK    2  A    between atoms: C_7  and  C_8 
REMARK    3  A    between atoms: N_10  and  C_11 
ROOT
HETATM    1  C   UNL     1      29.015  49.860  40.407  1.00  0.00     0.073 A 
HETATM    2  C   UNL     1      27.988  49.730  39.437  1.00  0.00     0.062 A 
HETATM    3 CL   UNL     1      27.520  51.000  38.359  1.00  0.00    -0.082 Cl
HETATM    4  C   UNL     1      27.319  48.509  39.239  1.00  0.00     0.026 A 
HETATM    5  C   UNL     1      27.666  47.378  39.966  1.00  0.00     0.003 A 
HETATM    6  C   UNL     1      28.694  47.457  40.892  1.00  0.00     0.025 A 
HETATM    7  C   UNL     1      29.362  48.675  41.116  1.00  0.00     0.072 A 
HETATM    8  C   UNL     1      30.419  48.659  42.093  1.00  0.00     0.102 C 
HETATM    9  N   UNL     1      31.291  48.595  42.859  1.00  0.00    -0.191 NA
ENDROOT
BRANCH   1  10
HETATM   10  N   UNL     1      29.702  51.055  40.718  1.00  0.00    -0.378 N 
HETATM   11  C   UNL     1      30.576  51.555  39.643  1.00  0.00     0.129 C 
HETATM   12  C   UNL     1      31.644  52.493  40.258  1.00  0.00     0.032 C 
HETATM   13  C   UNL     1      30.948  53.630  41.027  1.00  0.00     0.009 C 
HETATM   14  C   UNL     1      29.938  53.102  42.051  1.00  0.00     0.020 C 
HETATM   15  C   UNL     1      28.952  52.126  41.403  1.00  0.00     0.123 C 
BRANCH  12  16
HETATM   16  C   UNL     1      32.599  51.672  41.155  1.00  0.00     0.278 C 
BRANCH  16  17
HETATM   17  N   UNL     1      33.509  50.757  40.433  1.00  0.00     0.092 N 
HETATM   18  C   UNL     1      34.310  49.915  41.342  1.00  0.00     0.300 C 
HETATM   19  C   UNL     1      35.420  50.655  42.123  1.00  0.00     0.264 C 
HETATM   20  N   UNL     1      36.299  51.465  41.184  1.00  0.00    -0.072 N 
HETATM   21  C   UNL     1      37.332  52.254  41.930  1.00  0.00     0.269 C 
HETATM   22  H   UNL     1      36.789  50.794  40.578  1.00  0.00     0.279 HD
HETATM   23  C   UNL     1      35.478  52.358  40.263  1.00  0.00     0.264 C 
HETATM   24  C   UNL     1      34.408  51.521  39.537  1.00  0.00     0.300 C 
ENDBRANCH  16  17
ENDBRANCH  12  16
ENDBRANCH   1  10
TORSDOF 3
ENDMDL
MODEL 8
REMARK VINA RESULT:      -7.1     14.006     15.270
REMARK  3 active torsions:
REMARK  status: ('A' for Active; 'I' for Inactive)
REMARK    1  A    between atoms: N_6  and  C_7 
REMARK    2  A    between atoms: C_7  and  C_8 
REMARK    3  A    between atoms: N_10  and  C_11 
ROOT
HETATM    1  C   UNL     1      31.078  49.909  40.338  1.00  0.00     0.073 A 
HETATM    2  C   UNL     1      31.843  50.387  41.432  1.00  0.00     0.062 A 
HETATM    3 CL   UNL     1      31.708  51.991  42.069  1.00  0.00    -0.082 Cl
HETATM    4  C   UNL     1      32.729  49.547  42.130  1.00  0.00     0.026 A 
HETATM    5  C   UNL     1      32.860  48.207  41.790  1.00  0.00     0.003 A 
HETATM    6  C   UNL     1      32.096  47.694  40.753  1.00  0.00     0.025 A 
HETATM    7  C   UNL     1      31.218  48.525  40.033  1.00  0.00     0.072 A 
HETATM    8  C   UNL     1      30.464  47.903  38.978  1.00  0.00     0.102 C 
HETATM    9  N   UNL     1      29.843  47.354  38.161  1.00  0.00    -0.191 NA
ENDROOT
BRANCH   1  10
HETATM   10  N   UNL     1      30.210  50.689  39.542  1.00  0.00    -0.378 N 
HETATM   11  C   UNL     1      28.953  51.075  40.207  1.00  0.00     0.129 C 
HETATM   12  C   UNL     1      27.898  51.420  39.127  1.00  0.00     0.032 C 
HETATM   13  C   UNL     1      28.445  52.530  38.211  1.00  0.00     0.009 C 
HETATM   14  C   UNL     1      29.818  52.177  37.630  1.00  0.00     0.020 C 
HETATM   15  C   UNL     1      30.799  51.775  38.736  1.00  0.00     0.123 C 
BRANCH  12  16
HETATM   16  C   UNL     1      27.521  50.141  38.344  1.00  0.00     0.278 C 
BRANCH  16  17
HETATM   17  N   UNL     1      26.124  49.687  38.518  1.00  0.00     0.092 N 
HETATM   18  C   UNL     1      25.930  48.902  39.752  1.00  0.00     0.300 C 
HETATM   19  C   UNL     1      26.555  47.488  39.743  1.00  0.00     0.264 C 
HETATM   20  N   UNL     1      26.125  46.712  38.508  1.00  0.00    -0.072 N 
HETATM   21  C   UNL     1      26.783  45.368  38.438  1.00  0.00     0.269 C 
HETATM   22  H   UNL     1      25.110  46.565  38.584  1.00  0.00     0.279 HD
HETATM   23  C   UNL     1      26.351  47.507  37.229  1.00  0.00     0.264 C 
HETATM   24  C   UNL     1      25.688  48.893  37.346  1.00  0.00     0.300 C 
ENDBRANCH  16  17
ENDBRANCH  12  16
ENDBRANCH   1  10
TORSDOF 3
ENDMDL
MODEL 9
REMARK VINA RESULT:      -6.9     13.277     15.073
REMARK  3 active torsions:
REMARK  status: ('A' for Active; 'I' for Inactive)
REMARK    1  A    between atoms: N_6  and  C_7 
REMARK    2  A    between atoms: C_7  and  C_8 
REMARK    3  A    between atoms: N_10  and  C_11 
ROOT
HETATM    1  C   UNL     1      30.425  51.316  40.687  1.00  0.00     0.073 A 
HETATM    2  C   UNL     1      31.163  52.468  40.312  1.00  0.00     0.062 A 
HETATM    3 CL   UNL     1      32.854  52.444  39.942  1.00  0.00    -0.082 Cl
HETATM    4  C   UNL     1      30.539  53.716  40.145  1.00  0.00     0.026 A 
HETATM    5  C   UNL     1      29.167  53.856  40.310  1.00  0.00     0.003 A 
HETATM    6  C   UNL     1      28.407  52.743  40.635  1.00  0.00     0.025 A 
HETATM    7  C   UNL     1      29.018  51.490  40.824  1.00  0.00     0.072 A 
HETATM    8  C   UNL     1      28.148  50.393  41.154  1.00  0.00     0.102 C 
HETATM    9  N   UNL     1      27.407  49.525  41.379  1.00  0.00    -0.191 NA
ENDROOT
BRANCH   1  10
HETATM   10  N   UNL     1      30.972  50.037  40.936  1.00  0.00    -0.378 N 
HETATM   11  C   UNL     1      31.398  49.310  39.728  1.00  0.00     0.129 C 
HETATM   12  C   UNL     1      31.450  47.794  40.045  1.00  0.00     0.032 C 
HETATM   13  C   UNL     1      32.390  47.552  41.240  1.00  0.00     0.009 C 
HETATM   14  C   UNL     1      32.021  48.416  42.451  1.00  0.00     0.020 C 
HETATM   15  C   UNL     1      31.913  49.894  42.063  1.00  0.00     0.123 C 
BRANCH  12  16
HETATM   16  C   UNL     1      30.019  47.270  40.304  1.00  0.00     0.278 C 
BRANCH  16  17
HETATM   17  N   UNL     1      29.531  46.268  39.331  1.00  0.00     0.092 N 
HETATM   18  C   UNL     1      29.032  46.881  38.084  1.00  0.00     0.300 C 
HETATM   19  C   UNL     1      27.692  47.641  38.212  1.00  0.00     0.264 C 
HETATM   20  N   UNL     1      26.635  46.772  38.876  1.00  0.00    -0.072 N 
HETATM   21  C   UNL     1      25.351  47.518  39.083  1.00  0.00     0.269 C 
HETATM   22  H   UNL     1      26.447  45.988  38.239  1.00  0.00     0.279 HD
HETATM   23  C   UNL     1      27.136  46.162  40.178  1.00  0.00     0.264 C 
HETATM   24  C   UNL     1      28.471  45.431  39.936  1.00  0.00     0.300 C 
ENDBRANCH  16  17
ENDBRANCH  12  16
ENDBRANCH   1  10
TORSDOF 3
ENDMDL
MODEL 10
REMARK VINA RESULT:      -6.9     14.010     16.142
REMARK  3 active torsions:
REMARK  status: ('A' for Active; 'I' for Inactive)
REMARK    1  A    between atoms: N_6  and  C_7 
REMARK    2  A    between atoms: C_7  and  C_8 
REMARK    3  A    between atoms: N_10  and  C_11 
ROOT
HETATM    1  C   UNL     1      28.205  48.510  39.314  1.00  0.00     0.073 A 
HETATM    2  C   UNL     1      27.235  47.924  38.461  1.00  0.00     0.062 A 
HETATM    3 CL   UNL     1      26.297  48.821  37.317  1.00  0.00    -0.082 Cl
HETATM    4  C   UNL     1      27.020  46.535  38.442  1.00  0.00     0.026 A 
HETATM    5  C   UNL     1      27.776  45.685  39.238  1.00  0.00     0.003 A 
HETATM    6  C   UNL     1      28.763  46.218  40.052  1.00  0.00     0.025 A 
HETATM    7  C   UNL     1      28.979  47.607  40.096  1.00  0.00     0.072 A 
HETATM    8  C   UNL     1      30.028  48.068  40.967  1.00  0.00     0.102 C 
HETATM    9  N   UNL     1      30.910  48.396  41.651  1.00  0.00    -0.191 NA
ENDROOT
BRANCH   1  10
HETATM   10  N   UNL     1      28.451  49.896  39.445  1.00  0.00    -0.378 N 
HETATM   11  C   UNL     1      29.072  50.520  38.264  1.00  0.00     0.129 C 
HETATM   12  C   UNL     1      29.773  51.831  38.699  1.00  0.00     0.032 C 
HETATM   13  C   UNL     1      28.752  52.757  39.386  1.00  0.00     0.009 C 
HETATM   14  C   UNL     1      28.011  52.054  40.528  1.00  0.00     0.020 C 
HETATM   15  C   UNL     1      27.400  50.730  40.059  1.00  0.00     0.123 C 
BRANCH  12  16
HETATM   16  C   UNL     1      30.975  51.498  39.613  1.00  0.00     0.278 C 
BRANCH  16  17
HETATM   17  N   UNL     1      31.675  52.669  40.184  1.00  0.00     0.092 N 
HETATM   18  C   UNL     1      33.045  52.825  39.660  1.00  0.00     0.300 C 
HETATM   19  C   UNL     1      34.066  51.776  40.155  1.00  0.00     0.264 C 
HETATM   20  N   UNL     1      34.051  51.676  41.672  1.00  0.00    -0.072 N 
HETATM   21  C   UNL     1      34.976  50.607  42.170  1.00  0.00     0.269 C 
HETATM   22  H   UNL     1      34.384  52.578  42.036  1.00  0.00     0.279 HD
HETATM   23  C   UNL     1      32.642  51.485  42.216  1.00  0.00     0.264 C 
HETATM   24  C   UNL     1      31.711  52.581  41.662  1.00  0.00     0.300 C 
ENDBRANCH  16  17
ENDBRANCH  12  16
ENDBRANCH   1  10
TORSDOF 3
ENDMDL
