MODEL 1
REMARK VINA RESULT:      -9.5      0.000      0.000
REMARK  4 active torsions:
REMARK  status: ('A' for Active; 'I' for Inactive)
REMARK    1  A    between atoms: C_2  and  C_3 
REMARK    2  A    between atoms: C_8  and  N_9 
REMARK       I    between atoms: N_9  and  C_10 
REMARK       I    between atoms: C_10  and  N_11 
REMARK    3  A    between atoms: N_11  and  C_12 
REMARK    4  A    between atoms: C_12  and  C_13 
ROOT
HETATM    1  N   UNL     1      25.987  46.762  50.304  1.00  0.00    -0.305 N 
HETATM    2  C   UNL     1      26.018  46.663  51.675  1.00  0.00     0.321 C 
HETATM    3  N   UNL     1      26.490  45.431  52.068  1.00  0.00    -0.339 N 
HETATM    4  O   UNL     1      25.648  47.516  52.469  1.00  0.00    -0.247 OA
HETATM    5  H   UNL     1      25.956  45.887  49.802  1.00  0.00     0.171 HD
HETATM    6  H   UNL     1      27.102  44.951  51.428  1.00  0.00     0.164 HD
ENDROOT
BRANCH   3   7
HETATM    7  C   UNL     1      26.622  45.080  53.468  1.00  0.00     0.163 C 
BRANCH   7   8
HETATM    8  C   UNL     1      27.948  44.403  53.735  1.00  0.00    -0.029 A 
HETATM    9  C   UNL     1      28.764  44.727  54.857  1.00  0.00    -0.018 A 
HETATM   10  C   UNL     1      29.996  44.044  55.022  1.00  0.00    -0.025 A 
HETATM   11  C   UNL     1      28.421  45.694  55.831  1.00  0.00     0.013 A 
HETATM   12  C   UNL     1      30.819  44.329  56.124  1.00  0.00     0.012 A 
HETATM   13  C   UNL     1      30.397  43.082  54.083  1.00  0.00     0.012 A 
HETATM   14  C   UNL     1      30.450  45.284  57.069  1.00  0.00     0.001 A 
HETATM   15  C   UNL     1      29.251  45.968  56.921  1.00  0.00     0.001 A 
HETATM   16  C   UNL     1      29.601  42.782  52.982  1.00  0.00     0.002 A 
HETATM   17  C   UNL     1      28.389  43.438  52.807  1.00  0.00     0.010 A 
ENDBRANCH   7   8
ENDBRANCH   3   7
BRANCH   1  18
HETATM   18  C   UNL     1      25.699  47.908  49.576  1.00  0.00     0.095 A 
HETATM   19  C   UNL     1      24.430  48.224  49.136  1.00  0.00     0.107 A 
HETATM   20  O   UNL     1      24.468  49.389  48.440  1.00  0.00    -0.215 OA
HETATM   21  N   UNL     1      25.760  49.860  48.397  1.00  0.00    -0.131 NA
HETATM   22  C   UNL     1      26.503  48.971  49.072  1.00  0.00     0.087 A 
HETATM   23  C   UNL     1      27.968  49.193  49.144  1.00  0.00     0.075 C 
BRANCH  19  24
HETATM   24  C   UNL     1      23.090  47.605  49.272  1.00  0.00     0.065 C 
HETATM   25  C   UNL     1      22.041  48.352  48.467  1.00  0.00     0.012 C 
ENDBRANCH  19  24
ENDBRANCH   1  18
TORSDOF 4
ENDMDL
MODEL 2
REMARK VINA RESULT:      -9.3      1.282      2.548
REMARK  4 active torsions:
REMARK  status: ('A' for Active; 'I' for Inactive)
REMARK    1  A    between atoms: C_2  and  C_3 
REMARK    2  A    between atoms: C_8  and  N_9 
REMARK       I    between atoms: N_9  and  C_10 
REMARK       I    between atoms: C_10  and  N_11 
REMARK    3  A    between atoms: N_11  and  C_12 
REMARK    4  A    between atoms: C_12  and  C_13 
ROOT
HETATM    1  N   UNL     1      24.834  48.028  50.213  1.00  0.00    -0.305 N 
HETATM    2  C   UNL     1      25.658  46.940  50.383  1.00  0.00     0.321 C 
HETATM    3  N   UNL     1      25.338  46.256  51.534  1.00  0.00    -0.339 N 
HETATM    4  O   UNL     1      26.584  46.615  49.654  1.00  0.00    -0.247 OA
HETATM    5  H   UNL     1      24.392  48.377  51.050  1.00  0.00     0.171 HD
HETATM    6  H   UNL     1      24.389  46.335  51.864  1.00  0.00     0.164 HD
ENDROOT
BRANCH   3   7
HETATM    7  C   UNL     1      26.061  45.067  51.937  1.00  0.00     0.163 C 
BRANCH   7   8
HETATM    8  C   UNL     1      26.907  45.334  53.162  1.00  0.00    -0.029 A 
HETATM    9  C   UNL     1      28.028  44.528  53.513  1.00  0.00    -0.018 A 
HETATM   10  C   UNL     1      28.758  44.851  54.685  1.00  0.00    -0.025 A 
HETATM   11  C   UNL     1      28.467  43.414  52.760  1.00  0.00     0.013 A 
HETATM   12  C   UNL     1      29.877  44.085  55.054  1.00  0.00     0.012 A 
HETATM   13  C   UNL     1      28.365  45.938  55.480  1.00  0.00     0.012 A 
HETATM   14  C   UNL     1      30.287  42.997  54.286  1.00  0.00     0.001 A 
HETATM   15  C   UNL     1      29.581  42.660  53.140  1.00  0.00     0.001 A 
HETATM   16  C   UNL     1      27.260  46.711  55.139  1.00  0.00     0.002 A 
HETATM   17  C   UNL     1      26.536  46.411  53.991  1.00  0.00     0.010 A 
ENDBRANCH   7   8
ENDBRANCH   3   7
BRANCH   1  18
HETATM   18  C   UNL     1      24.789  48.848  49.096  1.00  0.00     0.095 A 
HETATM   19  C   UNL     1      23.653  49.022  48.331  1.00  0.00     0.107 A 
HETATM   20  O   UNL     1      23.923  49.863  47.301  1.00  0.00    -0.215 OA
HETATM   21  N   UNL     1      25.241  50.253  47.356  1.00  0.00    -0.131 NA
HETATM   22  C   UNL     1      25.766  49.642  48.428  1.00  0.00     0.087 A 
HETATM   23  C   UNL     1      27.210  49.835  48.706  1.00  0.00     0.075 C 
BRANCH  19  24
HETATM   24  C   UNL     1      22.257  48.528  48.404  1.00  0.00     0.065 C 
HETATM   25  C   UNL     1      21.257  49.670  48.418  1.00  0.00     0.012 C 
ENDBRANCH  19  24
ENDBRANCH   1  18
TORSDOF 4
ENDMDL
MODEL 3
REMARK VINA RESULT:      -9.0      1.775      3.371
REMARK  4 active torsions:
REMARK  status: ('A' for Active; 'I' for Inactive)
REMARK    1  A    between atoms: C_2  and  C_3 
REMARK    2  A    between atoms: C_8  and  N_9 
REMARK       I    between atoms: N_9  and  C_10 
REMARK       I    between atoms: C_10  and  N_11 
REMARK    3  A    between atoms: N_11  and  C_12 
REMARK    4  A    between atoms: C_12  and  C_13 
ROOT
HETATM    1  N   UNL     1      23.991  47.388  50.339  1.00  0.00    -0.305 N 
HETATM    2  C   UNL     1      24.860  46.335  50.507  1.00  0.00     0.321 C 
HETATM    3  N   UNL     1      25.187  46.174  51.834  1.00  0.00    -0.339 N 
HETATM    4  O   UNL     1      25.330  45.640  49.619  1.00  0.00    -0.247 OA
HETATM    5  H   UNL     1      23.993  48.078  51.075  1.00  0.00     0.171 HD
HETATM    6  H   UNL     1      24.516  46.500  52.513  1.00  0.00     0.164 HD
ENDROOT
BRANCH   3   7
HETATM    7  C   UNL     1      26.087  45.127  52.273  1.00  0.00     0.163 C 
BRANCH   7   8
HETATM    8  C   UNL     1      26.963  45.607  53.411  1.00  0.00    -0.029 A 
HETATM    9  C   UNL     1      28.035  44.829  53.935  1.00  0.00    -0.018 A 
HETATM   10  C   UNL     1      28.798  45.358  55.008  1.00  0.00    -0.025 A 
HETATM   11  C   UNL     1      28.396  43.550  53.450  1.00  0.00     0.013 A 
HETATM   12  C   UNL     1      29.871  44.623  55.540  1.00  0.00     0.012 A 
HETATM   13  C   UNL     1      28.482  46.616  55.540  1.00  0.00     0.012 A 
HETATM   14  C   UNL     1      30.203  43.369  55.035  1.00  0.00     0.001 A 
HETATM   15  C   UNL     1      29.464  42.831  53.991  1.00  0.00     0.001 A 
HETATM   16  C   UNL     1      27.423  47.363  55.032  1.00  0.00     0.002 A 
HETATM   17  C   UNL     1      26.669  46.862  53.978  1.00  0.00     0.010 A 
ENDBRANCH   7   8
ENDBRANCH   3   7
BRANCH   1  18
HETATM   18  C   UNL     1      23.355  47.738  49.158  1.00  0.00     0.095 A 
HETATM   19  C   UNL     1      23.597  48.923  48.492  1.00  0.00     0.107 A 
HETATM   20  O   UNL     1      22.814  48.989  47.384  1.00  0.00    -0.215 OA
HETATM   21  N   UNL     1      22.034  47.859  47.301  1.00  0.00    -0.131 NA
HETATM   22  C   UNL     1      22.350  47.108  48.367  1.00  0.00     0.087 A 
HETATM   23  C   UNL     1      21.614  45.838  48.572  1.00  0.00     0.075 C 
BRANCH  19  24
HETATM   24  C   UNL     1      24.504  50.076  48.703  1.00  0.00     0.065 C 
HETATM   25  C   UNL     1      25.946  49.720  48.390  1.00  0.00     0.012 C 
ENDBRANCH  19  24
ENDBRANCH   1  18
TORSDOF 4
ENDMDL
MODEL 4
REMARK VINA RESULT:      -8.7      1.694      2.232
REMARK  4 active torsions:
REMARK  status: ('A' for Active; 'I' for Inactive)
REMARK    1  A    between atoms: C_2  and  C_3 
REMARK    2  A    between atoms: C_8  and  N_9 
REMARK       I    between atoms: N_9  and  C_10 
REMARK       I    between atoms: C_10  and  N_11 
REMARK    3  A    between atoms: N_11  and  C_12 
REMARK    4  A    between atoms: C_12  and  C_13 
ROOT
HETATM    1  N   UNL     1      24.804  48.009  50.231  1.00  0.00    -0.305 N 
HETATM    2  C   UNL     1      25.147  46.680  50.314  1.00  0.00     0.321 C 
HETATM    3  N   UNL     1      24.621  46.107  51.451  1.00  0.00    -0.339 N 
HETATM    4  O   UNL     1      25.852  46.065  49.528  1.00  0.00    -0.247 OA
HETATM    5  H   UNL     1      24.556  48.453  51.102  1.00  0.00     0.171 HD
HETATM    6  H   UNL     1      23.786  46.527  51.829  1.00  0.00     0.164 HD
ENDROOT
BRANCH   3   7
HETATM    7  C   UNL     1      24.838  44.710  51.767  1.00  0.00     0.163 C 
BRANCH   7   8
HETATM    8  C   UNL     1      26.181  44.507  52.433  1.00  0.00    -0.029 A 
HETATM    9  C   UNL     1      26.671  45.371  53.453  1.00  0.00    -0.018 A 
HETATM   10  C   UNL     1      27.947  45.106  54.015  1.00  0.00    -0.025 A 
HETATM   11  C   UNL     1      25.963  46.489  53.952  1.00  0.00     0.013 A 
HETATM   12  C   UNL     1      28.456  45.930  55.033  1.00  0.00     0.012 A 
HETATM   13  C   UNL     1      28.704  44.018  53.555  1.00  0.00     0.012 A 
HETATM   14  C   UNL     1      27.729  47.020  55.505  1.00  0.00     0.001 A 
HETATM   15  C   UNL     1      26.483  47.301  54.963  1.00  0.00     0.001 A 
HETATM   16  C   UNL     1      28.224  43.187  52.547  1.00  0.00     0.002 A 
HETATM   17  C   UNL     1      26.974  43.431  51.989  1.00  0.00     0.010 A 
ENDBRANCH   7   8
ENDBRANCH   3   7
BRANCH   1  18
HETATM   18  C   UNL     1      25.047  48.846  49.152  1.00  0.00     0.095 A 
HETATM   19  C   UNL     1      24.053  49.300  48.308  1.00  0.00     0.107 A 
HETATM   20  O   UNL     1      24.599  50.081  47.342  1.00  0.00    -0.215 OA
HETATM   21  N   UNL     1      25.962  50.151  47.519  1.00  0.00    -0.131 NA
HETATM   22  C   UNL     1      26.236  49.406  48.600  1.00  0.00     0.087 A 
HETATM   23  C   UNL     1      27.655  49.250  49.001  1.00  0.00     0.075 C 
BRANCH  19  24
HETATM   24  C   UNL     1      22.580  49.143  48.247  1.00  0.00     0.065 C 
HETATM   25  C   UNL     1      21.893  50.444  47.870  1.00  0.00     0.012 C 
ENDBRANCH  19  24
ENDBRANCH   1  18
TORSDOF 4
ENDMDL
MODEL 5
REMARK VINA RESULT:      -8.7      4.849      7.442
REMARK  4 active torsions:
REMARK  status: ('A' for Active; 'I' for Inactive)
REMARK    1  A    between atoms: C_2  and  C_3 
REMARK    2  A    between atoms: C_8  and  N_9 
REMARK       I    between atoms: N_9  and  C_10 
REMARK       I    between atoms: C_10  and  N_11 
REMARK    3  A    between atoms: N_11  and  C_12 
REMARK    4  A    between atoms: C_12  and  C_13 
ROOT
HETATM    1  N   UNL     1      27.544  39.716  50.719  1.00  0.00    -0.305 N 
HETATM    2  C   UNL     1      27.389  41.081  50.760  1.00  0.00     0.321 C 
HETATM    3  N   UNL     1      27.155  41.511  52.047  1.00  0.00    -0.339 N 
HETATM    4  O   UNL     1      27.410  41.840  49.802  1.00  0.00    -0.247 OA
HETATM    5  H   UNL     1      27.137  39.205  51.488  1.00  0.00     0.171 HD
HETATM    6  H   UNL     1      27.512  40.934  52.793  1.00  0.00     0.164 HD
ENDROOT
BRANCH   3   7
HETATM    7  C   UNL     1      26.960  42.913  52.357  1.00  0.00     0.163 C 
BRANCH   7   8
HETATM    8  C   UNL     1      27.962  43.385  53.388  1.00  0.00    -0.029 A 
HETATM    9  C   UNL     1      27.926  44.693  53.951  1.00  0.00    -0.018 A 
HETATM   10  C   UNL     1      28.913  45.050  54.906  1.00  0.00    -0.025 A 
HETATM   11  C   UNL     1      26.960  45.671  53.619  1.00  0.00     0.013 A 
HETATM   12  C   UNL     1      28.900  46.327  55.491  1.00  0.00     0.012 A 
HETATM   13  C   UNL     1      29.905  44.127  55.268  1.00  0.00     0.012 A 
HETATM   14  C   UNL     1      27.930  47.265  55.146  1.00  0.00     0.001 A 
HETATM   15  C   UNL     1      26.961  46.938  54.208  1.00  0.00     0.001 A 
HETATM   16  C   UNL     1      29.942  42.857  54.702  1.00  0.00     0.002 A 
HETATM   17  C   UNL     1      28.981  42.489  53.768  1.00  0.00     0.010 A 
ENDBRANCH   7   8
ENDBRANCH   3   7
BRANCH   1  18
HETATM   18  C   UNL     1      27.928  38.974  49.612  1.00  0.00     0.095 A 
HETATM   19  C   UNL     1      29.121  38.283  49.543  1.00  0.00     0.107 A 
HETATM   20  O   UNL     1      29.222  37.671  48.335  1.00  0.00    -0.215 OA
HETATM   21  N   UNL     1      28.108  37.953  47.579  1.00  0.00    -0.131 NA
HETATM   22  C   UNL     1      27.331  38.740  48.339  1.00  0.00     0.087 A 
HETATM   23  C   UNL     1      26.069  39.253  47.754  1.00  0.00     0.075 C 
BRANCH  19  24
HETATM   24  C   UNL     1      30.255  38.056  50.471  1.00  0.00     0.065 C 
HETATM   25  C   UNL     1      29.922  37.007  51.517  1.00  0.00     0.012 C 
ENDBRANCH  19  24
ENDBRANCH   1  18
TORSDOF 4
ENDMDL
MODEL 6
REMARK VINA RESULT:      -8.7      2.308      3.616
REMARK  4 active torsions:
REMARK  status: ('A' for Active; 'I' for Inactive)
REMARK    1  A    between atoms: C_2  and  C_3 
REMARK    2  A    between atoms: C_8  and  N_9 
REMARK       I    between atoms: N_9  and  C_10 
REMARK       I    between atoms: C_10  and  N_11 
REMARK    3  A    between atoms: N_11  and  C_12 
REMARK    4  A    between atoms: C_12  and  C_13 
ROOT
HETATM    1  N   UNL     1      26.973  44.586  50.460  1.00  0.00    -0.305 N 
HETATM    2  C   UNL     1      27.138  43.917  51.650  1.00  0.00     0.321 C 
HETATM    3  N   UNL     1      28.437  44.018  52.093  1.00  0.00    -0.339 N 
HETATM    4  O   UNL     1      26.283  43.277  52.243  1.00  0.00    -0.247 OA
HETATM    5  H   UNL     1      27.812  44.733  49.920  1.00  0.00     0.171 HD
HETATM    6  H   UNL     1      28.963  44.823  51.791  1.00  0.00     0.164 HD
ENDROOT
BRANCH   3   7
HETATM    7  C   UNL     1      28.868  43.399  53.331  1.00  0.00     0.163 C 
BRANCH   7   8
HETATM    8  C   UNL     1      28.890  44.404  54.461  1.00  0.00    -0.029 A 
HETATM    9  C   UNL     1      29.790  44.303  55.561  1.00  0.00    -0.018 A 
HETATM   10  C   UNL     1      29.732  45.289  56.580  1.00  0.00    -0.025 A 
HETATM   11  C   UNL     1      30.749  43.274  55.707  1.00  0.00     0.013 A 
HETATM   12  C   UNL     1      30.614  45.228  57.672  1.00  0.00     0.012 A 
HETATM   13  C   UNL     1      28.795  46.329  56.498  1.00  0.00     0.012 A 
HETATM   14  C   UNL     1      31.551  44.203  57.782  1.00  0.00     0.001 A 
HETATM   15  C   UNL     1      31.617  43.225  56.801  1.00  0.00     0.001 A 
HETATM   16  C   UNL     1      27.910  46.412  55.427  1.00  0.00     0.002 A 
HETATM   17  C   UNL     1      27.955  45.457  54.419  1.00  0.00     0.010 A 
ENDBRANCH   7   8
ENDBRANCH   3   7
BRANCH   1  18
HETATM   18  C   UNL     1      25.767  44.804  49.809  1.00  0.00     0.095 A 
HETATM   19  C   UNL     1      25.105  46.015  49.832  1.00  0.00     0.107 A 
HETATM   20  O   UNL     1      23.951  45.915  49.124  1.00  0.00    -0.215 OA
HETATM   21  N   UNL     1      23.821  44.637  48.631  1.00  0.00    -0.131 NA
HETATM   22  C   UNL     1      24.905  43.965  49.045  1.00  0.00     0.087 A 
HETATM   23  C   UNL     1      25.010  42.526  48.705  1.00  0.00     0.075 C 
BRANCH  19  24
HETATM   24  C   UNL     1      25.382  47.349  50.416  1.00  0.00     0.065 C 
HETATM   25  C   UNL     1      26.498  48.065  49.675  1.00  0.00     0.012 C 
ENDBRANCH  19  24
ENDBRANCH   1  18
TORSDOF 4
ENDMDL
MODEL 7
REMARK VINA RESULT:      -8.7      2.101      2.872
REMARK  4 active torsions:
REMARK  status: ('A' for Active; 'I' for Inactive)
REMARK    1  A    between atoms: C_2  and  C_3 
REMARK    2  A    between atoms: C_8  and  N_9 
REMARK       I    between atoms: N_9  and  C_10 
REMARK       I    between atoms: C_10  and  N_11 
REMARK    3  A    between atoms: N_11  and  C_12 
REMARK    4  A    between atoms: C_12  and  C_13 
ROOT
HETATM    1  N   UNL     1      25.689  45.539  51.152  1.00  0.00    -0.305 N 
HETATM    2  C   UNL     1      25.756  45.295  52.503  1.00  0.00     0.321 C 
HETATM    3  N   UNL     1      26.902  45.834  53.044  1.00  0.00    -0.339 N 
HETATM    4  O   UNL     1      24.949  44.656  53.162  1.00  0.00    -0.247 OA
HETATM    5  H   UNL     1      26.569  45.732  50.697  1.00  0.00     0.171 HD
HETATM    6  H   UNL     1      27.303  46.626  52.566  1.00  0.00     0.164 HD
ENDROOT
BRANCH   3   7
HETATM    7  C   UNL     1      27.205  45.715  54.456  1.00  0.00     0.163 C 
BRANCH   7   8
HETATM    8  C   UNL     1      28.429  44.855  54.677  1.00  0.00    -0.029 A 
HETATM    9  C   UNL     1      29.251  44.972  55.835  1.00  0.00    -0.018 A 
HETATM   10  C   UNL     1      30.385  44.127  55.953  1.00  0.00    -0.025 A 
HETATM   11  C   UNL     1      29.008  45.884  56.888  1.00  0.00     0.013 A 
HETATM   12  C   UNL     1      31.209  44.206  57.088  1.00  0.00     0.012 A 
HETATM   13  C   UNL     1      30.685  43.209  54.936  1.00  0.00     0.012 A 
HETATM   14  C   UNL     1      30.938  45.112  58.110  1.00  0.00     0.001 A 
HETATM   15  C   UNL     1      29.839  45.953  58.010  1.00  0.00     0.001 A 
HETATM   16  C   UNL     1      29.885  43.111  53.801  1.00  0.00     0.002 A 
HETATM   17  C   UNL     1      28.769  43.929  53.671  1.00  0.00     0.010 A 
ENDBRANCH   7   8
ENDBRANCH   3   7
BRANCH   1  18
HETATM   18  C   UNL     1      24.610  45.260  50.326  1.00  0.00     0.095 A 
HETATM   19  C   UNL     1      23.871  46.238  49.692  1.00  0.00     0.107 A 
HETATM   20  O   UNL     1      22.875  45.661  48.973  1.00  0.00    -0.215 OA
HETATM   21  N   UNL     1      22.927  44.295  49.125  1.00  0.00    -0.131 NA
HETATM   22  C   UNL     1      23.963  44.050  49.942  1.00  0.00     0.087 A 
HETATM   23  C   UNL     1      24.229  42.645  50.334  1.00  0.00     0.075 C 
BRANCH  19  24
HETATM   24  C   UNL     1      23.943  47.717  49.611  1.00  0.00     0.065 C 
HETATM   25  C   UNL     1      22.790  48.292  48.808  1.00  0.00     0.012 C 
ENDBRANCH  19  24
ENDBRANCH   1  18
TORSDOF 4
ENDMDL
MODEL 8
REMARK VINA RESULT:      -8.6      4.873      6.159
REMARK  4 active torsions:
REMARK  status: ('A' for Active; 'I' for Inactive)
REMARK    1  A    between atoms: C_2  and  C_3 
REMARK    2  A    between atoms: C_8  and  N_9 
REMARK       I    between atoms: N_9  and  C_10 
REMARK       I    between atoms: C_10  and  N_11 
REMARK    3  A    between atoms: N_11  and  C_12 
REMARK    4  A    between atoms: C_12  and  C_13 
ROOT
HETATM    1  N   UNL     1      28.695  41.430  50.849  1.00  0.00    -0.305 N 
HETATM    2  C   UNL     1      28.991  41.375  52.190  1.00  0.00     0.321 C 
HETATM    3  N   UNL     1      29.796  42.429  52.560  1.00  0.00    -0.339 N 
HETATM    4  O   UNL     1      28.640  40.503  52.971  1.00  0.00    -0.247 OA
HETATM    5  H   UNL     1      29.337  41.961  50.280  1.00  0.00     0.171 HD
HETATM    6  H   UNL     1      29.735  43.267  52.003  1.00  0.00     0.164 HD
ENDROOT
BRANCH   3   7
HETATM    7  C   UNL     1      30.246  42.598  53.926  1.00  0.00     0.163 C 
BRANCH   7   8
HETATM    8  C   UNL     1      29.600  43.808  54.565  1.00  0.00    -0.029 A 
HETATM    9  C   UNL     1      30.019  44.327  55.824  1.00  0.00    -0.018 A 
HETATM   10  C   UNL     1      29.348  45.463  56.348  1.00  0.00    -0.025 A 
HETATM   11  C   UNL     1      31.072  43.782  56.595  1.00  0.00     0.013 A 
HETATM   12  C   UNL     1      29.744  46.009  57.581  1.00  0.00     0.012 A 
HETATM   13  C   UNL     1      28.288  46.043  55.636  1.00  0.00     0.012 A 
HETATM   14  C   UNL     1      30.789  45.451  58.312  1.00  0.00     0.001 A 
HETATM   15  C   UNL     1      31.452  44.335  57.820  1.00  0.00     0.001 A 
HETATM   16  C   UNL     1      27.876  45.520  54.414  1.00  0.00     0.002 A 
HETATM   17  C   UNL     1      28.524  44.411  53.884  1.00  0.00     0.010 A 
ENDBRANCH   7   8
ENDBRANCH   3   7
BRANCH   1  18
HETATM   18  C   UNL     1      27.801  40.609  50.177  1.00  0.00     0.095 A 
HETATM   19  C   UNL     1      26.567  41.039  49.734  1.00  0.00     0.107 A 
HETATM   20  O   UNL     1      25.916  40.010  49.134  1.00  0.00    -0.215 OA
HETATM   21  N   UNL     1      26.699  38.879  49.178  1.00  0.00    -0.131 NA
HETATM   22  C   UNL     1      27.829  39.232  49.809  1.00  0.00     0.087 A 
HETATM   23  C   UNL     1      28.850  38.186  50.055  1.00  0.00     0.075 C 
BRANCH  19  24
HETATM   24  C   UNL     1      25.841  42.331  49.749  1.00  0.00     0.065 C 
HETATM   25  C   UNL     1      25.357  42.687  51.144  1.00  0.00     0.012 C 
ENDBRANCH  19  24
ENDBRANCH   1  18
TORSDOF 4
ENDMDL
MODEL 9
REMARK VINA RESULT:      -8.5      2.895      4.331
REMARK  4 active torsions:
REMARK  status: ('A' for Active; 'I' for Inactive)
REMARK    1  A    between atoms: C_2  and  C_3 
REMARK    2  A    between atoms: C_8  and  N_9 
REMARK       I    between atoms: N_9  and  C_10 
REMARK       I    between atoms: C_10  and  N_11 
REMARK    3  A    between atoms: N_11  and  C_12 
REMARK    4  A    between atoms: C_12  and  C_13 
ROOT
HETATM    1  N   UNL     1      27.370  43.931  50.493  1.00  0.00    -0.305 N 
HETATM    2  C   UNL     1      27.576  43.358  51.725  1.00  0.00     0.321 C 
HETATM    3  N   UNL     1      28.827  43.666  52.209  1.00  0.00    -0.339 N 
HETATM    4  O   UNL     1      26.794  42.635  52.325  1.00  0.00    -0.247 OA
HETATM    5  H   UNL     1      28.203  44.168  49.976  1.00  0.00     0.171 HD
HETATM    6  H   UNL     1      29.247  44.521  51.878  1.00  0.00     0.164 HD
ENDROOT
BRANCH   3   7
HETATM    7  C   UNL     1      29.286  43.182  53.495  1.00  0.00     0.163 C 
BRANCH   7   8
HETATM    8  C   UNL     1      29.168  44.258  54.553  1.00  0.00    -0.029 A 
HETATM    9  C   UNL     1      29.992  44.285  55.715  1.00  0.00    -0.018 A 
HETATM   10  C   UNL     1      29.804  45.329  56.657  1.00  0.00    -0.025 A 
HETATM   11  C   UNL     1      30.998  43.331  55.995  1.00  0.00     0.013 A 
HETATM   12  C   UNL     1      30.608  45.395  57.808  1.00  0.00     0.012 A 
HETATM   13  C   UNL     1      28.815  46.300  56.441  1.00  0.00     0.012 A 
HETATM   14  C   UNL     1      31.594  44.442  58.050  1.00  0.00     0.001 A 
HETATM   15  C   UNL     1      31.788  43.408  57.145  1.00  0.00     0.001 A 
HETATM   16  C   UNL     1      28.004  46.257  55.311  1.00  0.00     0.002 A 
HETATM   17  C   UNL     1      28.178  45.243  54.376  1.00  0.00     0.010 A 
ENDBRANCH   7   8
ENDBRANCH   3   7
BRANCH   1  18
HETATM   18  C   UNL     1      26.175  43.940  49.788  1.00  0.00     0.095 A 
HETATM   19  C   UNL     1      25.751  42.884  49.008  1.00  0.00     0.107 A 
HETATM   20  O   UNL     1      24.561  43.193  48.433  1.00  0.00    -0.215 OA
HETATM   21  N   UNL     1      24.181  44.461  48.810  1.00  0.00    -0.131 NA
HETATM   22  C   UNL     1      25.150  44.915  49.618  1.00  0.00     0.087 A 
HETATM   23  C   UNL     1      25.035  46.298  50.139  1.00  0.00     0.075 C 
BRANCH  19  24
HETATM   24  C   UNL     1      26.279  41.534  48.697  1.00  0.00     0.065 C 
HETATM   25  C   UNL     1      25.882  40.517  49.752  1.00  0.00     0.012 C 
ENDBRANCH  19  24
ENDBRANCH   1  18
TORSDOF 4
ENDMDL
MODEL 10
REMARK VINA RESULT:      -8.4      2.492      3.422
REMARK  4 active torsions:
REMARK  status: ('A' for Active; 'I' for Inactive)
REMARK    1  A    between atoms: C_2  and  C_3 
REMARK    2  A    between atoms: C_8  and  N_9 
REMARK       I    between atoms: N_9  and  C_10 
REMARK       I    between atoms: C_10  and  N_11 
REMARK    3  A    between atoms: N_11  and  C_12 
REMARK    4  A    between atoms: C_12  and  C_13 
ROOT
HETATM    1  N   UNL     1      25.342  44.910  49.962  1.00  0.00    -0.305 N 
HETATM    2  C   UNL     1      25.350  44.393  51.236  1.00  0.00     0.321 C 
HETATM    3  N   UNL     1      26.638  44.178  51.671  1.00  0.00    -0.339 N 
HETATM    4  O   UNL     1      24.368  44.112  51.907  1.00  0.00    -0.247 OA
HETATM    5  H   UNL     1      26.170  44.735  49.413  1.00  0.00     0.171 HD
HETATM    6  H   UNL     1      27.360  44.750  51.261  1.00  0.00     0.164 HD
ENDROOT
BRANCH   3   7
HETATM    7  C   UNL     1      26.916  43.639  52.987  1.00  0.00     0.163 C 
BRANCH   7   8
HETATM    8  C   UNL     1      27.481  44.703  53.901  1.00  0.00    -0.029 A 
HETATM    9  C   UNL     1      28.667  44.508  54.667  1.00  0.00    -0.018 A 
HETATM   10  C   UNL     1      29.118  45.561  55.503  1.00  0.00    -0.025 A 
HETATM   11  C   UNL     1      29.435  43.320  54.647  1.00  0.00     0.013 A 
HETATM   12  C   UNL     1      30.291  45.408  56.262  1.00  0.00     0.012 A 
HETATM   13  C   UNL     1      28.394  46.760  55.575  1.00  0.00     0.012 A 
HETATM   14  C   UNL     1      31.027  44.226  56.214  1.00  0.00     0.001 A 
HETATM   15  C   UNL     1      30.598  43.181  55.408  1.00  0.00     0.001 A 
HETATM   16  C   UNL     1      27.228  46.937  54.835  1.00  0.00     0.002 A 
HETATM   17  C   UNL     1      26.774  45.917  54.008  1.00  0.00     0.010 A 
ENDBRANCH   7   8
ENDBRANCH   3   7
BRANCH   1  18
HETATM   18  C   UNL     1      24.227  45.371  49.278  1.00  0.00     0.095 A 
HETATM   19  C   UNL     1      23.484  44.581  48.424  1.00  0.00     0.107 A 
HETATM   20  O   UNL     1      22.473  45.314  47.892  1.00  0.00    -0.215 OA
HETATM   21  N   UNL     1      22.533  46.602  48.372  1.00  0.00    -0.131 NA
HETATM   22  C   UNL     1      23.588  46.643  49.199  1.00  0.00     0.087 A 
HETATM   23  C   UNL     1      23.935  47.940  49.828  1.00  0.00     0.075 C 
BRANCH  19  24
HETATM   24  C   UNL     1      23.536  43.162  48.001  1.00  0.00     0.065 C 
HETATM   25  C   UNL     1      23.142  42.224  49.128  1.00  0.00     0.012 C 
ENDBRANCH  19  24
ENDBRANCH   1  18
TORSDOF 4
ENDMDL
