MODEL 1
REMARK VINA RESULT:     -10.4      0.000      0.000
REMARK  5 active torsions:
REMARK  status: ('A' for Active; 'I' for Inactive)
REMARK    1  A    between atoms: C_5  and  C_6 
REMARK    2  A    between atoms: C_11  and  C_12 
REMARK       I    between atoms: C_12  and  N_13 
REMARK    3  A    between atoms: N_13  and  C_14 
REMARK    4  A    between atoms: C_16  and  O_17 
REMARK    5  A    between atoms: C_23  and  C_24 
ROOT
HETATM    1  C   UNL     1      27.286  43.724  53.144  1.00  0.00     0.118 C 
HETATM    2  N   UNL     1      26.457  44.927  53.226  1.00  0.00    -0.366 N 
HETATM    3  C   UNL     1      25.976  45.555  52.135  1.00  0.00     0.123 A 
HETATM    4  N   UNL     1      26.098  45.006  50.891  1.00  0.00    -0.240 N 
HETATM    5  N   UNL     1      25.715  45.820  49.891  1.00  0.00    -0.165 NA
HETATM    6  C   UNL     1      25.200  46.890  50.545  1.00  0.00     0.148 A 
HETATM    7  C   UNL     1      25.332  46.749  51.955  1.00  0.00     0.089 A 
HETATM    8  C   UNL     1      26.704  43.712  50.653  1.00  0.00     0.221 C 
HETATM    9  C   UNL     1      27.795  43.473  51.708  1.00  0.00     0.066 C 
HETATM   10  H   UNL     1      26.359  45.328  54.159  1.00  0.00     0.161 HD
ENDROOT
BRANCH   6  11
HETATM   11  C   UNL     1      24.627  48.043  49.826  1.00  0.00     0.276 C 
HETATM   12  N   UNL     1      23.250  47.966  49.753  1.00  0.00    -0.322 N 
HETATM   13  H   UNL     1      22.871  47.127  50.187  1.00  0.00     0.169 HD
HETATM   14  O   UNL     1      25.339  48.919  49.347  1.00  0.00    -0.266 OA
BRANCH  12  15
HETATM   15  C   UNL     1      22.355  48.861  49.146  1.00  0.00     0.037 A 
HETATM   16  C   UNL     1      21.388  48.478  48.214  1.00  0.00     0.066 A 
HETATM   17  C   UNL     1      20.547  49.439  47.655  1.00  0.00     0.067 A 
HETATM   18  C   UNL     1      20.646  50.778  48.015  1.00  0.00     0.036 A 
HETATM   19  C   UNL     1      21.605  51.166  48.946  1.00  0.00     0.005 A 
HETATM   20  C   UNL     1      22.460  50.212  49.505  1.00  0.00     0.029 A 
BRANCH  17  21
HETATM   21  O   UNL     1      19.601  49.100  46.731  1.00  0.00    -0.361 OA
HETATM   22  H   UNL     1      19.738  48.171  46.481  1.00  0.00     0.217 HD
ENDBRANCH  17  21
ENDBRANCH  12  15
ENDBRANCH   6  11
BRANCH   8  23
HETATM   23  C   UNL     1      25.643  42.636  50.653  1.00  0.00     0.409 C 
HETATM   24  F   UNL     1      24.573  42.970  51.407  1.00  0.00    -0.169 F 
HETATM   25  F   UNL     1      25.180  42.452  49.388  1.00  0.00    -0.169 F 
HETATM   26  F   UNL     1      26.089  41.436  51.076  1.00  0.00    -0.169 F 
ENDBRANCH   8  23
BRANCH   1  27
HETATM   27  C   UNL     1      28.450  43.865  54.110  1.00  0.00    -0.035 A 
HETATM   28  C   UNL     1      28.558  44.989  54.940  1.00  0.00     0.010 A 
HETATM   29  C   UNL     1      29.628  45.112  55.833  1.00  0.00     0.007 A 
HETATM   30  C   UNL     1      30.614  44.123  55.907  1.00  0.00    -0.062 A 
HETATM   31  C   UNL     1      31.746  44.235  56.885  1.00  0.00     0.048 C 
HETATM   32  C   UNL     1      30.505  42.994  55.088  1.00  0.00     0.007 A 
HETATM   33  C   UNL     1      29.440  42.871  54.196  1.00  0.00     0.010 A 
ENDBRANCH   1  27
TORSDOF 5
ENDMDL
MODEL 2
REMARK VINA RESULT:      -9.7      1.587      2.156
REMARK  5 active torsions:
REMARK  status: ('A' for Active; 'I' for Inactive)
REMARK    1  A    between atoms: C_5  and  C_6 
REMARK    2  A    between atoms: C_11  and  C_12 
REMARK       I    between atoms: C_12  and  N_13 
REMARK    3  A    between atoms: N_13  and  C_14 
REMARK    4  A    between atoms: C_16  and  O_17 
REMARK    5  A    between atoms: C_23  and  C_24 
ROOT
HETATM    1  C   UNL     1      28.135  43.421  53.675  1.00  0.00     0.118 C 
HETATM    2  N   UNL     1      26.798  43.997  53.529  1.00  0.00    -0.366 N 
HETATM    3  C   UNL     1      26.274  44.324  52.331  1.00  0.00     0.123 A 
HETATM    4  N   UNL     1      26.898  43.980  51.167  1.00  0.00    -0.240 N 
HETATM    5  N   UNL     1      26.341  44.512  50.065  1.00  0.00    -0.165 NA
HETATM    6  C   UNL     1      25.226  45.117  50.546  1.00  0.00     0.148 A 
HETATM    7  C   UNL     1      25.144  45.003  51.962  1.00  0.00     0.089 A 
HETATM    8  C   UNL     1      28.128  43.215  51.126  1.00  0.00     0.221 C 
HETATM    9  C   UNL     1      28.959  43.542  52.375  1.00  0.00     0.066 C 
HETATM   10  H   UNL     1      26.330  44.243  54.401  1.00  0.00     0.161 HD
ENDROOT
BRANCH   6  11
HETATM   11  C   UNL     1      24.279  45.823  49.664  1.00  0.00     0.276 C 
HETATM   12  N   UNL     1      24.409  47.194  49.768  1.00  0.00    -0.322 N 
HETATM   13  H   UNL     1      25.116  47.481  50.442  1.00  0.00     0.169 HD
HETATM   14  O   UNL     1      23.477  45.214  48.965  1.00  0.00    -0.266 OA
BRANCH  12  15
HETATM   15  C   UNL     1      23.685  48.194  49.101  1.00  0.00     0.037 A 
HETATM   16  C   UNL     1      22.320  48.105  48.816  1.00  0.00     0.066 A 
HETATM   17  C   UNL     1      21.684  49.145  48.140  1.00  0.00     0.067 A 
HETATM   18  C   UNL     1      22.383  50.280  47.748  1.00  0.00     0.036 A 
HETATM   19  C   UNL     1      23.743  50.378  48.031  1.00  0.00     0.005 A 
HETATM   20  C   UNL     1      24.392  49.336  48.700  1.00  0.00     0.029 A 
BRANCH  17  21
HETATM   21  O   UNL     1      20.356  49.082  47.834  1.00  0.00    -0.361 OA
HETATM   22  H   UNL     1      19.852  49.431  48.588  1.00  0.00     0.217 HD
ENDBRANCH  17  21
ENDBRANCH  12  15
ENDBRANCH   6  11
BRANCH   8  23
HETATM   23  C   UNL     1      27.817  41.742  50.997  1.00  0.00     0.409 C 
HETATM   24  F   UNL     1      28.622  40.977  51.766  1.00  0.00    -0.169 F 
HETATM   25  F   UNL     1      26.546  41.506  51.418  1.00  0.00    -0.169 F 
HETATM   26  F   UNL     1      27.894  41.281  49.732  1.00  0.00    -0.169 F 
ENDBRANCH   8  23
BRANCH   1  27
HETATM   27  C   UNL     1      28.843  44.112  54.827  1.00  0.00    -0.035 A 
HETATM   28  C   UNL     1      30.074  43.636  55.298  1.00  0.00     0.010 A 
HETATM   29  C   UNL     1      30.727  44.278  56.356  1.00  0.00     0.007 A 
HETATM   30  C   UNL     1      30.160  45.401  56.968  1.00  0.00    -0.062 A 
HETATM   31  C   UNL     1      30.871  46.113  58.080  1.00  0.00     0.048 C 
HETATM   32  C   UNL     1      28.938  45.887  56.495  1.00  0.00     0.007 A 
HETATM   33  C   UNL     1      28.284  45.245  55.443  1.00  0.00     0.010 A 
ENDBRANCH   1  27
TORSDOF 5
ENDMDL
MODEL 3
REMARK VINA RESULT:      -9.6      2.866      9.138
REMARK  5 active torsions:
REMARK  status: ('A' for Active; 'I' for Inactive)
REMARK    1  A    between atoms: C_5  and  C_6 
REMARK    2  A    between atoms: C_11  and  C_12 
REMARK       I    between atoms: C_12  and  N_13 
REMARK    3  A    between atoms: N_13  and  C_14 
REMARK    4  A    between atoms: C_16  and  O_17 
REMARK    5  A    between atoms: C_23  and  C_24 
ROOT
HETATM    1  C   UNL     1      23.647  46.819  49.080  1.00  0.00     0.118 C 
HETATM    2  N   UNL     1      24.770  47.079  49.980  1.00  0.00    -0.366 N 
HETATM    3  C   UNL     1      25.155  46.208  50.934  1.00  0.00     0.123 A 
HETATM    4  N   UNL     1      24.621  44.954  51.005  1.00  0.00    -0.240 N 
HETATM    5  N   UNL     1      24.984  44.262  52.099  1.00  0.00    -0.165 NA
HETATM    6  C   UNL     1      25.902  45.071  52.684  1.00  0.00     0.148 A 
HETATM    7  C   UNL     1      26.046  46.293  51.969  1.00  0.00     0.089 A 
HETATM    8  C   UNL     1      23.646  44.454  50.056  1.00  0.00     0.221 C 
HETATM    9  C   UNL     1      22.789  45.627  49.560  1.00  0.00     0.066 C 
HETATM   10  H   UNL     1      25.174  48.013  49.917  1.00  0.00     0.161 HD
ENDROOT
BRANCH   6  11
HETATM   11  C   UNL     1      26.598  44.692  53.927  1.00  0.00     0.276 C 
HETATM   12  N   UNL     1      27.942  45.004  53.876  1.00  0.00    -0.322 N 
HETATM   13  H   UNL     1      28.224  45.422  52.991  1.00  0.00     0.169 HD
HETATM   14  O   UNL     1      26.008  44.142  54.851  1.00  0.00    -0.266 OA
BRANCH  12  15
HETATM   15  C   UNL     1      28.928  44.791  54.853  1.00  0.00     0.037 A 
HETATM   16  C   UNL     1      29.145  45.648  55.934  1.00  0.00     0.066 A 
HETATM   17  C   UNL     1      30.155  45.361  56.852  1.00  0.00     0.067 A 
HETATM   18  C   UNL     1      30.948  44.228  56.717  1.00  0.00     0.036 A 
HETATM   19  C   UNL     1      30.734  43.368  55.644  1.00  0.00     0.005 A 
HETATM   20  C   UNL     1      29.731  43.651  54.712  1.00  0.00     0.029 A 
BRANCH  17  21
HETATM   21  O   UNL     1      30.402  46.186  57.911  1.00  0.00    -0.361 OA
HETATM   22  H   UNL     1      29.613  46.200  58.478  1.00  0.00     0.217 HD
ENDBRANCH  17  21
ENDBRANCH  12  15
ENDBRANCH   6  11
BRANCH   8  23
HETATM   23  C   UNL     1      24.347  43.724  48.933  1.00  0.00     0.409 C 
HETATM   24  F   UNL     1      25.665  44.013  48.875  1.00  0.00    -0.169 F 
HETATM   25  F   UNL     1      24.255  42.383  49.135  1.00  0.00    -0.169 F 
HETATM   26  F   UNL     1      23.817  43.966  47.717  1.00  0.00    -0.169 F 
ENDBRANCH   8  23
BRANCH   1  27
HETATM   27  C   UNL     1      22.804  48.078  48.971  1.00  0.00    -0.035 A 
HETATM   28  C   UNL     1      23.399  49.345  49.052  1.00  0.00     0.010 A 
HETATM   29  C   UNL     1      22.621  50.503  48.945  1.00  0.00     0.007 A 
HETATM   30  C   UNL     1      21.236  50.419  48.766  1.00  0.00    -0.062 A 
HETATM   31  C   UNL     1      20.403  51.657  48.619  1.00  0.00     0.048 C 
HETATM   32  C   UNL     1      20.640  49.158  48.674  1.00  0.00     0.007 A 
HETATM   33  C   UNL     1      21.414  48.002  48.783  1.00  0.00     0.010 A 
ENDBRANCH   1  27
TORSDOF 5
ENDMDL
MODEL 4
REMARK VINA RESULT:      -9.4      5.954     12.265
REMARK  5 active torsions:
REMARK  status: ('A' for Active; 'I' for Inactive)
REMARK    1  A    between atoms: C_5  and  C_6 
REMARK    2  A    between atoms: C_11  and  C_12 
REMARK       I    between atoms: C_12  and  N_13 
REMARK    3  A    between atoms: N_13  and  C_14 
REMARK    4  A    between atoms: C_16  and  O_17 
REMARK    5  A    between atoms: C_23  and  C_24 
ROOT
HETATM    1  C   UNL     1      16.327  51.902  47.766  1.00  0.00     0.118 C 
HETATM    2  N   UNL     1      17.645  52.482  48.028  1.00  0.00    -0.366 N 
HETATM    3  C   UNL     1      18.724  51.731  48.325  1.00  0.00     0.123 A 
HETATM    4  N   UNL     1      18.686  50.370  48.233  1.00  0.00    -0.240 N 
HETATM    5  N   UNL     1      19.782  49.755  48.713  1.00  0.00    -0.165 NA
HETATM    6  C   UNL     1      20.612  50.787  49.001  1.00  0.00     0.148 A 
HETATM    7  C   UNL     1      19.986  52.041  48.753  1.00  0.00     0.089 A 
HETATM    8  C   UNL     1      17.519  49.639  47.780  1.00  0.00     0.221 C 
HETATM    9  C   UNL     1      16.258  50.417  48.184  1.00  0.00     0.066 C 
HETATM   10  H   UNL     1      17.672  53.499  48.085  1.00  0.00     0.161 HD
ENDROOT
BRANCH   6  11
HETATM   11  C   UNL     1      21.967  50.572  49.540  1.00  0.00     0.276 C 
HETATM   12  N   UNL     1      22.726  49.769  48.710  1.00  0.00    -0.322 N 
HETATM   13  H   UNL     1      22.220  49.452  47.886  1.00  0.00     0.169 HD
HETATM   14  O   UNL     1      22.314  51.049  50.615  1.00  0.00    -0.266 OA
BRANCH  12  15
HETATM   15  C   UNL     1      24.049  49.335  48.884  1.00  0.00     0.037 A 
HETATM   16  C   UNL     1      25.160  50.006  48.366  1.00  0.00     0.066 A 
HETATM   17  C   UNL     1      26.439  49.496  48.582  1.00  0.00     0.067 A 
HETATM   18  C   UNL     1      26.634  48.330  49.313  1.00  0.00     0.036 A 
HETATM   19  C   UNL     1      25.532  47.658  49.835  1.00  0.00     0.005 A 
HETATM   20  C   UNL     1      24.245  48.156  49.617  1.00  0.00     0.029 A 
BRANCH  17  21
HETATM   21  O   UNL     1      27.543  50.120  48.077  1.00  0.00    -0.361 OA
HETATM   22  H   UNL     1      27.362  50.362  47.154  1.00  0.00     0.217 HD
ENDBRANCH  17  21
ENDBRANCH  12  15
ENDBRANCH   6  11
BRANCH   8  23
HETATM   23  C   UNL     1      17.608  49.397  46.290  1.00  0.00     0.409 C 
HETATM   24  F   UNL     1      18.335  50.345  45.658  1.00  0.00    -0.169 F 
HETATM   25  F   UNL     1      18.232  48.213  46.057  1.00  0.00    -0.169 F 
HETATM   26  F   UNL     1      16.406  49.324  45.682  1.00  0.00    -0.169 F 
ENDBRANCH   8  23
BRANCH   1  27
HETATM   27  C   UNL     1      15.278  52.717  48.503  1.00  0.00    -0.035 A 
HETATM   28  C   UNL     1      14.518  53.682  47.828  1.00  0.00     0.010 A 
HETATM   29  C   UNL     1      13.549  54.427  48.509  1.00  0.00     0.007 A 
HETATM   30  C   UNL     1      13.326  54.229  49.876  1.00  0.00    -0.062 A 
HETATM   31  C   UNL     1      12.266  55.001  50.603  1.00  0.00     0.048 C 
HETATM   32  C   UNL     1      14.074  53.259  50.551  1.00  0.00     0.007 A 
HETATM   33  C   UNL     1      15.043  52.519  49.875  1.00  0.00     0.010 A 
ENDBRANCH   1  27
TORSDOF 5
ENDMDL
MODEL 5
REMARK VINA RESULT:      -9.3      2.448      2.805
REMARK  5 active torsions:
REMARK  status: ('A' for Active; 'I' for Inactive)
REMARK    1  A    between atoms: C_5  and  C_6 
REMARK    2  A    between atoms: C_11  and  C_12 
REMARK       I    between atoms: C_12  and  N_13 
REMARK    3  A    between atoms: N_13  and  C_14 
REMARK    4  A    between atoms: C_16  and  O_17 
REMARK    5  A    between atoms: C_23  and  C_24 
ROOT
HETATM    1  C   UNL     1      27.967  43.543  53.615  1.00  0.00     0.118 C 
HETATM    2  N   UNL     1      26.604  44.070  53.542  1.00  0.00    -0.366 N 
HETATM    3  C   UNL     1      26.022  44.424  52.379  1.00  0.00     0.123 A 
HETATM    4  N   UNL     1      26.615  44.152  51.180  1.00  0.00    -0.240 N 
HETATM    5  N   UNL     1      25.995  44.704  50.122  1.00  0.00    -0.165 NA
HETATM    6  C   UNL     1      24.877  45.243  50.668  1.00  0.00     0.148 A 
HETATM    7  C   UNL     1      24.854  45.070  52.080  1.00  0.00     0.089 A 
HETATM    8  C   UNL     1      27.871  43.440  51.062  1.00  0.00     0.221 C 
HETATM    9  C   UNL     1      28.736  43.750  52.292  1.00  0.00     0.066 C 
HETATM   10  H   UNL     1      26.161  44.262  54.440  1.00  0.00     0.161 HD
ENDROOT
BRANCH   6  11
HETATM   11  C   UNL     1      23.870  45.945  49.851  1.00  0.00     0.276 C 
HETATM   12  N   UNL     1      22.903  45.080  49.378  1.00  0.00    -0.322 N 
HETATM   13  H   UNL     1      23.058  44.112  49.656  1.00  0.00     0.169 HD
HETATM   14  O   UNL     1      23.948  47.148  49.629  1.00  0.00    -0.266 OA
BRANCH  12  15
HETATM   15  C   UNL     1      21.794  45.366  48.566  1.00  0.00     0.037 A 
HETATM   16  C   UNL     1      20.473  45.111  48.940  1.00  0.00     0.066 A 
HETATM   17  C   UNL     1      19.433  45.421  48.064  1.00  0.00     0.067 A 
HETATM   18  C   UNL     1      19.686  45.990  46.822  1.00  0.00     0.036 A 
HETATM   19  C   UNL     1      21.001  46.250  46.443  1.00  0.00     0.005 A 
HETATM   20  C   UNL     1      22.051  45.934  47.310  1.00  0.00     0.029 A 
BRANCH  17  21
HETATM   21  O   UNL     1      18.133  45.172  48.394  1.00  0.00    -0.361 OA
HETATM   22  H   UNL     1      17.579  45.867  48.001  1.00  0.00     0.217 HD
ENDBRANCH  17  21
ENDBRANCH  12  15
ENDBRANCH   6  11
BRANCH   8  23
HETATM   23  C   UNL     1      27.613  41.961  50.884  1.00  0.00     0.409 C 
HETATM   24  F   UNL     1      26.397  41.593  51.343  1.00  0.00    -0.169 F 
HETATM   25  F   UNL     1      27.635  41.650  49.561  1.00  0.00    -0.169 F 
HETATM   26  F   UNL     1      28.534  41.175  51.478  1.00  0.00    -0.169 F 
ENDBRANCH   8  23
BRANCH   1  27
HETATM   27  C   UNL     1      28.691  44.216  54.768  1.00  0.00    -0.035 A 
HETATM   28  C   UNL     1      29.952  43.764  55.182  1.00  0.00     0.010 A 
HETATM   29  C   UNL     1      30.620  44.390  56.240  1.00  0.00     0.007 A 
HETATM   30  C   UNL     1      30.038  45.471  56.911  1.00  0.00    -0.062 A 
HETATM   31  C   UNL     1      30.763  46.166  58.025  1.00  0.00     0.048 C 
HETATM   32  C   UNL     1      28.786  45.933  56.496  1.00  0.00     0.007 A 
HETATM   33  C   UNL     1      28.118  45.308  55.443  1.00  0.00     0.010 A 
ENDBRANCH   1  27
TORSDOF 5
ENDMDL
MODEL 6
REMARK VINA RESULT:      -9.1      6.905      9.965
REMARK  5 active torsions:
REMARK  status: ('A' for Active; 'I' for Inactive)
REMARK    1  A    between atoms: C_5  and  C_6 
REMARK    2  A    between atoms: C_11  and  C_12 
REMARK       I    between atoms: C_12  and  N_13 
REMARK    3  A    between atoms: N_13  and  C_14 
REMARK    4  A    between atoms: C_16  and  O_17 
REMARK    5  A    between atoms: C_23  and  C_24 
ROOT
HETATM    1  C   UNL     1      20.589  48.917  49.204  1.00  0.00     0.118 C 
HETATM    2  N   UNL     1      20.022  50.056  49.926  1.00  0.00    -0.366 N 
HETATM    3  C   UNL     1      18.811  50.572  49.637  1.00  0.00     0.123 A 
HETATM    4  N   UNL     1      17.969  49.952  48.759  1.00  0.00    -0.240 N 
HETATM    5  N   UNL     1      16.872  50.666  48.452  1.00  0.00    -0.165 NA
HETATM    6  C   UNL     1      16.958  51.735  49.282  1.00  0.00     0.148 A 
HETATM    7  C   UNL     1      18.155  51.698  50.051  1.00  0.00     0.089 A 
HETATM    8  C   UNL     1      18.286  48.695  48.112  1.00  0.00     0.221 C 
HETATM    9  C   UNL     1      19.805  48.610  47.908  1.00  0.00     0.066 C 
HETATM   10  H   UNL     1      20.650  50.509  50.589  1.00  0.00     0.161 HD
ENDROOT
BRANCH   6  11
HETATM   11  C   UNL     1      15.929  52.790  49.305  1.00  0.00     0.276 C 
HETATM   12  N   UNL     1      16.017  53.565  50.446  1.00  0.00    -0.322 N 
HETATM   13  H   UNL     1      16.758  53.267  51.077  1.00  0.00     0.169 HD
HETATM   14  O   UNL     1      15.103  52.902  48.406  1.00  0.00    -0.266 OA
BRANCH  12  15
HETATM   15  C   UNL     1      15.215  54.651  50.830  1.00  0.00     0.037 A 
HETATM   16  C   UNL     1      14.127  54.541  51.699  1.00  0.00     0.066 A 
HETATM   17  C   UNL     1      13.380  55.674  52.018  1.00  0.00     0.067 A 
HETATM   18  C   UNL     1      13.702  56.919  51.492  1.00  0.00     0.036 A 
HETATM   19  C   UNL     1      14.787  57.036  50.628  1.00  0.00     0.005 A 
HETATM   20  C   UNL     1      15.537  55.905  50.294  1.00  0.00     0.029 A 
BRANCH  17  21
HETATM   21  O   UNL     1      12.302  55.598  52.853  1.00  0.00    -0.361 OA
HETATM   22  H   UNL     1      11.869  54.739  52.716  1.00  0.00     0.217 HD
ENDBRANCH  17  21
ENDBRANCH  12  15
ENDBRANCH   6  11
BRANCH   8  23
HETATM   23  C   UNL     1      17.738  47.543  48.924  1.00  0.00     0.409 C 
HETATM   24  F   UNL     1      17.650  47.838  50.240  1.00  0.00    -0.169 F 
HETATM   25  F   UNL     1      16.477  47.253  48.510  1.00  0.00    -0.169 F 
HETATM   26  F   UNL     1      18.453  46.407  48.803  1.00  0.00    -0.169 F 
ENDBRANCH   8  23
BRANCH   1  27
HETATM   27  C   UNL     1      22.047  49.209  48.893  1.00  0.00    -0.035 A 
HETATM   28  C   UNL     1      22.403  50.317  48.112  1.00  0.00     0.010 A 
HETATM   29  C   UNL     1      23.747  50.587  47.833  1.00  0.00     0.007 A 
HETATM   30  C   UNL     1      24.759  49.753  48.320  1.00  0.00    -0.062 A 
HETATM   31  C   UNL     1      26.203  50.056  48.051  1.00  0.00     0.048 C 
HETATM   32  C   UNL     1      24.410  48.652  49.109  1.00  0.00     0.007 A 
HETATM   33  C   UNL     1      23.070  48.380  49.385  1.00  0.00     0.010 A 
ENDBRANCH   1  27
TORSDOF 5
ENDMDL
MODEL 7
REMARK VINA RESULT:      -9.0      4.643      7.738
REMARK  5 active torsions:
REMARK  status: ('A' for Active; 'I' for Inactive)
REMARK    1  A    between atoms: C_5  and  C_6 
REMARK    2  A    between atoms: C_11  and  C_12 
REMARK       I    between atoms: C_12  and  N_13 
REMARK    3  A    between atoms: N_13  and  C_14 
REMARK    4  A    between atoms: C_16  and  O_17 
REMARK    5  A    between atoms: C_23  and  C_24 
ROOT
HETATM    1  C   UNL     1      27.878  44.511  53.115  1.00  0.00     0.118 C 
HETATM    2  N   UNL     1      28.312  43.755  51.939  1.00  0.00    -0.366 N 
HETATM    3  C   UNL     1      27.470  42.995  51.212  1.00  0.00     0.123 A 
HETATM    4  N   UNL     1      26.123  43.021  51.433  1.00  0.00    -0.240 N 
HETATM    5  N   UNL     1      25.434  42.096  50.742  1.00  0.00    -0.165 NA
HETATM    6  C   UNL     1      26.379  41.544  49.941  1.00  0.00     0.148 A 
HETATM    7  C   UNL     1      27.664  42.098  50.198  1.00  0.00     0.089 A 
HETATM    8  C   UNL     1      25.499  43.880  52.420  1.00  0.00     0.221 C 
HETATM    9  C   UNL     1      26.473  44.081  53.589  1.00  0.00     0.066 C 
HETATM   10  H   UNL     1      29.317  43.747  51.771  1.00  0.00     0.161 HD
ENDROOT
BRANCH   6  11
HETATM   11  C   UNL     1      26.057  40.477  48.975  1.00  0.00     0.276 C 
HETATM   12  N   UNL     1      27.140  39.651  48.747  1.00  0.00    -0.322 N 
HETATM   13  H   UNL     1      27.972  39.926  49.265  1.00  0.00     0.169 HD
HETATM   14  O   UNL     1      24.953  40.400  48.449  1.00  0.00    -0.266 OA
BRANCH  12  15
HETATM   15  C   UNL     1      27.228  38.539  47.894  1.00  0.00     0.037 A 
HETATM   16  C   UNL     1      26.936  37.232  48.291  1.00  0.00     0.066 A 
HETATM   17  C   UNL     1      27.060  36.187  47.376  1.00  0.00     0.067 A 
HETATM   18  C   UNL     1      27.463  36.422  46.067  1.00  0.00     0.036 A 
HETATM   19  C   UNL     1      27.753  37.723  45.664  1.00  0.00     0.005 A 
HETATM   20  C   UNL     1      27.641  38.777  46.575  1.00  0.00     0.029 A 
BRANCH  17  21
HETATM   21  O   UNL     1      26.796  34.898  47.736  1.00  0.00    -0.361 OA
HETATM   22  H   UNL     1      27.633  34.473  47.987  1.00  0.00     0.217 HD
ENDBRANCH  17  21
ENDBRANCH  12  15
ENDBRANCH   6  11
BRANCH   8  23
HETATM   23  C   UNL     1      25.075  45.181  51.778  1.00  0.00     0.409 C 
HETATM   24  F   UNL     1      25.864  45.521  50.735  1.00  0.00    -0.169 F 
HETATM   25  F   UNL     1      23.816  45.057  51.284  1.00  0.00    -0.169 F 
HETATM   26  F   UNL     1      25.051  46.223  52.634  1.00  0.00    -0.169 F 
ENDBRANCH   8  23
BRANCH   1  27
HETATM   27  C   UNL     1      28.901  44.324  54.222  1.00  0.00    -0.035 A 
HETATM   28  C   UNL     1      29.054  45.292  55.224  1.00  0.00     0.010 A 
HETATM   29  C   UNL     1      29.993  45.114  56.246  1.00  0.00     0.007 A 
HETATM   30  C   UNL     1      30.800  43.973  56.283  1.00  0.00    -0.062 A 
HETATM   31  C   UNL     1      31.785  43.762  57.394  1.00  0.00     0.048 C 
HETATM   32  C   UNL     1      30.643  42.999  55.292  1.00  0.00     0.007 A 
HETATM   33  C   UNL     1      29.710  43.176  54.271  1.00  0.00     0.010 A 
ENDBRANCH   1  27
TORSDOF 5
ENDMDL
MODEL 8
REMARK VINA RESULT:      -8.9      1.479      1.812
REMARK  5 active torsions:
REMARK  status: ('A' for Active; 'I' for Inactive)
REMARK    1  A    between atoms: C_5  and  C_6 
REMARK    2  A    between atoms: C_11  and  C_12 
REMARK       I    between atoms: C_12  and  N_13 
REMARK    3  A    between atoms: N_13  and  C_14 
REMARK    4  A    between atoms: C_16  and  O_17 
REMARK    5  A    between atoms: C_23  and  C_24 
ROOT
HETATM    1  C   UNL     1      26.957  42.961  52.049  1.00  0.00     0.118 C 
HETATM    2  N   UNL     1      25.949  43.996  52.275  1.00  0.00    -0.366 N 
HETATM    3  C   UNL     1      25.363  44.672  51.267  1.00  0.00     0.123 A 
HETATM    4  N   UNL     1      25.557  44.311  49.965  1.00  0.00    -0.240 N 
HETATM    5  N   UNL     1      25.040  45.173  49.072  1.00  0.00    -0.165 NA
HETATM    6  C   UNL     1      24.368  46.057  49.850  1.00  0.00     0.148 A 
HETATM    7  C   UNL     1      24.535  45.761  51.232  1.00  0.00     0.089 A 
HETATM    8  C   UNL     1      26.359  43.170  49.572  1.00  0.00     0.221 C 
HETATM    9  C   UNL     1      27.484  42.977  50.598  1.00  0.00     0.066 C 
HETATM   10  H   UNL     1      25.798  44.256  53.249  1.00  0.00     0.161 HD
ENDROOT
BRANCH   6  11
HETATM   11  C   UNL     1      23.611  47.185  49.277  1.00  0.00     0.276 C 
HETATM   12  N   UNL     1      22.281  46.865  49.089  1.00  0.00    -0.322 N 
HETATM   13  H   UNL     1      22.055  45.909  49.358  1.00  0.00     0.169 HD
HETATM   14  O   UNL     1      24.156  48.247  48.996  1.00  0.00    -0.266 OA
BRANCH  12  15
HETATM   15  C   UNL     1      21.255  47.665  48.561  1.00  0.00     0.037 A 
HETATM   16  C   UNL     1      20.672  48.732  49.249  1.00  0.00     0.066 A 
HETATM   17  C   UNL     1      19.651  49.467  48.649  1.00  0.00     0.067 A 
HETATM   18  C   UNL     1      19.204  49.163  47.369  1.00  0.00     0.036 A 
HETATM   19  C   UNL     1      19.782  48.103  46.676  1.00  0.00     0.005 A 
HETATM   20  C   UNL     1      20.800  47.354  47.272  1.00  0.00     0.029 A 
BRANCH  17  21
HETATM   21  O   UNL     1      19.051  50.506  49.300  1.00  0.00    -0.361 OA
HETATM   22  H   UNL     1      18.437  50.939  48.684  1.00  0.00     0.217 HD
ENDBRANCH  17  21
ENDBRANCH  12  15
ENDBRANCH   6  11
BRANCH   8  23
HETATM   23  C   UNL     1      25.482  41.948  49.425  1.00  0.00     0.409 C 
HETATM   24  F   UNL     1      24.316  42.068  50.097  1.00  0.00    -0.169 F 
HETATM   25  F   UNL     1      25.156  41.775  48.117  1.00  0.00    -0.169 F 
HETATM   26  F   UNL     1      26.075  40.805  49.827  1.00  0.00    -0.169 F 
ENDBRANCH   8  23
BRANCH   1  27
HETATM   27  C   UNL     1      28.095  43.162  53.036  1.00  0.00    -0.035 A 
HETATM   28  C   UNL     1      27.909  43.931  54.193  1.00  0.00     0.010 A 
HETATM   29  C   UNL     1      28.957  44.110  55.103  1.00  0.00     0.007 A 
HETATM   30  C   UNL     1      30.210  43.532  54.872  1.00  0.00    -0.062 A 
HETATM   31  C   UNL     1      31.326  43.693  55.860  1.00  0.00     0.048 C 
HETATM   32  C   UNL     1      30.397  42.754  53.725  1.00  0.00     0.007 A 
HETATM   33  C   UNL     1      29.354  42.578  52.815  1.00  0.00     0.010 A 
ENDBRANCH   1  27
TORSDOF 5
ENDMDL
MODEL 9
REMARK VINA RESULT:      -8.9      3.140      5.027
REMARK  5 active torsions:
REMARK  status: ('A' for Active; 'I' for Inactive)
REMARK    1  A    between atoms: C_5  and  C_6 
REMARK    2  A    between atoms: C_11  and  C_12 
REMARK       I    between atoms: C_12  and  N_13 
REMARK    3  A    between atoms: N_13  and  C_14 
REMARK    4  A    between atoms: C_16  and  O_17 
REMARK    5  A    between atoms: C_23  and  C_24 
ROOT
HETATM    1  C   UNL     1      28.379  41.455  51.471  1.00  0.00     0.118 C 
HETATM    2  N   UNL     1      28.092  42.598  50.604  1.00  0.00    -0.366 N 
HETATM    3  C   UNL     1      27.492  43.719  51.052  1.00  0.00     0.123 A 
HETATM    4  N   UNL     1      27.267  43.918  52.383  1.00  0.00    -0.240 N 
HETATM    5  N   UNL     1      26.521  45.002  52.659  1.00  0.00    -0.165 NA
HETATM    6  C   UNL     1      26.377  45.593  51.448  1.00  0.00     0.148 A 
HETATM    7  C   UNL     1      26.990  44.824  50.420  1.00  0.00     0.089 A 
HETATM    8  C   UNL     1      27.684  42.978  53.405  1.00  0.00     0.221 C 
HETATM    9  C   UNL     1      27.638  41.559  52.823  1.00  0.00     0.066 C 
HETATM   10  H   UNL     1      28.271  42.450  49.611  1.00  0.00     0.161 HD
ENDROOT
BRANCH   6  11
HETATM   11  C   UNL     1      25.633  46.855  51.278  1.00  0.00     0.276 C 
HETATM   12  N   UNL     1      25.248  47.048  49.966  1.00  0.00    -0.322 N 
HETATM   13  H   UNL     1      25.556  46.304  49.343  1.00  0.00     0.169 HD
HETATM   14  O   UNL     1      25.434  47.614  52.220  1.00  0.00    -0.266 OA
BRANCH  12  15
HETATM   15  C   UNL     1      24.537  48.124  49.412  1.00  0.00     0.037 A 
HETATM   16  C   UNL     1      23.143  48.208  49.401  1.00  0.00     0.066 A 
HETATM   17  C   UNL     1      22.521  49.313  48.820  1.00  0.00     0.067 A 
HETATM   18  C   UNL     1      23.265  50.342  48.256  1.00  0.00     0.036 A 
HETATM   19  C   UNL     1      24.655  50.267  48.267  1.00  0.00     0.005 A 
HETATM   20  C   UNL     1      25.288  49.159  48.838  1.00  0.00     0.029 A 
BRANCH  17  21
HETATM   21  O   UNL     1      21.161  49.419  48.780  1.00  0.00    -0.361 OA
HETATM   22  H   UNL     1      20.923  50.355  48.890  1.00  0.00     0.217 HD
ENDBRANCH  17  21
ENDBRANCH  12  15
ENDBRANCH   6  11
BRANCH   8  23
HETATM   23  C   UNL     1      29.052  43.355  53.927  1.00  0.00     0.409 C 
HETATM   24  F   UNL     1      29.015  44.443  54.727  1.00  0.00    -0.169 F 
HETATM   25  F   UNL     1      29.548  42.339  54.681  1.00  0.00    -0.169 F 
HETATM   26  F   UNL     1      29.956  43.588  52.953  1.00  0.00    -0.169 F 
ENDBRANCH   8  23
BRANCH   1  27
HETATM   27  C   UNL     1      27.993  40.179  50.743  1.00  0.00    -0.035 A 
HETATM   28  C   UNL     1      26.697  40.009  50.237  1.00  0.00     0.010 A 
HETATM   29  C   UNL     1      26.347  38.835  49.561  1.00  0.00     0.007 A 
HETATM   30  C   UNL     1      27.279  37.806  49.388  1.00  0.00    -0.062 A 
HETATM   31  C   UNL     1      26.918  36.559  48.637  1.00  0.00     0.048 C 
HETATM   32  C   UNL     1      28.576  37.975  49.882  1.00  0.00     0.007 A 
HETATM   33  C   UNL     1      28.926  39.144  50.558  1.00  0.00     0.010 A 
ENDBRANCH   1  27
TORSDOF 5
ENDMDL
MODEL 10
REMARK VINA RESULT:      -8.8      4.151      9.394
REMARK  5 active torsions:
REMARK  status: ('A' for Active; 'I' for Inactive)
REMARK    1  A    between atoms: C_5  and  C_6 
REMARK    2  A    between atoms: C_11  and  C_12 
REMARK       I    between atoms: C_12  and  N_13 
REMARK    3  A    between atoms: N_13  and  C_14 
REMARK    4  A    between atoms: C_16  and  O_17 
REMARK    5  A    between atoms: C_23  and  C_24 
ROOT
HETATM    1  C   UNL     1      23.806  45.162  49.487  1.00  0.00     0.118 C 
HETATM    2  N   UNL     1      23.796  44.618  50.845  1.00  0.00    -0.366 N 
HETATM    3  C   UNL     1      24.886  44.622  51.639  1.00  0.00     0.123 A 
HETATM    4  N   UNL     1      26.021  45.290  51.279  1.00  0.00    -0.240 N 
HETATM    5  N   UNL     1      27.069  45.070  52.092  1.00  0.00    -0.165 NA
HETATM    6  C   UNL     1      26.532  44.331  53.093  1.00  0.00     0.148 A 
HETATM    7  C   UNL     1      25.160  44.046  52.849  1.00  0.00     0.089 A 
HETATM    8  C   UNL     1      26.130  46.065  50.060  1.00  0.00     0.221 C 
HETATM    9  C   UNL     1      25.242  45.425  48.983  1.00  0.00     0.066 C 
HETATM   10  H   UNL     1      22.943  44.129  51.114  1.00  0.00     0.161 HD
ENDROOT
BRANCH   6  11
HETATM   11  C   UNL     1      27.334  43.874  54.243  1.00  0.00     0.276 C 
HETATM   12  N   UNL     1      28.406  44.712  54.483  1.00  0.00    -0.322 N 
HETATM   13  H   UNL     1      28.470  45.483  53.821  1.00  0.00     0.169 HD
HETATM   14  O   UNL     1      27.052  42.852  54.858  1.00  0.00    -0.266 OA
BRANCH  12  15
HETATM   15  C   UNL     1      29.394  44.607  55.475  1.00  0.00     0.037 A 
HETATM   16  C   UNL     1      29.572  45.545  56.495  1.00  0.00     0.066 A 
HETATM   17  C   UNL     1      30.586  45.363  57.433  1.00  0.00     0.067 A 
HETATM   18  C   UNL     1      31.424  44.256  57.380  1.00  0.00     0.036 A 
HETATM   19  C   UNL     1      31.251  43.314  56.369  1.00  0.00     0.005 A 
HETATM   20  C   UNL     1      30.243  43.492  55.417  1.00  0.00     0.029 A 
BRANCH  17  21
HETATM   21  O   UNL     1      30.795  46.268  58.433  1.00  0.00    -0.361 OA
HETATM   22  H   UNL     1      31.405  45.874  59.080  1.00  0.00     0.217 HD
ENDBRANCH  17  21
ENDBRANCH  12  15
ENDBRANCH   6  11
BRANCH   8  23
HETATM   23  C   UNL     1      25.774  47.509  50.332  1.00  0.00     0.409 C 
HETATM   24  F   UNL     1      25.159  48.093  49.280  1.00  0.00    -0.169 F 
HETATM   25  F   UNL     1      24.904  47.576  51.373  1.00  0.00    -0.169 F 
HETATM   26  F   UNL     1      26.834  48.273  50.667  1.00  0.00    -0.169 F 
ENDBRANCH   8  23
BRANCH   1  27
HETATM   27  C   UNL     1      23.082  44.196  48.566  1.00  0.00    -0.035 A 
HETATM   28  C   UNL     1      23.288  42.814  48.676  1.00  0.00     0.010 A 
HETATM   29  C   UNL     1      22.614  41.926  47.830  1.00  0.00     0.007 A 
HETATM   30  C   UNL     1      21.731  42.400  46.855  1.00  0.00    -0.062 A 
HETATM   31  C   UNL     1      20.982  41.451  45.967  1.00  0.00     0.048 C 
HETATM   32  C   UNL     1      21.513  43.777  46.749  1.00  0.00     0.007 A 
HETATM   33  C   UNL     1      22.186  44.664  47.589  1.00  0.00     0.010 A 
ENDBRANCH   1  27
TORSDOF 5
ENDMDL
