MODEL 1
REMARK VINA RESULT:      -8.1      0.000      0.000
REMARK  2 active torsions:
REMARK  status: ('A' for Active; 'I' for Inactive)
REMARK    1  A    between atoms: C_5  and  O_6 
REMARK    2  A    between atoms: C_5  and  C_7 
ROOT
HETATM    1  C   UNL     1      30.366  45.042  55.776  1.00  0.00     0.050 C 
HETATM    2  C   UNL     1      29.562  44.174  54.861  1.00  0.00    -0.034 A 
HETATM    3  C   UNL     1      28.272  44.499  54.466  1.00  0.00     0.052 A 
HETATM    4  C   UNL     1      27.512  43.709  53.586  1.00  0.00     0.039 A 
HETATM    5  C   UNL     1      26.161  44.347  53.393  1.00  0.00     0.200 A 
HETATM    6  C   UNL     1      26.280  45.630  54.277  1.00  0.00     0.266 A 
HETATM    7  O   UNL     1      25.413  46.463  54.496  1.00  0.00    -0.269 OA
HETATM    8  N   UNL     1      27.547  45.623  54.850  1.00  0.00    -0.323 N 
HETATM    9  C   UNL     1      28.053  42.540  53.081  1.00  0.00     0.046 A 
HETATM   10 CL   UNL     1      27.184  41.496  52.028  1.00  0.00    -0.084 Cl
HETATM   11  C   UNL     1      29.360  42.195  53.444  1.00  0.00     0.025 A 
HETATM   12  C   UNL     1      30.107  43.004  54.317  1.00  0.00     0.011 A 
HETATM   13  H   UNL     1      27.854  46.340  55.490  1.00  0.00     0.169 HD
ENDROOT
BRANCH   5  14
HETATM   14  O   UNL     1      25.144  43.501  53.925  1.00  0.00    -0.371 OA
HETATM   15  H   UNL     1      25.279  42.645  53.483  1.00  0.00     0.212 HD
ENDBRANCH   5  14
BRANCH   5  16
HETATM   16  C   UNL     1      25.959  44.684  51.937  1.00  0.00     0.018 A 
HETATM   17  C   UNL     1      25.049  44.095  50.982  1.00  0.00     0.002 A 
HETATM   18  C   UNL     1      25.243  44.742  49.759  1.00  0.00     0.043 A 
HETATM   19  C   UNL     1      24.070  43.078  51.035  1.00  0.00     0.014 A 
HETATM   20  C   UNL     1      24.514  44.431  48.604  1.00  0.00     0.030 A 
HETATM   21  N   UNL     1      26.229  45.678  49.944  1.00  0.00    -0.365 N 
HETATM   22  C   UNL     1      23.548  43.429  48.693  1.00  0.00     0.002 A 
HETATM   23  C   UNL     1      23.326  42.760  49.892  1.00  0.00     0.001 A 
HETATM   24  H   UNL     1      26.574  46.297  49.223  1.00  0.00     0.165 HD
HETATM   25  C   UNL     1      26.664  45.655  51.238  1.00  0.00     0.100 A 
ENDBRANCH   5  16
TORSDOF 2
ENDMDL
MODEL 2
REMARK VINA RESULT:      -8.0      6.868      9.993
REMARK  2 active torsions:
REMARK  status: ('A' for Active; 'I' for Inactive)
REMARK    1  A    between atoms: C_5  and  O_6 
REMARK    2  A    between atoms: C_5  and  C_7 
ROOT
HETATM    1  C   UNL     1      17.799  50.767  45.969  1.00  0.00     0.050 C 
HETATM    2  C   UNL     1      18.706  50.833  47.158  1.00  0.00    -0.034 A 
HETATM    3  C   UNL     1      19.691  49.887  47.399  1.00  0.00     0.052 A 
HETATM    4  C   UNL     1      20.569  49.949  48.495  1.00  0.00     0.039 A 
HETATM    5  C   UNL     1      21.489  48.757  48.457  1.00  0.00     0.200 A 
HETATM    6  C   UNL     1      21.016  48.025  47.160  1.00  0.00     0.266 A 
HETATM    7  O   UNL     1      21.425  46.961  46.718  1.00  0.00    -0.269 OA
HETATM    8  N   UNL     1      19.972  48.768  46.621  1.00  0.00    -0.323 N 
HETATM    9  C   UNL     1      20.460  50.993  49.396  1.00  0.00     0.046 A 
HETATM   10 CL   UNL     1      21.467  51.129  50.782  1.00  0.00    -0.084 Cl
HETATM   11  C   UNL     1      19.490  51.976  49.169  1.00  0.00     0.025 A 
HETATM   12  C   UNL     1      18.628  51.901  48.061  1.00  0.00     0.011 A 
HETATM   13  H   UNL     1      19.478  48.481  45.790  1.00  0.00     0.169 HD
ENDROOT
BRANCH   5  14
HETATM   14  O   UNL     1      21.248  47.920  49.585  1.00  0.00    -0.371 OA
HETATM   15  H   UNL     1      20.287  47.768  49.579  1.00  0.00     0.212 HD
ENDBRANCH   5  14
BRANCH   5  16
HETATM   16  C   UNL     1      22.921  49.221  48.350  1.00  0.00     0.018 A 
HETATM   17  C   UNL     1      24.104  48.679  48.977  1.00  0.00     0.002 A 
HETATM   18  C   UNL     1      25.190  49.461  48.576  1.00  0.00     0.043 A 
HETATM   19  C   UNL     1      24.365  47.594  49.843  1.00  0.00     0.014 A 
HETATM   20  C   UNL     1      26.506  49.213  48.987  1.00  0.00     0.030 A 
HETATM   21  N   UNL     1      24.704  50.443  47.750  1.00  0.00    -0.365 N 
HETATM   22  C   UNL     1      26.731  48.128  49.834  1.00  0.00     0.002 A 
HETATM   23  C   UNL     1      25.676  47.326  50.257  1.00  0.00     0.001 A 
HETATM   24  H   UNL     1      25.271  51.154  47.310  1.00  0.00     0.165 HD
HETATM   25  C   UNL     1      23.353  50.311  47.606  1.00  0.00     0.100 A 
ENDBRANCH   5  16
TORSDOF 2
ENDMDL
MODEL 3
REMARK VINA RESULT:      -7.9     12.504     13.497
REMARK  2 active torsions:
REMARK  status: ('A' for Active; 'I' for Inactive)
REMARK    1  A    between atoms: C_5  and  O_6 
REMARK    2  A    between atoms: C_5  and  C_7 
ROOT
HETATM    1  C   UNL     1      33.031  51.653  43.977  1.00  0.00     0.050 C 
HETATM    2  C   UNL     1      32.013  51.501  42.891  1.00  0.00    -0.034 A 
HETATM    3  C   UNL     1      31.887  50.339  42.142  1.00  0.00     0.052 A 
HETATM    4  C   UNL     1      30.919  50.170  41.138  1.00  0.00     0.039 A 
HETATM    5  C   UNL     1      31.083  48.805  40.522  1.00  0.00     0.200 A 
HETATM    6  C   UNL     1      32.273  48.219  41.346  1.00  0.00     0.266 A 
HETATM    7  O   UNL     1      32.824  47.139  41.189  1.00  0.00    -0.269 OA
HETATM    8  N   UNL     1      32.661  49.189  42.263  1.00  0.00    -0.323 N 
HETATM    9  C   UNL     1      30.041  51.201  40.858  1.00  0.00     0.046 A 
HETATM   10 CL   UNL     1      28.849  51.094  39.624  1.00  0.00    -0.084 Cl
HETATM   11  C   UNL     1      30.127  52.379  41.611  1.00  0.00     0.025 A 
HETATM   12  C   UNL     1      31.096  52.525  42.618  1.00  0.00     0.011 A 
HETATM   13  H   UNL     1      33.435  49.056  42.896  1.00  0.00     0.169 HD
ENDROOT
BRANCH   5  14
HETATM   14  O   UNL     1      31.473  48.932  39.156  1.00  0.00    -0.371 OA
HETATM   15  H   UNL     1      30.636  48.932  38.659  1.00  0.00     0.212 HD
ENDBRANCH   5  14
BRANCH   5  16
HETATM   16  C   UNL     1      29.818  48.005  40.712  1.00  0.00     0.018 A 
HETATM   17  C   UNL     1      29.395  46.796  40.044  1.00  0.00     0.002 A 
HETATM   18  C   UNL     1      28.146  46.443  40.560  1.00  0.00     0.043 A 
HETATM   19  C   UNL     1      29.954  45.956  39.054  1.00  0.00     0.014 A 
HETATM   20  C   UNL     1      27.438  45.308  40.145  1.00  0.00     0.030 A 
HETATM   21  N   UNL     1      27.808  47.391  41.493  1.00  0.00    -0.365 N 
HETATM   22  C   UNL     1      28.022  44.495  39.173  1.00  0.00     0.002 A 
HETATM   23  C   UNL     1      29.263  44.812  38.634  1.00  0.00     0.001 A 
HETATM   24  H   UNL     1      26.951  47.386  42.029  1.00  0.00     0.165 HD
HETATM   25  C   UNL     1      28.796  48.327  41.595  1.00  0.00     0.100 A 
ENDBRANCH   5  16
TORSDOF 2
ENDMDL
MODEL 4
REMARK VINA RESULT:      -7.7      2.185      6.042
REMARK  2 active torsions:
REMARK  status: ('A' for Active; 'I' for Inactive)
REMARK    1  A    between atoms: C_5  and  O_6 
REMARK    2  A    between atoms: C_5  and  C_7 
ROOT
HETATM    1  C   UNL     1      21.921  46.619  48.307  1.00  0.00     0.050 C 
HETATM    2  C   UNL     1      22.943  45.553  48.548  1.00  0.00    -0.034 A 
HETATM    3  C   UNL     1      24.086  45.772  49.304  1.00  0.00     0.052 A 
HETATM    4  C   UNL     1      25.042  44.775  49.564  1.00  0.00     0.039 A 
HETATM    5  C   UNL     1      26.154  45.363  50.393  1.00  0.00     0.200 A 
HETATM    6  C   UNL     1      25.669  46.836  50.585  1.00  0.00     0.266 A 
HETATM    7  O   UNL     1      26.260  47.743  51.153  1.00  0.00    -0.269 OA
HETATM    8  N   UNL     1      24.457  46.964  49.918  1.00  0.00    -0.323 N 
HETATM    9  C   UNL     1      24.861  43.506  49.044  1.00  0.00     0.046 A 
HETATM   10 CL   UNL     1      25.995  42.237  49.281  1.00  0.00    -0.084 Cl
HETATM   11  C   UNL     1      23.707  43.247  48.295  1.00  0.00     0.025 A 
HETATM   12  C   UNL     1      22.757  44.255  48.055  1.00  0.00     0.011 A 
HETATM   13  H   UNL     1      23.956  47.839  49.872  1.00  0.00     0.169 HD
ENDROOT
BRANCH   5  14
HETATM   14  O   UNL     1      27.369  45.360  49.649  1.00  0.00    -0.371 OA
HETATM   15  H   UNL     1      27.151  44.901  48.820  1.00  0.00     0.212 HD
ENDBRANCH   5  14
BRANCH   5  16
HETATM   16  C   UNL     1      26.253  44.628  51.707  1.00  0.00     0.018 A 
HETATM   17  C   UNL     1      27.383  43.932  52.279  1.00  0.00     0.002 A 
HETATM   18  C   UNL     1      26.976  43.406  53.508  1.00  0.00     0.043 A 
HETATM   19  C   UNL     1      28.718  43.702  51.880  1.00  0.00     0.014 A 
HETATM   20  C   UNL     1      27.826  42.675  54.348  1.00  0.00     0.030 A 
HETATM   21  N   UNL     1      25.659  43.750  53.684  1.00  0.00    -0.365 N 
HETATM   22  C   UNL     1      29.141  42.474  53.928  1.00  0.00     0.002 A 
HETATM   23  C   UNL     1      29.584  42.980  52.711  1.00  0.00     0.001 A 
HETATM   24  H   UNL     1      25.105  43.501  54.492  1.00  0.00     0.165 HD
HETATM   25  C   UNL     1      25.216  44.479  52.618  1.00  0.00     0.100 A 
ENDBRANCH   5  16
TORSDOF 2
ENDMDL
MODEL 5
REMARK VINA RESULT:      -7.6     13.037     15.019
REMARK  2 active torsions:
REMARK  status: ('A' for Active; 'I' for Inactive)
REMARK    1  A    between atoms: C_5  and  O_6 
REMARK    2  A    between atoms: C_5  and  C_7 
ROOT
HETATM    1  C   UNL     1      24.355  49.749  38.453  1.00  0.00     0.050 C 
HETATM    2  C   UNL     1      25.610  49.288  39.126  1.00  0.00    -0.034 A 
HETATM    3  C   UNL     1      26.815  49.965  39.003  1.00  0.00     0.052 A 
HETATM    4  C   UNL     1      27.996  49.561  39.649  1.00  0.00     0.039 A 
HETATM    5  C   UNL     1      29.107  50.508  39.279  1.00  0.00     0.200 A 
HETATM    6  C   UNL     1      28.371  51.523  38.347  1.00  0.00     0.266 A 
HETATM    7  O   UNL     1      28.862  52.464  37.741  1.00  0.00    -0.269 OA
HETATM    8  N   UNL     1      27.044  51.118  38.258  1.00  0.00    -0.323 N 
HETATM    9  C   UNL     1      27.983  48.431  40.447  1.00  0.00     0.046 A 
HETATM   10 CL   UNL     1      29.388  47.846  41.246  1.00  0.00    -0.084 Cl
HETATM   11  C   UNL     1      26.778  47.738  40.608  1.00  0.00     0.025 A 
HETATM   12  C   UNL     1      25.605  48.164  39.961  1.00  0.00     0.011 A 
HETATM   13  H   UNL     1      26.369  51.601  37.686  1.00  0.00     0.169 HD
ENDROOT
BRANCH   5  14
HETATM   14  O   UNL     1      30.105  49.818  38.530  1.00  0.00    -0.371 OA
HETATM   15  H   UNL     1      29.632  49.460  37.759  1.00  0.00     0.212 HD
ENDBRANCH   5  14
BRANCH   5  16
HETATM   16  C   UNL     1      29.644  51.174  40.522  1.00  0.00     0.018 A 
HETATM   17  C   UNL     1      30.920  50.991  41.175  1.00  0.00     0.002 A 
HETATM   18  C   UNL     1      30.944  51.826  42.295  1.00  0.00     0.043 A 
HETATM   19  C   UNL     1      32.065  50.203  40.923  1.00  0.00     0.014 A 
HETATM   20  C   UNL     1      32.041  51.915  43.162  1.00  0.00     0.030 A 
HETATM   21  N   UNL     1      29.741  52.485  42.339  1.00  0.00    -0.365 N 
HETATM   22  C   UNL     1      33.160  51.131  42.879  1.00  0.00     0.002 A 
HETATM   23  C   UNL     1      33.175  50.286  41.774  1.00  0.00     0.001 A 
HETATM   24  H   UNL     1      29.482  53.158  43.047  1.00  0.00     0.165 HD
HETATM   25  C   UNL     1      28.957  52.107  41.287  1.00  0.00     0.100 A 
ENDBRANCH   5  16
TORSDOF 2
ENDMDL
MODEL 6
REMARK VINA RESULT:      -7.6     13.132     14.498
REMARK  2 active torsions:
REMARK  status: ('A' for Active; 'I' for Inactive)
REMARK    1  A    between atoms: C_5  and  O_6 
REMARK    2  A    between atoms: C_5  and  C_7 
ROOT
HETATM    1  C   UNL     1      34.927  49.808  40.957  1.00  0.00     0.050 C 
HETATM    2  C   UNL     1      33.745  50.593  41.431  1.00  0.00    -0.034 A 
HETATM    3  C   UNL     1      32.699  50.947  40.592  1.00  0.00     0.052 A 
HETATM    4  C   UNL     1      31.568  51.660  41.027  1.00  0.00     0.039 A 
HETATM    5  C   UNL     1      30.649  51.888  39.856  1.00  0.00     0.200 A 
HETATM    6  C   UNL     1      31.417  51.173  38.698  1.00  0.00     0.266 A 
HETATM    7  O   UNL     1      31.101  51.123  37.518  1.00  0.00    -0.269 OA
HETATM    8  N   UNL     1      32.591  50.657  39.236  1.00  0.00    -0.323 N 
HETATM    9  C   UNL     1      31.476  52.047  42.352  1.00  0.00     0.046 A 
HETATM   10 CL   UNL     1      30.148  52.951  42.963  1.00  0.00    -0.084 Cl
HETATM   11  C   UNL     1      32.505  51.686  43.230  1.00  0.00     0.025 A 
HETATM   12  C   UNL     1      33.623  50.963  42.777  1.00  0.00     0.011 A 
HETATM   13  H   UNL     1      33.274  50.172  38.674  1.00  0.00     0.169 HD
ENDROOT
BRANCH   5  14
HETATM   14  O   UNL     1      30.559  53.282  39.572  1.00  0.00    -0.371 OA
HETATM   15  H   UNL     1      31.238  53.693  40.135  1.00  0.00     0.212 HD
ENDBRANCH   5  14
BRANCH   5  16
HETATM   16  C   UNL     1      29.312  51.243  40.125  1.00  0.00     0.018 A 
HETATM   17  C   UNL     1      28.998  49.849  40.339  1.00  0.00     0.002 A 
HETATM   18  C   UNL     1      27.619  49.753  40.538  1.00  0.00     0.043 A 
HETATM   19  C   UNL     1      29.751  48.655  40.392  1.00  0.00     0.014 A 
HETATM   20  C   UNL     1      26.963  48.540  40.789  1.00  0.00     0.030 A 
HETATM   21  N   UNL     1      27.102  51.021  40.443  1.00  0.00    -0.365 N 
HETATM   22  C   UNL     1      27.737  47.381  40.844  1.00  0.00     0.002 A 
HETATM   23  C   UNL     1      29.113  47.435  40.650  1.00  0.00     0.001 A 
HETATM   24  H   UNL     1      26.124  51.250  40.547  1.00  0.00     0.165 HD
HETATM   25  C   UNL     1      28.101  51.919  40.198  1.00  0.00     0.100 A 
ENDBRANCH   5  16
TORSDOF 2
ENDMDL
MODEL 7
REMARK VINA RESULT:      -7.6     16.398     17.771
REMARK  2 active torsions:
REMARK  status: ('A' for Active; 'I' for Inactive)
REMARK    1  A    between atoms: C_5  and  O_6 
REMARK    2  A    between atoms: C_5  and  C_7 
ROOT
HETATM    1  C   UNL     1      39.523  49.531  64.860  1.00  0.00     0.050 C 
HETATM    2  C   UNL     1      39.865  48.132  65.266  1.00  0.00    -0.034 A 
HETATM    3  C   UNL     1      39.023  47.057  65.024  1.00  0.00     0.052 A 
HETATM    4  C   UNL     1      39.341  45.733  65.374  1.00  0.00     0.039 A 
HETATM    5  C   UNL     1      38.198  44.832  64.984  1.00  0.00     0.200 A 
HETATM    6  C   UNL     1      37.196  45.842  64.339  1.00  0.00     0.266 A 
HETATM    7  O   UNL     1      36.077  45.605  63.908  1.00  0.00    -0.269 OA
HETATM    8  N   UNL     1      37.776  47.104  64.408  1.00  0.00    -0.323 N 
HETATM    9  C   UNL     1      40.546  45.465  65.999  1.00  0.00     0.046 A 
HETATM   10 CL   UNL     1      41.002  43.883  66.492  1.00  0.00    -0.084 Cl
HETATM   11  C   UNL     1      41.428  46.526  66.238  1.00  0.00     0.025 A 
HETATM   12  C   UNL     1      41.095  47.841  65.871  1.00  0.00     0.011 A 
HETATM   13  H   UNL     1      37.305  47.933  64.079  1.00  0.00     0.169 HD
ENDROOT
BRANCH   5  14
HETATM   14  O   UNL     1      37.608  44.264  66.151  1.00  0.00    -0.371 OA
HETATM   15  H   UNL     1      36.650  44.302  65.987  1.00  0.00     0.212 HD
ENDBRANCH   5  14
BRANCH   5  16
HETATM   16  C   UNL     1      38.676  43.802  63.992  1.00  0.00     0.018 A 
HETATM   17  C   UNL     1      38.737  42.365  64.127  1.00  0.00     0.002 A 
HETATM   18  C   UNL     1      39.262  41.851  62.939  1.00  0.00     0.043 A 
HETATM   19  C   UNL     1      38.389  41.444  65.140  1.00  0.00     0.014 A 
HETATM   20  C   UNL     1      39.451  40.481  62.713  1.00  0.00     0.030 A 
HETATM   21  N   UNL     1      39.522  42.916  62.113  1.00  0.00    -0.365 N 
HETATM   22  C   UNL     1      39.088  39.598  63.730  1.00  0.00     0.002 A 
HETATM   23  C   UNL     1      38.563  40.070  64.928  1.00  0.00     0.001 A 
HETATM   24  H   UNL     1      39.909  42.837  61.182  1.00  0.00     0.165 HD
HETATM   25  C   UNL     1      39.177  44.084  62.728  1.00  0.00     0.100 A 
ENDBRANCH   5  16
TORSDOF 2
ENDMDL
MODEL 8
REMARK VINA RESULT:      -7.6      7.856      9.879
REMARK  2 active torsions:
REMARK  status: ('A' for Active; 'I' for Inactive)
REMARK    1  A    between atoms: C_5  and  O_6 
REMARK    2  A    between atoms: C_5  and  C_7 
ROOT
HETATM    1  C   UNL     1      23.017  51.108  48.788  1.00  0.00     0.050 C 
HETATM    2  C   UNL     1      22.327  49.780  48.759  1.00  0.00    -0.034 A 
HETATM    3  C   UNL     1      21.012  49.613  49.168  1.00  0.00     0.052 A 
HETATM    4  C   UNL     1      20.341  48.379  49.122  1.00  0.00     0.039 A 
HETATM    5  C   UNL     1      18.945  48.558  49.658  1.00  0.00     0.200 A 
HETATM    6  C   UNL     1      18.919  50.084  49.991  1.00  0.00     0.266 A 
HETATM    7  O   UNL     1      18.009  50.716  50.507  1.00  0.00    -0.269 OA
HETATM    8  N   UNL     1      20.168  50.601  49.663  1.00  0.00    -0.323 N 
HETATM    9  C   UNL     1      21.006  47.259  48.656  1.00  0.00     0.046 A 
HETATM   10 CL   UNL     1      20.275  45.705  48.597  1.00  0.00    -0.084 Cl
HETATM   11  C   UNL     1      22.327  47.399  48.215  1.00  0.00     0.025 A 
HETATM   12  C   UNL     1      22.978  48.645  48.260  1.00  0.00     0.011 A 
HETATM   13  H   UNL     1      20.407  51.569  49.816  1.00  0.00     0.169 HD
ENDROOT
BRANCH   5  14
HETATM   14  O   UNL     1      18.787  47.811  50.862  1.00  0.00    -0.371 OA
HETATM   15  H   UNL     1      19.566  47.230  50.897  1.00  0.00     0.212 HD
ENDBRANCH   5  14
BRANCH   5  16
HETATM   16  C   UNL     1      17.940  48.198  48.592  1.00  0.00     0.018 A 
HETATM   17  C   UNL     1      17.852  48.662  47.227  1.00  0.00     0.002 A 
HETATM   18  C   UNL     1      16.743  48.047  46.642  1.00  0.00     0.043 A 
HETATM   19  C   UNL     1      18.612  49.540  46.423  1.00  0.00     0.014 A 
HETATM   20  C   UNL     1      16.362  48.259  45.311  1.00  0.00     0.030 A 
HETATM   21  N   UNL     1      16.166  47.249  47.599  1.00  0.00    -0.365 N 
HETATM   22  C   UNL     1      17.139  49.125  44.541  1.00  0.00     0.002 A 
HETATM   23  C   UNL     1      18.250  49.758  45.087  1.00  0.00     0.001 A 
HETATM   24  H   UNL     1      15.343  46.682  47.451  1.00  0.00     0.165 HD
HETATM   25  C   UNL     1      16.870  47.329  48.766  1.00  0.00     0.100 A 
ENDBRANCH   5  16
TORSDOF 2
ENDMDL
MODEL 9
REMARK VINA RESULT:      -7.5     12.364     13.777
REMARK  2 active torsions:
REMARK  status: ('A' for Active; 'I' for Inactive)
REMARK    1  A    between atoms: C_5  and  O_6 
REMARK    2  A    between atoms: C_5  and  C_7 
ROOT
HETATM    1  C   UNL     1      29.485  54.252  39.879  1.00  0.00     0.050 C 
HETATM    2  C   UNL     1      29.854  52.981  40.577  1.00  0.00    -0.034 A 
HETATM    3  C   UNL     1      29.055  51.848  40.538  1.00  0.00     0.052 A 
HETATM    4  C   UNL     1      29.400  50.638  41.165  1.00  0.00     0.039 A 
HETATM    5  C   UNL     1      28.300  49.635  40.937  1.00  0.00     0.200 A 
HETATM    6  C   UNL     1      27.293  50.451  40.066  1.00  0.00     0.266 A 
HETATM    7  O   UNL     1      26.198  50.088  39.660  1.00  0.00    -0.269 OA
HETATM    8  N   UNL     1      27.831  51.721  39.889  1.00  0.00    -0.323 N 
HETATM    9  C   UNL     1      30.588  50.551  41.868  1.00  0.00     0.046 A 
HETATM   10 CL   UNL     1      31.073  49.123  42.693  1.00  0.00    -0.084 Cl
HETATM   11  C   UNL     1      31.428  51.670  41.908  1.00  0.00     0.025 A 
HETATM   12  C   UNL     1      31.069  52.868  41.266  1.00  0.00     0.011 A 
HETATM   13  H   UNL     1      27.348  52.446  39.380  1.00  0.00     0.169 HD
ENDROOT
BRANCH   5  14
HETATM   14  O   UNL     1      27.685  49.298  42.178  1.00  0.00    -0.371 OA
HETATM   15  H   UNL     1      26.739  49.208  41.968  1.00  0.00     0.212 HD
ENDBRANCH   5  14
BRANCH   5  16
HETATM   16  C   UNL     1      28.846  48.440  40.195  1.00  0.00     0.018 A 
HETATM   17  C   UNL     1      28.414  47.062  40.242  1.00  0.00     0.002 A 
HETATM   18  C   UNL     1      29.239  46.332  39.383  1.00  0.00     0.043 A 
HETATM   19  C   UNL     1      27.396  46.360  40.924  1.00  0.00     0.014 A 
HETATM   20  C   UNL     1      29.097  44.954  39.171  1.00  0.00     0.030 A 
HETATM   21  N   UNL     1      30.142  47.210  38.839  1.00  0.00    -0.365 N 
HETATM   22  C   UNL     1      28.075  44.292  39.852  1.00  0.00     0.002 A 
HETATM   23  C   UNL     1      27.234  44.984  40.717  1.00  0.00     0.001 A 
HETATM   24  H   UNL     1      30.863  46.955  38.178  1.00  0.00     0.165 HD
HETATM   25  C   UNL     1      29.919  48.470  39.314  1.00  0.00     0.100 A 
ENDBRANCH   5  16
TORSDOF 2
ENDMDL
MODEL 10
REMARK VINA RESULT:      -7.4      7.943     11.000
REMARK  2 active torsions:
REMARK  status: ('A' for Active; 'I' for Inactive)
REMARK    1  A    between atoms: C_5  and  O_6 
REMARK    2  A    between atoms: C_5  and  C_7 
ROOT
HETATM    1  C   UNL     1      17.463  52.421  46.042  1.00  0.00     0.050 C 
HETATM    2  C   UNL     1      17.814  51.605  47.245  1.00  0.00    -0.034 A 
HETATM    3  C   UNL     1      18.303  50.310  47.152  1.00  0.00     0.052 A 
HETATM    4  C   UNL     1      18.664  49.539  48.270  1.00  0.00     0.039 A 
HETATM    5  C   UNL     1      19.131  48.185  47.805  1.00  0.00     0.200 A 
HETATM    6  C   UNL     1      19.004  48.314  46.253  1.00  0.00     0.266 A 
HETATM    7  O   UNL     1      19.218  47.450  45.416  1.00  0.00    -0.269 OA
HETATM    8  N   UNL     1      18.520  49.589  45.982  1.00  0.00    -0.323 N 
HETATM    9  C   UNL     1      18.527  50.074  49.539  1.00  0.00     0.046 A 
HETATM   10 CL   UNL     1      18.911  49.192  50.963  1.00  0.00    -0.084 Cl
HETATM   11  C   UNL     1      18.057  51.386  49.666  1.00  0.00     0.025 A 
HETATM   12  C   UNL     1      17.711  52.145  48.534  1.00  0.00     0.011 A 
HETATM   13  H   UNL     1      18.325  49.904  45.043  1.00  0.00     0.169 HD
ENDROOT
BRANCH   5  14
HETATM   14  O   UNL     1      18.237  47.176  48.268  1.00  0.00    -0.371 OA
HETATM   15  H   UNL     1      17.695  46.950  47.492  1.00  0.00     0.212 HD
ENDBRANCH   5  14
BRANCH   5  16
HETATM   16  C   UNL     1      20.560  47.962  48.235  1.00  0.00     0.018 A 
HETATM   17  C   UNL     1      21.677  48.877  48.194  1.00  0.00     0.002 A 
HETATM   18  C   UNL     1      22.794  48.203  48.694  1.00  0.00     0.043 A 
HETATM   19  C   UNL     1      21.853  50.219  47.788  1.00  0.00     0.014 A 
HETATM   20  C   UNL     1      24.058  48.795  48.811  1.00  0.00     0.030 A 
HETATM   21  N   UNL     1      22.391  46.932  49.020  1.00  0.00    -0.365 N 
HETATM   22  C   UNL     1      24.195  50.124  48.410  1.00  0.00     0.002 A 
HETATM   23  C   UNL     1      23.108  50.829  47.906  1.00  0.00     0.001 A 
HETATM   24  H   UNL     1      22.996  46.221  49.408  1.00  0.00     0.165 HD
HETATM   25  C   UNL     1      21.062  46.776  48.752  1.00  0.00     0.100 A 
ENDBRANCH   5  16
TORSDOF 2
ENDMDL
