MODEL 1
REMARK VINA RESULT:      -8.5      0.000      0.000
REMARK  3 active torsions:
REMARK  status: ('A' for Active; 'I' for Inactive)
REMARK    1  A    between atoms: C_2  and  N_3 
REMARK       I    between atoms: N_3  and  C_4 
REMARK    2  A    between atoms: C_4  and  C_5 
REMARK    3  A    between atoms: C_5  and  C_6 
ROOT
HETATM    1  C   UNL     1      27.208  44.833  53.374  1.00  0.00     0.286 C 
HETATM    2  N   UNL     1      26.377  45.530  52.305  1.00  0.00    -0.056 N 
HETATM    3  H   UNL     1      25.389  45.466  52.630  1.00  0.00     0.278 HD
HETATM    4  H   UNL     1      26.599  46.532  52.268  1.00  0.00     0.278 HD
HETATM    5  C   UNL     1      26.529  44.884  50.951  1.00  0.00     0.209 C 
HETATM    6  C   UNL     1      26.105  43.395  51.047  1.00  0.00     0.115 C 
HETATM    7  N   UNL     1      26.746  42.707  52.170  1.00  0.00    -0.353 N 
HETATM    8  C   UNL     1      27.022  43.300  53.380  1.00  0.00     0.249 C 
HETATM    9  O   UNL     1      27.216  42.611  54.374  1.00  0.00    -0.271 OA
HETATM   10  C   UNL     1      25.720  45.672  49.921  1.00  0.00     0.035 C 
HETATM   11  C   UNL     1      24.214  45.468  50.053  1.00  0.00     0.002 C 
HETATM   12  C   UNL     1      23.849  43.987  50.043  1.00  0.00     0.002 C 
HETATM   13  C   UNL     1      24.582  43.223  51.139  1.00  0.00     0.027 C 
HETATM   14  H   UNL     1      26.650  41.696  52.228  1.00  0.00     0.163 HD
ENDROOT
BRANCH   1  15
HETATM   15  C   UNL     1      26.964  45.435  54.765  1.00  0.00     0.146 C 
BRANCH  15  16
HETATM   16  C   UNL     1      27.851  46.630  55.002  1.00  0.00     0.224 C 
HETATM   17  N   UNL     1      29.066  46.535  55.598  1.00  0.00    -0.327 N 
HETATM   18  H   UNL     1      29.469  47.455  55.762  1.00  0.00     0.169 HD
HETATM   19  O   UNL     1      27.465  47.737  54.598  1.00  0.00    -0.273 OA
BRANCH  17  20
HETATM   20  C   UNL     1      29.859  45.459  56.042  1.00  0.00     0.034 A 
HETATM   21  C   UNL     1      30.211  44.340  55.283  1.00  0.00     0.032 A 
HETATM   22  C   UNL     1      31.013  43.331  55.833  1.00  0.00     0.044 A 
HETATM   23  C   UNL     1      31.475  43.445  57.136  1.00  0.00     0.116 A 
HETATM   24  C   UNL     1      31.157  44.554  57.902  1.00  0.00     0.044 A 
HETATM   25  F   UNL     1      32.242  42.479  57.654  1.00  0.00    -0.206 F 
HETATM   26  C   UNL     1      30.355  45.559  57.353  1.00  0.00     0.032 A 
ENDBRANCH  17  20
ENDBRANCH  15  16
ENDBRANCH   1  15
TORSDOF 3
ENDMDL
MODEL 2
REMARK VINA RESULT:      -8.1      1.502      2.766
REMARK  3 active torsions:
REMARK  status: ('A' for Active; 'I' for Inactive)
REMARK    1  A    between atoms: C_2  and  N_3 
REMARK       I    between atoms: N_3  and  C_4 
REMARK    2  A    between atoms: C_4  and  C_5 
REMARK    3  A    between atoms: C_5  and  C_6 
ROOT
HETATM    1  C   UNL     1      25.910  44.188  53.842  1.00  0.00     0.286 C 
HETATM    2  N   UNL     1      25.424  43.623  52.514  1.00  0.00    -0.056 N 
HETATM    3  H   UNL     1      26.272  43.550  51.912  1.00  0.00     0.278 HD
HETATM    4  H   UNL     1      25.075  42.665  52.631  1.00  0.00     0.278 HD
HETATM    5  C   UNL     1      24.390  44.508  51.862  1.00  0.00     0.209 C 
HETATM    6  C   UNL     1      24.996  45.917  51.635  1.00  0.00     0.115 C 
HETATM    7  N   UNL     1      25.634  46.447  52.842  1.00  0.00    -0.353 N 
HETATM    8  C   UNL     1      26.313  45.676  53.756  1.00  0.00     0.249 C 
HETATM    9  O   UNL     1      27.112  46.194  54.526  1.00  0.00    -0.271 OA
HETATM   10  C   UNL     1      23.905  43.850  50.570  1.00  0.00     0.035 C 
HETATM   11  C   UNL     1      24.931  43.905  49.442  1.00  0.00     0.002 C 
HETATM   12  C   UNL     1      25.416  45.330  49.201  1.00  0.00     0.002 C 
HETATM   13  C   UNL     1      25.995  45.947  50.469  1.00  0.00     0.027 C 
HETATM   14  H   UNL     1      25.928  47.421  52.839  1.00  0.00     0.163 HD
ENDROOT
BRANCH   1  15
HETATM   15  C   UNL     1      27.035  43.333  54.443  1.00  0.00     0.146 C 
BRANCH  15  16
HETATM   16  C   UNL     1      28.251  43.334  53.555  1.00  0.00     0.224 C 
HETATM   17  N   UNL     1      29.477  43.725  53.988  1.00  0.00    -0.327 N 
HETATM   18  H   UNL     1      30.146  43.753  53.222  1.00  0.00     0.169 HD
HETATM   19  O   UNL     1      28.129  42.922  52.392  1.00  0.00    -0.273 OA
BRANCH  17  20
HETATM   20  C   UNL     1      29.998  44.107  55.240  1.00  0.00     0.034 A 
HETATM   21  C   UNL     1      29.712  45.297  55.912  1.00  0.00     0.032 A 
HETATM   22  C   UNL     1      30.289  45.566  57.160  1.00  0.00     0.044 A 
HETATM   23  C   UNL     1      31.141  44.640  57.744  1.00  0.00     0.116 A 
HETATM   24  C   UNL     1      31.426  43.444  57.107  1.00  0.00     0.044 A 
HETATM   25  F   UNL     1      31.687  44.903  58.937  1.00  0.00    -0.206 F 
HETATM   26  C   UNL     1      30.851  43.177  55.861  1.00  0.00     0.032 A 
ENDBRANCH  17  20
ENDBRANCH  15  16
ENDBRANCH   1  15
TORSDOF 3
ENDMDL
MODEL 3
REMARK VINA RESULT:      -8.1      4.046      7.211
REMARK  3 active torsions:
REMARK  status: ('A' for Active; 'I' for Inactive)
REMARK    1  A    between atoms: C_2  and  N_3 
REMARK       I    between atoms: N_3  and  C_4 
REMARK    2  A    between atoms: C_4  and  C_5 
REMARK    3  A    between atoms: C_5  and  C_6 
ROOT
HETATM    1  C   UNL     1      26.116  43.241  50.851  1.00  0.00     0.286 C 
HETATM    2  N   UNL     1      26.508  43.661  52.261  1.00  0.00    -0.056 N 
HETATM    3  H   UNL     1      27.200  44.431  52.144  1.00  0.00     0.278 HD
HETATM    4  H   UNL     1      25.706  44.072  52.754  1.00  0.00     0.278 HD
HETATM    5  C   UNL     1      27.112  42.525  53.049  1.00  0.00     0.209 C 
HETATM    6  C   UNL     1      28.363  41.996  52.299  1.00  0.00     0.115 C 
HETATM    7  N   UNL     1      28.092  41.732  50.885  1.00  0.00    -0.353 N 
HETATM    8  C   UNL     1      27.241  42.485  50.111  1.00  0.00     0.249 C 
HETATM    9  O   UNL     1      27.325  42.450  48.889  1.00  0.00    -0.271 OA
HETATM   10  C   UNL     1      27.422  43.003  54.468  1.00  0.00     0.035 C 
HETATM   11  C   UNL     1      28.625  43.938  54.541  1.00  0.00     0.002 C 
HETATM   12  C   UNL     1      29.850  43.321  53.874  1.00  0.00     0.002 C 
HETATM   13  C   UNL     1      29.566  42.941  52.426  1.00  0.00     0.027 C 
HETATM   14  H   UNL     1      28.803  41.243  50.345  1.00  0.00     0.163 HD
ENDROOT
BRANCH   1  15
HETATM   15  C   UNL     1      25.598  44.429  50.028  1.00  0.00     0.146 C 
BRANCH  15  16
HETATM   16  C   UNL     1      24.475  45.135  50.742  1.00  0.00     0.224 C 
HETATM   17  N   UNL     1      24.300  46.479  50.687  1.00  0.00    -0.327 N 
HETATM   18  H   UNL     1      23.554  46.780  51.311  1.00  0.00     0.169 HD
HETATM   19  O   UNL     1      23.656  44.448  51.372  1.00  0.00    -0.273 OA
BRANCH  17  20
HETATM   20  C   UNL     1      24.930  47.522  49.980  1.00  0.00     0.034 A 
HETATM   21  C   UNL     1      24.285  48.475  49.189  1.00  0.00     0.032 A 
HETATM   22  C   UNL     1      25.020  49.473  48.535  1.00  0.00     0.044 A 
HETATM   23  C   UNL     1      26.398  49.527  48.681  1.00  0.00     0.116 A 
HETATM   24  C   UNL     1      27.060  48.605  49.475  1.00  0.00     0.044 A 
HETATM   25  F   UNL     1      27.093  50.484  48.055  1.00  0.00    -0.206 F 
HETATM   26  C   UNL     1      26.326  47.610  50.126  1.00  0.00     0.032 A 
ENDBRANCH  17  20
ENDBRANCH  15  16
ENDBRANCH   1  15
TORSDOF 3
ENDMDL
MODEL 4
REMARK VINA RESULT:      -8.1      1.922      2.528
REMARK  3 active torsions:
REMARK  status: ('A' for Active; 'I' for Inactive)
REMARK    1  A    between atoms: C_2  and  N_3 
REMARK       I    between atoms: N_3  and  C_4 
REMARK    2  A    between atoms: C_4  and  C_5 
REMARK    3  A    between atoms: C_5  and  C_6 
ROOT
HETATM    1  C   UNL     1      25.881  45.622  52.275  1.00  0.00     0.286 C 
HETATM    2  N   UNL     1      25.772  46.969  51.572  1.00  0.00    -0.056 N 
HETATM    3  H   UNL     1      24.813  47.319  51.780  1.00  0.00     0.278 HD
HETATM    4  H   UNL     1      26.420  47.649  51.987  1.00  0.00     0.278 HD
HETATM    5  C   UNL     1      25.978  46.853  50.082  1.00  0.00     0.209 C 
HETATM    6  C   UNL     1      24.925  45.877  49.496  1.00  0.00     0.115 C 
HETATM    7  N   UNL     1      24.862  44.618  50.241  1.00  0.00    -0.353 N 
HETATM    8  C   UNL     1      25.035  44.519  51.602  1.00  0.00     0.249 C 
HETATM    9  O   UNL     1      24.624  43.535  52.206  1.00  0.00    -0.271 OA
HETATM   10  C   UNL     1      25.918  48.246  49.454  1.00  0.00     0.035 C 
HETATM   11  C   UNL     1      24.507  48.823  49.400  1.00  0.00     0.002 C 
HETATM   12  C   UNL     1      23.537  47.859  48.726  1.00  0.00     0.002 C 
HETATM   13  C   UNL     1      23.524  46.502  49.420  1.00  0.00     0.027 C 
HETATM   14  H   UNL     1      24.311  43.857  49.848  1.00  0.00     0.163 HD
ENDROOT
BRANCH   1  15
HETATM   15  C   UNL     1      25.567  45.738  53.773  1.00  0.00     0.146 C 
BRANCH  15  16
HETATM   16  C   UNL     1      26.249  46.936  54.379  1.00  0.00     0.224 C 
HETATM   17  N   UNL     1      27.467  46.865  54.975  1.00  0.00    -0.327 N 
HETATM   18  H   UNL     1      27.715  47.750  55.412  1.00  0.00     0.169 HD
HETATM   19  O   UNL     1      25.687  48.038  54.293  1.00  0.00    -0.273 OA
BRANCH  17  20
HETATM   20  C   UNL     1      28.426  45.845  55.126  1.00  0.00     0.034 A 
HETATM   21  C   UNL     1      28.543  44.711  54.318  1.00  0.00     0.032 A 
HETATM   22  C   UNL     1      29.545  43.763  54.564  1.00  0.00     0.044 A 
HETATM   23  C   UNL     1      30.438  43.953  55.608  1.00  0.00     0.116 A 
HETATM   24  C   UNL     1      30.356  45.078  56.410  1.00  0.00     0.044 A 
HETATM   25  F   UNL     1      31.394  43.044  55.834  1.00  0.00    -0.206 F 
HETATM   26  C   UNL     1      29.355  46.023  56.166  1.00  0.00     0.032 A 
ENDBRANCH  17  20
ENDBRANCH  15  16
ENDBRANCH   1  15
TORSDOF 3
ENDMDL
MODEL 5
REMARK VINA RESULT:      -8.0      2.854      7.299
REMARK  3 active torsions:
REMARK  status: ('A' for Active; 'I' for Inactive)
REMARK    1  A    between atoms: C_2  and  N_3 
REMARK       I    between atoms: N_3  and  C_4 
REMARK    2  A    between atoms: C_4  and  C_5 
REMARK    3  A    between atoms: C_5  and  C_6 
ROOT
HETATM    1  C   UNL     1      28.638  43.858  54.258  1.00  0.00     0.286 C 
HETATM    2  N   UNL     1      29.659  43.497  55.329  1.00  0.00    -0.056 N 
HETATM    3  H   UNL     1      29.110  43.333  56.199  1.00  0.00     0.278 HD
HETATM    4  H   UNL     1      30.118  42.605  55.109  1.00  0.00     0.278 HD
HETATM    5  C   UNL     1      30.671  44.595  55.546  1.00  0.00     0.209 C 
HETATM    6  C   UNL     1      29.931  45.896  55.952  1.00  0.00     0.115 C 
HETATM    7  N   UNL     1      28.820  46.207  55.051  1.00  0.00    -0.353 N 
HETATM    8  C   UNL     1      28.020  45.258  54.459  1.00  0.00     0.249 C 
HETATM    9  O   UNL     1      26.917  45.567  54.023  1.00  0.00    -0.271 OA
HETATM   10  C   UNL     1      31.696  44.140  56.584  1.00  0.00     0.035 C 
HETATM   11  C   UNL     1      31.144  44.115  58.006  1.00  0.00     0.002 C 
HETATM   12  C   UNL     1      30.517  45.453  58.383  1.00  0.00     0.002 C 
HETATM   13  C   UNL     1      29.423  45.854  57.401  1.00  0.00     0.027 C 
HETATM   14  H   UNL     1      28.368  47.114  55.144  1.00  0.00     0.163 HD
ENDROOT
BRANCH   1  15
HETATM   15  C   UNL     1      27.556  42.778  54.121  1.00  0.00     0.146 C 
BRANCH  15  16
HETATM   16  C   UNL     1      27.722  42.003  52.840  1.00  0.00     0.224 C 
HETATM   17  N   UNL     1      27.193  42.413  51.659  1.00  0.00    -0.327 N 
HETATM   18  H   UNL     1      27.323  41.712  50.933  1.00  0.00     0.169 HD
HETATM   19  O   UNL     1      28.404  40.967  52.864  1.00  0.00    -0.273 OA
BRANCH  17  20
HETATM   20  C   UNL     1      26.504  43.569  51.243  1.00  0.00     0.034 A 
HETATM   21  C   UNL     1      27.063  44.646  50.551  1.00  0.00     0.032 A 
HETATM   22  C   UNL     1      26.274  45.743  50.184  1.00  0.00     0.044 A 
HETATM   23  C   UNL     1      24.922  45.760  50.496  1.00  0.00     0.116 A 
HETATM   24  C   UNL     1      24.339  44.696  51.163  1.00  0.00     0.044 A 
HETATM   25  F   UNL     1      24.174  46.811  50.140  1.00  0.00    -0.206 F 
HETATM   26  C   UNL     1      25.128  43.602  51.530  1.00  0.00     0.032 A 
ENDBRANCH  17  20
ENDBRANCH  15  16
ENDBRANCH   1  15
TORSDOF 3
ENDMDL
MODEL 6
REMARK VINA RESULT:      -7.9     14.210     16.408
REMARK  3 active torsions:
REMARK  status: ('A' for Active; 'I' for Inactive)
REMARK    1  A    between atoms: C_2  and  N_3 
REMARK       I    between atoms: N_3  and  C_4 
REMARK    2  A    between atoms: C_4  and  C_5 
REMARK    3  A    between atoms: C_5  and  C_6 
ROOT
HETATM    1  C   UNL     1      39.631  45.306  64.460  1.00  0.00     0.286 C 
HETATM    2  N   UNL     1      38.511  46.233  64.915  1.00  0.00    -0.056 N 
HETATM    3  H   UNL     1      38.307  46.849  64.100  1.00  0.00     0.278 HD
HETATM    4  H   UNL     1      37.650  45.702  65.093  1.00  0.00     0.278 HD
HETATM    5  C   UNL     1      38.904  47.058  66.115  1.00  0.00     0.209 C 
HETATM    6  C   UNL     1      40.161  47.898  65.765  1.00  0.00     0.115 C 
HETATM    7  N   UNL     1      41.219  47.086  65.161  1.00  0.00    -0.353 N 
HETATM    8  C   UNL     1      40.990  46.026  64.316  1.00  0.00     0.249 C 
HETATM    9  O   UNL     1      41.879  45.625  63.575  1.00  0.00    -0.271 OA
HETATM   10  C   UNL     1      37.715  47.914  66.551  1.00  0.00     0.035 C 
HETATM   11  C   UNL     1      37.433  49.080  65.609  1.00  0.00     0.002 C 
HETATM   12  C   UNL     1      38.681  49.926  65.382  1.00  0.00     0.002 C 
HETATM   13  C   UNL     1      39.836  49.086  64.848  1.00  0.00     0.027 C 
HETATM   14  H   UNL     1      42.135  47.513  65.034  1.00  0.00     0.163 HD
ENDROOT
BRANCH   1  15
HETATM   15  C   UNL     1      39.255  44.549  63.179  1.00  0.00     0.146 C 
BRANCH  15  16
HETATM   16  C   UNL     1      37.835  44.052  63.239  1.00  0.00     0.224 C 
HETATM   17  N   UNL     1      37.521  42.740  63.392  1.00  0.00    -0.327 N 
HETATM   18  H   UNL     1      36.518  42.589  63.307  1.00  0.00     0.169 HD
HETATM   19  O   UNL     1      36.918  44.886  63.186  1.00  0.00    -0.273 OA
BRANCH  17  20
HETATM   20  C   UNL     1      38.275  41.572  63.618  1.00  0.00     0.034 A 
HETATM   21  C   UNL     1      38.461  40.951  64.856  1.00  0.00     0.032 A 
HETATM   22  C   UNL     1      39.231  39.784  64.957  1.00  0.00     0.044 A 
HETATM   23  C   UNL     1      39.804  39.231  63.822  1.00  0.00     0.116 A 
HETATM   24  C   UNL     1      39.618  39.816  62.581  1.00  0.00     0.044 A 
HETATM   25  F   UNL     1      40.536  38.116  63.927  1.00  0.00    -0.206 F 
HETATM   26  C   UNL     1      38.851  40.981  62.480  1.00  0.00     0.032 A 
ENDBRANCH  17  20
ENDBRANCH  15  16
ENDBRANCH   1  15
TORSDOF 3
ENDMDL
MODEL 7
REMARK VINA RESULT:      -7.9      1.771      2.506
REMARK  3 active torsions:
REMARK  status: ('A' for Active; 'I' for Inactive)
REMARK    1  A    between atoms: C_2  and  N_3 
REMARK       I    between atoms: N_3  and  C_4 
REMARK    2  A    between atoms: C_4  and  C_5 
REMARK    3  A    between atoms: C_5  and  C_6 
ROOT
HETATM    1  C   UNL     1      26.304  45.806  53.292  1.00  0.00     0.286 C 
HETATM    2  N   UNL     1      26.945  44.512  52.808  1.00  0.00    -0.056 N 
HETATM    3  H   UNL     1      27.651  44.796  52.096  1.00  0.00     0.278 HD
HETATM    4  H   UNL     1      27.471  44.060  53.566  1.00  0.00     0.278 HD
HETATM    5  C   UNL     1      25.937  43.568  52.201  1.00  0.00     0.209 C 
HETATM    6  C   UNL     1      25.230  44.272  51.014  1.00  0.00     0.115 C 
HETATM    7  N   UNL     1      24.738  45.603  51.372  1.00  0.00    -0.353 N 
HETATM    8  C   UNL     1      25.382  46.456  52.237  1.00  0.00     0.249 C 
HETATM    9  O   UNL     1      25.132  47.655  52.221  1.00  0.00    -0.271 OA
HETATM   10  C   UNL     1      26.639  42.271  51.797  1.00  0.00     0.035 C 
HETATM   11  C   UNL     1      27.517  42.421  50.559  1.00  0.00     0.002 C 
HETATM   12  C   UNL     1      26.741  43.027  49.396  1.00  0.00     0.002 C 
HETATM   13  C   UNL     1      26.128  44.371  49.772  1.00  0.00     0.027 C 
HETATM   14  H   UNL     1      24.131  46.082  50.710  1.00  0.00     0.163 HD
ENDROOT
BRANCH   1  15
HETATM   15  C   UNL     1      27.354  46.798  53.811  1.00  0.00     0.146 C 
BRANCH  15  16
HETATM   16  C   UNL     1      27.050  47.220  55.225  1.00  0.00     0.224 C 
HETATM   17  N   UNL     1      27.733  46.742  56.297  1.00  0.00    -0.327 N 
HETATM   18  H   UNL     1      27.319  47.062  57.170  1.00  0.00     0.169 HD
HETATM   19  O   UNL     1      26.163  48.067  55.408  1.00  0.00    -0.273 OA
BRANCH  17  20
HETATM   20  C   UNL     1      28.855  45.904  56.450  1.00  0.00     0.034 A 
HETATM   21  C   UNL     1      29.355  45.028  55.483  1.00  0.00     0.032 A 
HETATM   22  C   UNL     1      30.486  44.245  55.749  1.00  0.00     0.044 A 
HETATM   23  C   UNL     1      31.127  44.347  56.976  1.00  0.00     0.116 A 
HETATM   24  C   UNL     1      30.663  45.223  57.943  1.00  0.00     0.044 A 
HETATM   25  F   UNL     1      32.207  43.598  57.222  1.00  0.00    -0.206 F 
HETATM   26  C   UNL     1      29.533  46.002  57.677  1.00  0.00     0.032 A 
ENDBRANCH  17  20
ENDBRANCH  15  16
ENDBRANCH   1  15
TORSDOF 3
ENDMDL
MODEL 8
REMARK VINA RESULT:      -7.8     13.385     15.684
REMARK  3 active torsions:
REMARK  status: ('A' for Active; 'I' for Inactive)
REMARK    1  A    between atoms: C_2  and  N_3 
REMARK       I    between atoms: N_3  and  C_4 
REMARK    2  A    between atoms: C_4  and  C_5 
REMARK    3  A    between atoms: C_5  and  C_6 
ROOT
HETATM    1  C   UNL     1      33.353  50.385  41.423  1.00  0.00     0.286 C 
HETATM    2  N   UNL     1      32.547  49.505  40.477  1.00  0.00    -0.056 N 
HETATM    3  H   UNL     1      31.718  50.074  40.200  1.00  0.00     0.278 HD
HETATM    4  H   UNL     1      33.070  49.325  39.612  1.00  0.00     0.278 HD
HETATM    5  C   UNL     1      32.108  48.218  41.130  1.00  0.00     0.209 C 
HETATM    6  C   UNL     1      31.256  48.548  42.384  1.00  0.00     0.115 C 
HETATM    7  N   UNL     1      31.908  49.527  43.255  1.00  0.00    -0.353 N 
HETATM    8  C   UNL     1      32.678  50.572  42.799  1.00  0.00     0.249 C 
HETATM    9  O   UNL     1      32.891  51.541  43.518  1.00  0.00    -0.271 OA
HETATM   10  C   UNL     1      31.361  47.362  40.107  1.00  0.00     0.035 C 
HETATM   11  C   UNL     1      29.966  47.888  39.782  1.00  0.00     0.002 C 
HETATM   12  C   UNL     1      29.143  48.100  41.048  1.00  0.00     0.002 C 
HETATM   13  C   UNL     1      29.846  49.038  42.022  1.00  0.00     0.027 C 
HETATM   14  H   UNL     1      31.501  49.697  44.172  1.00  0.00     0.163 HD
ENDROOT
BRANCH   1  15
HETATM   15  C   UNL     1      33.705  51.734  40.780  1.00  0.00     0.146 C 
BRANCH  15  16
HETATM   16  C   UNL     1      33.252  51.786  39.344  1.00  0.00     0.224 C 
HETATM   17  N   UNL     1      31.951  51.939  38.989  1.00  0.00    -0.327 N 
HETATM   18  H   UNL     1      31.830  51.847  37.983  1.00  0.00     0.169 HD
HETATM   19  O   UNL     1      34.113  51.723  38.454  1.00  0.00    -0.273 OA
BRANCH  17  20
HETATM   20  C   UNL     1      30.760  52.174  39.705  1.00  0.00     0.034 A 
HETATM   21  C   UNL     1      30.643  52.964  40.851  1.00  0.00     0.032 A 
HETATM   22  C   UNL     1      29.400  53.129  41.476  1.00  0.00     0.044 A 
HETATM   23  C   UNL     1      28.272  52.516  40.950  1.00  0.00     0.116 A 
HETATM   24  C   UNL     1      28.359  51.745  39.803  1.00  0.00     0.044 A 
HETATM   25  F   UNL     1      27.088  52.681  41.552  1.00  0.00    -0.206 F 
HETATM   26  C   UNL     1      29.599  51.579  39.181  1.00  0.00     0.032 A 
ENDBRANCH  17  20
ENDBRANCH  15  16
ENDBRANCH   1  15
TORSDOF 3
ENDMDL
MODEL 9
REMARK VINA RESULT:      -7.8      2.826      3.799
REMARK  3 active torsions:
REMARK  status: ('A' for Active; 'I' for Inactive)
REMARK    1  A    between atoms: C_2  and  N_3 
REMARK       I    between atoms: N_3  and  C_4 
REMARK    2  A    between atoms: C_4  and  C_5 
REMARK    3  A    between atoms: C_5  and  C_6 
ROOT
HETATM    1  C   UNL     1      26.687  43.319  50.971  1.00  0.00     0.286 C 
HETATM    2  N   UNL     1      26.991  41.827  51.023  1.00  0.00    -0.056 N 
HETATM    3  H   UNL     1      27.980  41.730  50.709  1.00  0.00     0.278 HD
HETATM    4  H   UNL     1      26.964  41.483  51.990  1.00  0.00     0.278 HD
HETATM    5  C   UNL     1      26.075  41.027  50.130  1.00  0.00     0.209 C 
HETATM    6  C   UNL     1      26.215  41.535  48.671  1.00  0.00     0.115 C 
HETATM    7  N   UNL     1      26.101  42.991  48.578  1.00  0.00    -0.353 N 
HETATM    8  C   UNL     1      26.572  43.863  49.531  1.00  0.00     0.249 C 
HETATM    9  O   UNL     1      26.774  45.037  49.247  1.00  0.00    -0.271 OA
HETATM   10  C   UNL     1      26.396  39.540  50.280  1.00  0.00     0.035 C 
HETATM   11  C   UNL     1      27.706  39.135  49.610  1.00  0.00     0.002 C 
HETATM   12  C   UNL     1      27.743  39.574  48.151  1.00  0.00     0.002 C 
HETATM   13  C   UNL     1      27.525  41.077  48.014  1.00  0.00     0.027 C 
HETATM   14  H   UNL     1      26.030  43.406  47.651  1.00  0.00     0.163 HD
ENDROOT
BRANCH   1  15
HETATM   15  C   UNL     1      27.691  44.130  51.802  1.00  0.00     0.146 C 
BRANCH  15  16
HETATM   16  C   UNL     1      26.992  44.923  52.875  1.00  0.00     0.224 C 
HETATM   17  N   UNL     1      27.482  45.045  54.135  1.00  0.00    -0.327 N 
HETATM   18  H   UNL     1      26.823  45.530  54.741  1.00  0.00     0.169 HD
HETATM   19  O   UNL     1      25.946  45.519  52.578  1.00  0.00    -0.273 OA
BRANCH  17  20
HETATM   20  C   UNL     1      28.672  44.636  54.769  1.00  0.00     0.034 A 
HETATM   21  C   UNL     1      29.310  43.406  54.586  1.00  0.00     0.032 A 
HETATM   22  C   UNL     1      30.497  43.113  55.269  1.00  0.00     0.044 A 
HETATM   23  C   UNL     1      31.055  44.051  56.125  1.00  0.00     0.116 A 
HETATM   24  C   UNL     1      30.453  45.285  56.307  1.00  0.00     0.044 A 
HETATM   25  F   UNL     1      32.191  43.764  56.772  1.00  0.00    -0.206 F 
HETATM   26  C   UNL     1      29.268  45.576  55.627  1.00  0.00     0.032 A 
ENDBRANCH  17  20
ENDBRANCH  15  16
ENDBRANCH   1  15
TORSDOF 3
ENDMDL
MODEL 10
REMARK VINA RESULT:      -7.7      1.847      2.445
REMARK  3 active torsions:
REMARK  status: ('A' for Active; 'I' for Inactive)
REMARK    1  A    between atoms: C_2  and  N_3 
REMARK       I    between atoms: N_3  and  C_4 
REMARK    2  A    between atoms: C_4  and  C_5 
REMARK    3  A    between atoms: C_5  and  C_6 
ROOT
HETATM    1  C   UNL     1      27.824  43.159  52.378  1.00  0.00     0.286 C 
HETATM    2  N   UNL     1      26.715  43.337  51.350  1.00  0.00    -0.056 N 
HETATM    3  H   UNL     1      25.905  42.791  51.711  1.00  0.00     0.278 HD
HETATM    4  H   UNL     1      26.406  44.316  51.314  1.00  0.00     0.278 HD
HETATM    5  C   UNL     1      27.118  42.840  49.984  1.00  0.00     0.209 C 
HETATM    6  C   UNL     1      27.499  41.339  50.080  1.00  0.00     0.115 C 
HETATM    7  N   UNL     1      28.440  41.075  51.170  1.00  0.00    -0.353 N 
HETATM    8  C   UNL     1      28.430  41.738  52.375  1.00  0.00     0.249 C 
HETATM    9  O   UNL     1      28.980  41.248  53.353  1.00  0.00    -0.271 OA
HETATM   10  C   UNL     1      25.984  43.107  48.994  1.00  0.00     0.035 C 
HETATM   11  C   UNL     1      24.788  42.179  49.182  1.00  0.00     0.002 C 
HETATM   12  C   UNL     1      25.212  40.715  49.170  1.00  0.00     0.002 C 
HETATM   13  C   UNL     1      26.270  40.430  50.229  1.00  0.00     0.027 C 
HETATM   14  H   UNL     1      28.865  40.151  51.222  1.00  0.00     0.163 HD
ENDROOT
BRANCH   1  15
HETATM   15  C   UNL     1      27.366  43.573  53.784  1.00  0.00     0.146 C 
BRANCH  15  16
HETATM   16  C   UNL     1      27.324  45.072  53.921  1.00  0.00     0.224 C 
HETATM   17  N   UNL     1      28.087  45.749  54.817  1.00  0.00    -0.327 N 
HETATM   18  H   UNL     1      27.848  46.738  54.833  1.00  0.00     0.169 HD
HETATM   19  O   UNL     1      26.589  45.713  53.155  1.00  0.00    -0.273 OA
BRANCH  17  20
HETATM   20  C   UNL     1      29.103  45.375  55.719  1.00  0.00     0.034 A 
HETATM   21  C   UNL     1      29.307  45.925  56.987  1.00  0.00     0.032 A 
HETATM   22  C   UNL     1      30.352  45.467  57.801  1.00  0.00     0.044 A 
HETATM   23  C   UNL     1      31.184  44.450  57.355  1.00  0.00     0.116 A 
HETATM   24  C   UNL     1      30.989  43.875  56.110  1.00  0.00     0.044 A 
HETATM   25  F   UNL     1      32.178  44.016  58.139  1.00  0.00    -0.206 F 
HETATM   26  C   UNL     1      29.948  44.334  55.298  1.00  0.00     0.032 A 
ENDBRANCH  17  20
ENDBRANCH  15  16
ENDBRANCH   1  15
TORSDOF 3
ENDMDL
