MODEL 1
REMARK VINA RESULT:      -9.2      0.000      0.000
REMARK  9 active torsions:
REMARK  status: ('A' for Active; 'I' for Inactive)
REMARK    1  A    between atoms: C_3  and  C_4 
REMARK       I    between atoms: C_4  and  N_5 
REMARK    2  A    between atoms: N_5  and  N_6 
REMARK    3  A    between atoms: N_6  and  C_7 
REMARK    4  A    between atoms: C_7  and  N_8 
REMARK    5  A    between atoms: N_8  and  C_9 
REMARK    6  A    between atoms: C_9  and  C_10 
REMARK    7  A    between atoms: C_18  and  C_19 
REMARK    8  A    between atoms: C_19  and  O_20 
REMARK    9  A    between atoms: O_20  and  C_21 
ROOT
HETATM    1  C   UNL     1      26.196  46.911  53.450  1.00  0.00     0.069 A 
HETATM    2  C   UNL     1      26.400  47.847  54.466  1.00  0.00     0.038 A 
HETATM    3  C   UNL     1      27.294  47.571  55.508  1.00  0.00     0.025 A 
HETATM    4  C   UNL     1      27.987  46.357  55.541  1.00  0.00     0.044 A 
HETATM    5  C   UNL     1      28.902  46.080  56.609  1.00  0.00     0.099 C 
HETATM    6  N   UNL     1      29.643  45.864  57.477  1.00  0.00    -0.191 NA
HETATM    7  C   UNL     1      27.784  45.421  54.525  1.00  0.00     0.025 A 
HETATM    8  C   UNL     1      26.892  45.701  53.486  1.00  0.00     0.038 A 
ENDROOT
BRANCH   1   9
HETATM    9  O   UNL     1      25.359  47.057  52.377  1.00  0.00    -0.347 OA
BRANCH   9  10
HETATM   10  C   UNL     1      25.851  46.606  51.119  1.00  0.00     0.214 C 
BRANCH  10  11
HETATM   11  C   UNL     1      25.931  47.768  50.161  1.00  0.00    -0.033 A 
HETATM   12  C   UNL     1      24.759  48.309  49.604  1.00  0.00     0.026 A 
HETATM   13  C   UNL     1      24.834  49.300  48.619  1.00  0.00     0.034 A 
HETATM   14  C   UNL     1      26.088  49.821  48.266  1.00  0.00     0.017 A 
HETATM   15  C   UNL     1      27.251  49.330  48.856  1.00  0.00     0.002 A 
HETATM   16  C   UNL     1      27.175  48.300  49.790  1.00  0.00     0.009 A 
BRANCH  13  17
HETATM   17  C   UNL     1      23.643  49.878  47.942  1.00  0.00     0.270 C 
HETATM   18  N   UNL     1      22.441  49.208  47.867  1.00  0.00    -0.264 N 
HETATM   19  H   UNL     1      21.723  49.668  47.309  1.00  0.00     0.190 HD
HETATM   20  O   UNL     1      23.747  50.984  47.411  1.00  0.00    -0.266 OA
BRANCH  18  21
HETATM   21  N   UNL     1      22.191  47.870  48.192  1.00  0.00    -0.274 N 
HETATM   22  H   UNL     1      22.690  47.140  47.680  1.00  0.00     0.189 HD
BRANCH  21  23
HETATM   23  C   UNL     1      20.976  47.504  48.718  1.00  0.00     0.186 C 
HETATM   24  S   UNL     1      20.101  46.140  48.307  1.00  0.00    -0.040 SA
BRANCH  23  25
HETATM   25  N   UNL     1      20.424  48.377  49.615  1.00  0.00    -0.364 N 
HETATM   26  H   UNL     1      20.655  48.163  50.579  1.00  0.00     0.162 HD
BRANCH  25  27
HETATM   27  C   UNL     1      19.248  49.209  49.382  1.00  0.00     0.154 C 
BRANCH  27  28
HETATM   28  C   UNL     1      19.341  50.626  49.967  1.00  0.00     0.139 C 
HETATM   29  O   UNL     1      18.025  51.120  50.291  1.00  0.00    -0.384 OA
HETATM   30  C   UNL     1      17.871  52.411  49.684  1.00  0.00     0.168 C 
HETATM   31  C   UNL     1      18.831  52.444  48.517  1.00  0.00     0.029 C 
HETATM   32  C   UNL     1      19.996  51.644  49.043  1.00  0.00     0.035 C 
ENDBRANCH  27  28
ENDBRANCH  25  27
ENDBRANCH  23  25
ENDBRANCH  21  23
ENDBRANCH  18  21
ENDBRANCH  13  17
ENDBRANCH  10  11
ENDBRANCH   9  10
ENDBRANCH   1   9
TORSDOF 9
ENDMDL
MODEL 2
REMARK VINA RESULT:      -9.0      1.940      2.906
REMARK  9 active torsions:
REMARK  status: ('A' for Active; 'I' for Inactive)
REMARK    1  A    between atoms: C_3  and  C_4 
REMARK       I    between atoms: C_4  and  N_5 
REMARK    2  A    between atoms: N_5  and  N_6 
REMARK    3  A    between atoms: N_6  and  C_7 
REMARK    4  A    between atoms: C_7  and  N_8 
REMARK    5  A    between atoms: N_8  and  C_9 
REMARK    6  A    between atoms: C_9  and  C_10 
REMARK    7  A    between atoms: C_18  and  C_19 
REMARK    8  A    between atoms: C_19  and  O_20 
REMARK    9  A    between atoms: O_20  and  C_21 
ROOT
HETATM    1  C   UNL     1      28.277  45.606  54.705  1.00  0.00     0.069 A 
HETATM    2  C   UNL     1      28.877  46.214  55.809  1.00  0.00     0.038 A 
HETATM    3  C   UNL     1      29.914  45.567  56.493  1.00  0.00     0.025 A 
HETATM    4  C   UNL     1      30.356  44.307  56.077  1.00  0.00     0.044 A 
HETATM    5  C   UNL     1      31.418  43.649  56.779  1.00  0.00     0.099 C 
HETATM    6  N   UNL     1      32.281  43.125  57.352  1.00  0.00    -0.191 NA
HETATM    7  C   UNL     1      29.756  43.698  54.973  1.00  0.00     0.025 A 
HETATM    8  C   UNL     1      28.723  44.348  54.292  1.00  0.00     0.038 A 
ENDROOT
BRANCH   1   9
HETATM    9  O   UNL     1      27.263  46.129  53.949  1.00  0.00    -0.347 OA
BRANCH   9  10
HETATM   10  C   UNL     1      26.043  45.394  53.924  1.00  0.00     0.214 C 
BRANCH  10  11
HETATM   11  C   UNL     1      25.512  45.344  52.513  1.00  0.00    -0.033 A 
HETATM   12  C   UNL     1      25.175  46.532  51.841  1.00  0.00     0.026 A 
HETATM   13  C   UNL     1      24.563  46.487  50.584  1.00  0.00     0.034 A 
HETATM   14  C   UNL     1      24.381  45.246  49.956  1.00  0.00     0.017 A 
HETATM   15  C   UNL     1      24.766  44.066  50.591  1.00  0.00     0.002 A 
HETATM   16  C   UNL     1      25.317  44.114  51.869  1.00  0.00     0.009 A 
BRANCH  13  17
HETATM   17  C   UNL     1      24.124  47.697  49.839  1.00  0.00     0.270 C 
HETATM   18  N   UNL     1      22.887  47.784  49.239  1.00  0.00    -0.264 N 
HETATM   19  H   UNL     1      22.731  48.629  48.689  1.00  0.00     0.190 HD
HETATM   20  O   UNL     1      24.908  48.641  49.737  1.00  0.00    -0.266 OA
BRANCH  18  21
HETATM   21  N   UNL     1      21.963  46.753  49.040  1.00  0.00    -0.274 N 
HETATM   22  H   UNL     1      22.254  45.930  48.509  1.00  0.00     0.189 HD
BRANCH  21  23
HETATM   23  C   UNL     1      20.617  47.027  49.024  1.00  0.00     0.186 C 
HETATM   24  S   UNL     1      19.445  46.130  48.238  1.00  0.00    -0.040 SA
BRANCH  23  25
HETATM   25  N   UNL     1      20.231  48.171  49.665  1.00  0.00    -0.364 N 
HETATM   26  H   UNL     1      20.308  48.112  50.675  1.00  0.00     0.162 HD
BRANCH  25  27
HETATM   27  C   UNL     1      19.337  49.192  49.126  1.00  0.00     0.154 C 
BRANCH  27  28
HETATM   28  C   UNL     1      19.454  50.565  49.802  1.00  0.00     0.139 C 
HETATM   29  O   UNL     1      18.158  51.014  50.249  1.00  0.00    -0.384 OA
HETATM   30  C   UNL     1      17.948  52.341  49.747  1.00  0.00     0.168 C 
HETATM   31  C   UNL     1      18.824  52.471  48.523  1.00  0.00     0.029 C 
HETATM   32  C   UNL     1      20.032  51.657  48.910  1.00  0.00     0.035 C 
ENDBRANCH  27  28
ENDBRANCH  25  27
ENDBRANCH  23  25
ENDBRANCH  21  23
ENDBRANCH  18  21
ENDBRANCH  13  17
ENDBRANCH  10  11
ENDBRANCH   9  10
ENDBRANCH   1   9
TORSDOF 9
ENDMDL
MODEL 3
REMARK VINA RESULT:      -8.2      2.562      3.716
REMARK  9 active torsions:
REMARK  status: ('A' for Active; 'I' for Inactive)
REMARK    1  A    between atoms: C_3  and  C_4 
REMARK       I    between atoms: C_4  and  N_5 
REMARK    2  A    between atoms: N_5  and  N_6 
REMARK    3  A    between atoms: N_6  and  C_7 
REMARK    4  A    between atoms: C_7  and  N_8 
REMARK    5  A    between atoms: N_8  and  C_9 
REMARK    6  A    between atoms: C_9  and  C_10 
REMARK    7  A    between atoms: C_18  and  C_19 
REMARK    8  A    between atoms: C_19  and  O_20 
REMARK    9  A    between atoms: O_20  and  C_21 
ROOT
HETATM    1  C   UNL     1      28.384  44.173  53.496  1.00  0.00     0.069 A 
HETATM    2  C   UNL     1      29.367  43.184  53.432  1.00  0.00     0.038 A 
HETATM    3  C   UNL     1      30.312  43.062  54.457  1.00  0.00     0.025 A 
HETATM    4  C   UNL     1      30.281  43.930  55.553  1.00  0.00     0.044 A 
HETATM    5  C   UNL     1      31.250  43.801  56.602  1.00  0.00     0.099 C 
HETATM    6  N   UNL     1      32.038  43.688  57.447  1.00  0.00    -0.191 NA
HETATM    7  C   UNL     1      29.299  44.920  55.618  1.00  0.00     0.025 A 
HETATM    8  C   UNL     1      28.356  45.038  54.593  1.00  0.00     0.038 A 
ENDROOT
BRANCH   1   9
HETATM    9  O   UNL     1      27.403  44.396  52.568  1.00  0.00    -0.347 OA
BRANCH   9  10
HETATM   10  C   UNL     1      26.593  45.552  52.762  1.00  0.00     0.214 C 
BRANCH  10  11
HETATM   11  C   UNL     1      25.663  45.721  51.586  1.00  0.00    -0.033 A 
HETATM   12  C   UNL     1      25.505  46.982  50.984  1.00  0.00     0.026 A 
HETATM   13  C   UNL     1      24.551  47.173  49.979  1.00  0.00     0.034 A 
HETATM   14  C   UNL     1      23.824  46.070  49.507  1.00  0.00     0.017 A 
HETATM   15  C   UNL     1      24.016  44.805  50.059  1.00  0.00     0.002 A 
HETATM   16  C   UNL     1      24.923  44.633  51.103  1.00  0.00     0.009 A 
BRANCH  13  17
HETATM   17  C   UNL     1      24.285  48.487  49.337  1.00  0.00     0.270 C 
HETATM   18  N   UNL     1      23.031  49.059  49.320  1.00  0.00    -0.264 N 
HETATM   19  H   UNL     1      22.956  49.920  48.780  1.00  0.00     0.190 HD
HETATM   20  O   UNL     1      25.217  49.070  48.782  1.00  0.00    -0.266 OA
BRANCH  18  21
HETATM   21  N   UNL     1      21.819  48.460  49.678  1.00  0.00    -0.274 N 
HETATM   22  H   UNL     1      21.822  47.479  49.965  1.00  0.00     0.189 HD
BRANCH  21  23
HETATM   23  C   UNL     1      20.638  48.921  49.146  1.00  0.00     0.186 C 
HETATM   24  S   UNL     1      19.596  50.008  49.871  1.00  0.00    -0.040 SA
BRANCH  23  25
HETATM   25  N   UNL     1      20.276  48.385  47.941  1.00  0.00    -0.364 N 
HETATM   26  H   UNL     1      20.027  49.084  47.248  1.00  0.00     0.162 HD
BRANCH  25  27
HETATM   27  C   UNL     1      19.780  47.030  47.724  1.00  0.00     0.154 C 
BRANCH  27  28
HETATM   28  C   UNL     1      18.331  46.952  47.223  1.00  0.00     0.139 C 
HETATM   29  O   UNL     1      17.780  48.277  47.078  1.00  0.00    -0.384 OA
HETATM   30  C   UNL     1      16.529  48.319  47.779  1.00  0.00     0.168 C 
HETATM   31  C   UNL     1      16.600  47.238  48.832  1.00  0.00     0.029 C 
HETATM   32  C   UNL     1      17.394  46.166  48.131  1.00  0.00     0.035 C 
ENDBRANCH  27  28
ENDBRANCH  25  27
ENDBRANCH  23  25
ENDBRANCH  21  23
ENDBRANCH  18  21
ENDBRANCH  13  17
ENDBRANCH  10  11
ENDBRANCH   9  10
ENDBRANCH   1   9
TORSDOF 9
ENDMDL
MODEL 4
REMARK VINA RESULT:      -8.2     11.986     13.528
REMARK  9 active torsions:
REMARK  status: ('A' for Active; 'I' for Inactive)
REMARK    1  A    between atoms: C_3  and  C_4 
REMARK       I    between atoms: C_4  and  N_5 
REMARK    2  A    between atoms: N_5  and  N_6 
REMARK    3  A    between atoms: N_6  and  C_7 
REMARK    4  A    between atoms: C_7  and  N_8 
REMARK    5  A    between atoms: N_8  and  C_9 
REMARK    6  A    between atoms: C_9  and  C_10 
REMARK    7  A    between atoms: C_18  and  C_19 
REMARK    8  A    between atoms: C_19  and  O_20 
REMARK    9  A    between atoms: O_20  and  C_21 
ROOT
HETATM    1  C   UNL     1      31.790  48.754  41.686  1.00  0.00     0.069 A 
HETATM    2  C   UNL     1      33.118  48.677  41.262  1.00  0.00     0.038 A 
HETATM    3  C   UNL     1      34.053  49.622  41.701  1.00  0.00     0.025 A 
HETATM    4  C   UNL     1      33.666  50.650  42.566  1.00  0.00     0.044 A 
HETATM    5  C   UNL     1      34.627  51.614  43.015  1.00  0.00     0.099 C 
HETATM    6  N   UNL     1      35.413  52.390  43.374  1.00  0.00    -0.191 NA
HETATM    7  C   UNL     1      32.338  50.728  42.991  1.00  0.00     0.025 A 
HETATM    8  C   UNL     1      31.408  49.782  42.552  1.00  0.00     0.038 A 
ENDROOT
BRANCH   1   9
HETATM    9  O   UNL     1      30.782  47.897  41.337  1.00  0.00    -0.347 OA
BRANCH   9  10
HETATM   10  C   UNL     1      30.807  47.393  40.005  1.00  0.00     0.214 C 
BRANCH  10  11
HETATM   11  C   UNL     1      29.396  47.251  39.492  1.00  0.00    -0.033 A 
HETATM   12  C   UNL     1      28.786  48.309  38.795  1.00  0.00     0.026 A 
HETATM   13  C   UNL     1      27.438  48.235  38.430  1.00  0.00     0.034 A 
HETATM   14  C   UNL     1      26.727  47.050  38.675  1.00  0.00     0.017 A 
HETATM   15  C   UNL     1      27.341  45.974  39.315  1.00  0.00     0.002 A 
HETATM   16  C   UNL     1      28.665  46.079  39.733  1.00  0.00     0.009 A 
BRANCH  13  17
HETATM   17  C   UNL     1      26.710  49.334  37.745  1.00  0.00     0.270 C 
HETATM   18  N   UNL     1      26.562  50.583  38.308  1.00  0.00    -0.264 N 
HETATM   19  H   UNL     1      25.974  51.229  37.782  1.00  0.00     0.190 HD
HETATM   20  O   UNL     1      26.201  49.109  36.645  1.00  0.00    -0.266 OA
BRANCH  18  21
HETATM   21  N   UNL     1      26.851  50.963  39.623  1.00  0.00    -0.274 N 
HETATM   22  H   UNL     1      26.112  50.899  40.326  1.00  0.00     0.189 HD
BRANCH  21  23
HETATM   23  C   UNL     1      27.831  51.893  39.873  1.00  0.00     0.186 C 
HETATM   24  S   UNL     1      28.249  52.496  41.375  1.00  0.00    -0.040 SA
BRANCH  23  25
HETATM   25  N   UNL     1      28.469  52.400  38.774  1.00  0.00    -0.364 N 
HETATM   26  H   UNL     1      27.873  52.983  38.196  1.00  0.00     0.162 HD
BRANCH  25  27
HETATM   27  C   UNL     1      29.661  51.840  38.145  1.00  0.00     0.154 C 
BRANCH  27  28
HETATM   28  C   UNL     1      30.752  51.394  39.128  1.00  0.00     0.139 C 
HETATM   29  O   UNL     1      31.326  52.539  39.792  1.00  0.00    -0.384 OA
HETATM   30  C   UNL     1      32.753  52.464  39.658  1.00  0.00     0.168 C 
HETATM   31  C   UNL     1      33.016  51.625  38.429  1.00  0.00     0.029 C 
HETATM   32  C   UNL     1      31.896  50.618  38.487  1.00  0.00     0.035 C 
ENDBRANCH  27  28
ENDBRANCH  25  27
ENDBRANCH  23  25
ENDBRANCH  21  23
ENDBRANCH  18  21
ENDBRANCH  13  17
ENDBRANCH  10  11
ENDBRANCH   9  10
ENDBRANCH   1   9
TORSDOF 9
ENDMDL
MODEL 5
REMARK VINA RESULT:      -8.2      2.562      3.886
REMARK  9 active torsions:
REMARK  status: ('A' for Active; 'I' for Inactive)
REMARK    1  A    between atoms: C_3  and  C_4 
REMARK       I    between atoms: C_4  and  N_5 
REMARK    2  A    between atoms: N_5  and  N_6 
REMARK    3  A    between atoms: N_6  and  C_7 
REMARK    4  A    between atoms: C_7  and  N_8 
REMARK    5  A    between atoms: N_8  and  C_9 
REMARK    6  A    between atoms: C_9  and  C_10 
REMARK    7  A    between atoms: C_18  and  C_19 
REMARK    8  A    between atoms: C_19  and  O_20 
REMARK    9  A    between atoms: O_20  and  C_21 
ROOT
HETATM    1  C   UNL     1      28.405  42.531  52.744  1.00  0.00     0.069 A 
HETATM    2  C   UNL     1      29.782  42.395  52.930  1.00  0.00     0.038 A 
HETATM    3  C   UNL     1      30.421  43.069  53.978  1.00  0.00     0.025 A 
HETATM    4  C   UNL     1      29.687  43.884  54.845  1.00  0.00     0.044 A 
HETATM    5  C   UNL     1      30.346  44.571  55.917  1.00  0.00     0.099 C 
HETATM    6  N   UNL     1      30.887  45.122  56.785  1.00  0.00    -0.191 NA
HETATM    7  C   UNL     1      28.310  44.022  54.659  1.00  0.00     0.025 A 
HETATM    8  C   UNL     1      27.675  43.346  53.613  1.00  0.00     0.038 A 
ENDROOT
BRANCH   1   9
HETATM    9  O   UNL     1      27.660  41.928  51.767  1.00  0.00    -0.347 OA
BRANCH   9  10
HETATM   10  C   UNL     1      27.497  42.653  50.552  1.00  0.00     0.214 C 
BRANCH  10  11
HETATM   11  C   UNL     1      26.144  43.322  50.541  1.00  0.00    -0.033 A 
HETATM   12  C   UNL     1      26.046  44.720  50.650  1.00  0.00     0.026 A 
HETATM   13  C   UNL     1      24.795  45.336  50.770  1.00  0.00     0.034 A 
HETATM   14  C   UNL     1      23.635  44.552  50.677  1.00  0.00     0.017 A 
HETATM   15  C   UNL     1      23.724  43.171  50.511  1.00  0.00     0.002 A 
HETATM   16  C   UNL     1      24.973  42.557  50.456  1.00  0.00     0.009 A 
BRANCH  13  17
HETATM   17  C   UNL     1      24.613  46.800  50.948  1.00  0.00     0.270 C 
HETATM   18  N   UNL     1      23.839  47.556  50.095  1.00  0.00    -0.264 N 
HETATM   19  H   UNL     1      23.856  48.560  50.270  1.00  0.00     0.190 HD
HETATM   20  O   UNL     1      25.198  47.357  51.879  1.00  0.00    -0.266 OA
BRANCH  18  21
HETATM   21  N   UNL     1      23.297  47.164  48.866  1.00  0.00    -0.274 N 
HETATM   22  H   UNL     1      23.896  47.181  48.038  1.00  0.00     0.189 HD
BRANCH  21  23
HETATM   23  C   UNL     1      21.951  47.305  48.629  1.00  0.00     0.186 C 
HETATM   24  S   UNL     1      20.867  46.059  48.371  1.00  0.00    -0.040 SA
BRANCH  23  25
HETATM   25  N   UNL     1      21.489  48.589  48.544  1.00  0.00    -0.364 N 
HETATM   26  H   UNL     1      22.229  49.279  48.467  1.00  0.00     0.162 HD
BRANCH  25  27
HETATM   27  C   UNL     1      20.188  49.061  49.009  1.00  0.00     0.154 C 
BRANCH  27  28
HETATM   28  C   UNL     1      20.213  50.437  49.689  1.00  0.00     0.139 C 
HETATM   29  O   UNL     1      18.918  50.742  50.247  1.00  0.00    -0.384 OA
HETATM   30  C   UNL     1      18.525  52.041  49.779  1.00  0.00     0.168 C 
HETATM   31  C   UNL     1      19.277  52.268  48.489  1.00  0.00     0.029 C 
HETATM   32  C   UNL     1      20.594  51.587  48.765  1.00  0.00     0.035 C 
ENDBRANCH  27  28
ENDBRANCH  25  27
ENDBRANCH  23  25
ENDBRANCH  21  23
ENDBRANCH  18  21
ENDBRANCH  13  17
ENDBRANCH  10  11
ENDBRANCH   9  10
ENDBRANCH   1   9
TORSDOF 9
ENDMDL
MODEL 6
REMARK VINA RESULT:      -8.1      3.567      5.663
REMARK  9 active torsions:
REMARK  status: ('A' for Active; 'I' for Inactive)
REMARK    1  A    between atoms: C_3  and  C_4 
REMARK       I    between atoms: C_4  and  N_5 
REMARK    2  A    between atoms: N_5  and  N_6 
REMARK    3  A    between atoms: N_6  and  C_7 
REMARK    4  A    between atoms: C_7  and  N_8 
REMARK    5  A    between atoms: N_8  and  C_9 
REMARK    6  A    between atoms: C_9  and  C_10 
REMARK    7  A    between atoms: C_18  and  C_19 
REMARK    8  A    between atoms: C_19  and  O_20 
REMARK    9  A    between atoms: O_20  and  C_21 
ROOT
HETATM    1  C   UNL     1      28.375  43.925  53.463  1.00  0.00     0.069 A 
HETATM    2  C   UNL     1      29.294  42.874  53.474  1.00  0.00     0.038 A 
HETATM    3  C   UNL     1      30.255  42.789  54.488  1.00  0.00     0.025 A 
HETATM    4  C   UNL     1      30.305  43.756  55.497  1.00  0.00     0.044 A 
HETATM    5  C   UNL     1      31.290  43.664  56.534  1.00  0.00     0.099 C 
HETATM    6  N   UNL     1      32.091  43.580  57.371  1.00  0.00    -0.191 NA
HETATM    7  C   UNL     1      29.387  44.808  55.487  1.00  0.00     0.025 A 
HETATM    8  C   UNL     1      28.428  44.888  54.474  1.00  0.00     0.038 A 
ENDROOT
BRANCH   1   9
HETATM    9  O   UNL     1      27.387  44.122  52.537  1.00  0.00    -0.347 OA
BRANCH   9  10
HETATM   10  C   UNL     1      27.792  44.161  51.172  1.00  0.00     0.214 C 
BRANCH  10  11
HETATM   11  C   UNL     1      26.768  43.451  50.321  1.00  0.00    -0.033 A 
HETATM   12  C   UNL     1      25.401  43.739  50.469  1.00  0.00     0.026 A 
HETATM   13  C   UNL     1      24.439  42.995  49.777  1.00  0.00     0.034 A 
HETATM   14  C   UNL     1      24.859  42.024  48.856  1.00  0.00     0.017 A 
HETATM   15  C   UNL     1      26.216  41.770  48.661  1.00  0.00     0.002 A 
HETATM   16  C   UNL     1      27.166  42.472  49.399  1.00  0.00     0.009 A 
BRANCH  13  17
HETATM   17  C   UNL     1      22.975  43.201  49.926  1.00  0.00     0.270 C 
HETATM   18  N   UNL     1      22.264  44.053  49.108  1.00  0.00    -0.264 N 
HETATM   19  H   UNL     1      21.283  44.175  49.359  1.00  0.00     0.190 HD
HETATM   20  O   UNL     1      22.386  42.607  50.830  1.00  0.00    -0.266 OA
BRANCH  18  21
HETATM   21  N   UNL     1      22.777  44.982  48.197  1.00  0.00    -0.274 N 
HETATM   22  H   UNL     1      23.693  44.806  47.780  1.00  0.00     0.189 HD
BRANCH  21  23
HETATM   23  C   UNL     1      22.400  46.301  48.272  1.00  0.00     0.186 C 
HETATM   24  S   UNL     1      21.251  47.048  47.314  1.00  0.00    -0.040 SA
BRANCH  23  25
HETATM   25  N   UNL     1      23.080  47.067  49.178  1.00  0.00    -0.364 N 
HETATM   26  H   UNL     1      22.704  48.005  49.276  1.00  0.00     0.162 HD
BRANCH  25  27
HETATM   27  C   UNL     1      24.458  46.856  49.610  1.00  0.00     0.154 C 
BRANCH  27  28
HETATM   28  C   UNL     1      25.218  48.140  49.973  1.00  0.00     0.139 C 
HETATM   29  O   UNL     1      25.107  49.105  48.906  1.00  0.00    -0.384 OA
HETATM   30  C   UNL     1      26.429  49.554  48.573  1.00  0.00     0.168 C 
HETATM   31  C   UNL     1      27.368  48.451  49.001  1.00  0.00     0.029 C 
HETATM   32  C   UNL     1      26.702  47.935  50.250  1.00  0.00     0.035 C 
ENDBRANCH  27  28
ENDBRANCH  25  27
ENDBRANCH  23  25
ENDBRANCH  21  23
ENDBRANCH  18  21
ENDBRANCH  13  17
ENDBRANCH  10  11
ENDBRANCH   9  10
ENDBRANCH   1   9
TORSDOF 9
ENDMDL
MODEL 7
REMARK VINA RESULT:      -8.1      2.503      3.501
REMARK  9 active torsions:
REMARK  status: ('A' for Active; 'I' for Inactive)
REMARK    1  A    between atoms: C_3  and  C_4 
REMARK       I    between atoms: C_4  and  N_5 
REMARK    2  A    between atoms: N_5  and  N_6 
REMARK    3  A    between atoms: N_6  and  C_7 
REMARK    4  A    between atoms: C_7  and  N_8 
REMARK    5  A    between atoms: N_8  and  C_9 
REMARK    6  A    between atoms: C_9  and  C_10 
REMARK    7  A    between atoms: C_18  and  C_19 
REMARK    8  A    between atoms: C_19  and  O_20 
REMARK    9  A    between atoms: O_20  and  C_21 
ROOT
HETATM    1  C   UNL     1      28.372  43.572  52.612  1.00  0.00     0.069 A 
HETATM    2  C   UNL     1      28.110  44.470  53.648  1.00  0.00     0.038 A 
HETATM    3  C   UNL     1      28.951  44.520  54.767  1.00  0.00     0.025 A 
HETATM    4  C   UNL     1      30.059  43.671  54.855  1.00  0.00     0.044 A 
HETATM    5  C   UNL     1      30.918  43.727  56.002  1.00  0.00     0.099 C 
HETATM    6  N   UNL     1      31.610  43.780  56.933  1.00  0.00    -0.191 NA
HETATM    7  C   UNL     1      30.322  42.772  53.820  1.00  0.00     0.025 A 
HETATM    8  C   UNL     1      29.481  42.727  52.705  1.00  0.00     0.038 A 
ENDROOT
BRANCH   1   9
HETATM    9  O   UNL     1      27.636  43.425  51.467  1.00  0.00    -0.347 OA
BRANCH   9  10
HETATM   10  C   UNL     1      27.751  44.464  50.499  1.00  0.00     0.214 C 
BRANCH  10  11
HETATM   11  C   UNL     1      26.430  45.183  50.370  1.00  0.00    -0.033 A 
HETATM   12  C   UNL     1      25.228  44.455  50.329  1.00  0.00     0.026 A 
HETATM   13  C   UNL     1      24.014  45.104  50.081  1.00  0.00     0.034 A 
HETATM   14  C   UNL     1      23.995  46.502  49.976  1.00  0.00     0.017 A 
HETATM   15  C   UNL     1      25.176  47.238  50.073  1.00  0.00     0.002 A 
HETATM   16  C   UNL     1      26.390  46.580  50.257  1.00  0.00     0.009 A 
BRANCH  13  17
HETATM   17  C   UNL     1      22.713  44.396  49.964  1.00  0.00     0.270 C 
HETATM   18  N   UNL     1      21.690  44.860  49.165  1.00  0.00    -0.264 N 
HETATM   19  H   UNL     1      20.818  44.336  49.229  1.00  0.00     0.190 HD
HETATM   20  O   UNL     1      22.538  43.372  50.626  1.00  0.00    -0.266 OA
BRANCH  18  21
HETATM   21  N   UNL     1      21.603  46.104  48.532  1.00  0.00    -0.274 N 
HETATM   22  H   UNL     1      22.468  46.586  48.276  1.00  0.00     0.189 HD
BRANCH  21  23
HETATM   23  C   UNL     1      20.513  46.912  48.746  1.00  0.00     0.186 C 
HETATM   24  S   UNL     1      18.988  46.691  48.098  1.00  0.00    -0.040 SA
BRANCH  23  25
HETATM   25  N   UNL     1      20.732  48.022  49.515  1.00  0.00    -0.364 N 
HETATM   26  H   UNL     1      20.031  48.158  50.235  1.00  0.00     0.162 HD
BRANCH  25  27
HETATM   27  C   UNL     1      21.517  49.189  49.124  1.00  0.00     0.154 C 
BRANCH  27  28
HETATM   28  C   UNL     1      21.010  50.521  49.695  1.00  0.00     0.139 C 
HETATM   29  O   UNL     1      19.782  50.316  50.425  1.00  0.00    -0.384 OA
HETATM   30  C   UNL     1      18.811  51.252  49.935  1.00  0.00     0.168 C 
HETATM   31  C   UNL     1      19.240  51.607  48.531  1.00  0.00     0.029 C 
HETATM   32  C   UNL     1      20.743  51.593  48.647  1.00  0.00     0.035 C 
ENDBRANCH  27  28
ENDBRANCH  25  27
ENDBRANCH  23  25
ENDBRANCH  21  23
ENDBRANCH  18  21
ENDBRANCH  13  17
ENDBRANCH  10  11
ENDBRANCH   9  10
ENDBRANCH   1   9
TORSDOF 9
ENDMDL
MODEL 8
REMARK VINA RESULT:      -8.0      5.504     10.545
REMARK  9 active torsions:
REMARK  status: ('A' for Active; 'I' for Inactive)
REMARK    1  A    between atoms: C_3  and  C_4 
REMARK       I    between atoms: C_4  and  N_5 
REMARK    2  A    between atoms: N_5  and  N_6 
REMARK    3  A    between atoms: N_6  and  C_7 
REMARK    4  A    between atoms: C_7  and  N_8 
REMARK    5  A    between atoms: N_8  and  C_9 
REMARK    6  A    between atoms: C_9  and  C_10 
REMARK    7  A    between atoms: C_18  and  C_19 
REMARK    8  A    between atoms: C_19  and  O_20 
REMARK    9  A    between atoms: O_20  and  C_21 
ROOT
HETATM    1  C   UNL     1      25.277  46.482  50.484  1.00  0.00     0.069 A 
HETATM    2  C   UNL     1      26.187  47.500  50.191  1.00  0.00     0.038 A 
HETATM    3  C   UNL     1      25.806  48.572  49.375  1.00  0.00     0.025 A 
HETATM    4  C   UNL     1      24.513  48.632  48.846  1.00  0.00     0.044 A 
HETATM    5  C   UNL     1      24.127  49.733  48.012  1.00  0.00     0.099 C 
HETATM    6  N   UNL     1      23.823  50.629  47.340  1.00  0.00    -0.191 NA
HETATM    7  C   UNL     1      23.602  47.615  49.138  1.00  0.00     0.025 A 
HETATM    8  C   UNL     1      23.986  46.548  49.954  1.00  0.00     0.038 A 
ENDROOT
BRANCH   1   9
HETATM    9  O   UNL     1      25.518  45.386  51.267  1.00  0.00    -0.347 OA
BRANCH   9  10
HETATM   10  C   UNL     1      25.470  45.588  52.677  1.00  0.00     0.214 C 
BRANCH  10  11
HETATM   11  C   UNL     1      26.774  45.147  53.294  1.00  0.00    -0.033 A 
HETATM   12  C   UNL     1      27.486  44.064  52.749  1.00  0.00     0.026 A 
HETATM   13  C   UNL     1      28.626  43.569  53.391  1.00  0.00     0.034 A 
HETATM   14  C   UNL     1      29.110  44.228  54.530  1.00  0.00     0.017 A 
HETATM   15  C   UNL     1      28.443  45.338  55.045  1.00  0.00     0.002 A 
HETATM   16  C   UNL     1      27.273  45.788  54.437  1.00  0.00     0.009 A 
BRANCH  13  17
HETATM   17  C   UNL     1      29.396  42.393  52.908  1.00  0.00     0.270 C 
HETATM   18  N   UNL     1      28.803  41.355  52.221  1.00  0.00    -0.264 N 
HETATM   19  H   UNL     1      29.416  40.567  52.013  1.00  0.00     0.190 HD
HETATM   20  O   UNL     1      30.602  42.337  53.153  1.00  0.00    -0.266 OA
BRANCH  18  21
HETATM   21  N   UNL     1      27.435  41.118  52.054  1.00  0.00    -0.274 N 
HETATM   22  H   UNL     1      26.933  40.607  52.782  1.00  0.00     0.189 HD
BRANCH  21  23
HETATM   23  C   UNL     1      26.898  41.036  50.791  1.00  0.00     0.186 C 
HETATM   24  S   UNL     1      25.541  41.847  50.249  1.00  0.00    -0.040 SA
BRANCH  23  25
HETATM   25  N   UNL     1      27.512  40.162  49.936  1.00  0.00    -0.364 N 
HETATM   26  H   UNL     1      28.024  40.622  49.190  1.00  0.00     0.162 HD
BRANCH  25  27
HETATM   27  C   UNL     1      27.132  38.770  49.720  1.00  0.00     0.154 C 
BRANCH  27  28
HETATM   28  C   UNL     1      28.311  37.810  49.511  1.00  0.00     0.139 C 
HETATM   29  O   UNL     1      28.203  36.683  50.405  1.00  0.00    -0.384 OA
HETATM   30  C   UNL     1      29.450  36.544  51.101  1.00  0.00     0.168 C 
HETATM   31  C   UNL     1      30.095  37.910  51.084  1.00  0.00     0.029 C 
HETATM   32  C   UNL     1      29.680  38.440  49.735  1.00  0.00     0.035 C 
ENDBRANCH  27  28
ENDBRANCH  25  27
ENDBRANCH  23  25
ENDBRANCH  21  23
ENDBRANCH  18  21
ENDBRANCH  13  17
ENDBRANCH  10  11
ENDBRANCH   9  10
ENDBRANCH   1   9
TORSDOF 9
ENDMDL
MODEL 9
REMARK VINA RESULT:      -8.0      4.132      9.897
REMARK  9 active torsions:
REMARK  status: ('A' for Active; 'I' for Inactive)
REMARK    1  A    between atoms: C_3  and  C_4 
REMARK       I    between atoms: C_4  and  N_5 
REMARK    2  A    between atoms: N_5  and  N_6 
REMARK    3  A    between atoms: N_6  and  C_7 
REMARK    4  A    between atoms: C_7  and  N_8 
REMARK    5  A    between atoms: N_8  and  C_9 
REMARK    6  A    between atoms: C_9  and  C_10 
REMARK    7  A    between atoms: C_18  and  C_19 
REMARK    8  A    between atoms: C_19  and  O_20 
REMARK    9  A    between atoms: O_20  and  C_21 
ROOT
HETATM    1  C   UNL     1      22.530  49.392  49.280  1.00  0.00     0.069 A 
HETATM    2  C   UNL     1      21.567  48.540  48.735  1.00  0.00     0.038 A 
HETATM    3  C   UNL     1      20.430  49.069  48.114  1.00  0.00     0.025 A 
HETATM    4  C   UNL     1      20.248  50.453  48.034  1.00  0.00     0.044 A 
HETATM    5  C   UNL     1      19.082  50.990  47.395  1.00  0.00     0.099 C 
HETATM    6  N   UNL     1      18.136  51.416  46.874  1.00  0.00    -0.191 NA
HETATM    7  C   UNL     1      21.209  51.306  48.578  1.00  0.00     0.025 A 
HETATM    8  C   UNL     1      22.344  50.775  49.197  1.00  0.00     0.038 A 
ENDROOT
BRANCH   1   9
HETATM    9  O   UNL     1      23.684  49.008  49.908  1.00  0.00    -0.347 OA
BRANCH   9  10
HETATM   10  C   UNL     1      24.415  47.946  49.302  1.00  0.00     0.214 C 
BRANCH  10  11
HETATM   11  C   UNL     1      24.713  46.885  50.333  1.00  0.00    -0.033 A 
HETATM   12  C   UNL     1      24.430  45.535  50.061  1.00  0.00     0.026 A 
HETATM   13  C   UNL     1      24.582  44.564  51.056  1.00  0.00     0.034 A 
HETATM   14  C   UNL     1      25.117  44.936  52.299  1.00  0.00     0.017 A 
HETATM   15  C   UNL     1      25.453  46.264  52.558  1.00  0.00     0.002 A 
HETATM   16  C   UNL     1      25.240  47.236  51.584  1.00  0.00     0.009 A 
BRANCH  13  17
HETATM   17  C   UNL     1      24.249  43.129  50.862  1.00  0.00     0.270 C 
HETATM   18  N   UNL     1      25.196  42.195  50.499  1.00  0.00    -0.264 N 
HETATM   19  H   UNL     1      24.833  41.260  50.316  1.00  0.00     0.190 HD
HETATM   20  O   UNL     1      23.080  42.771  51.009  1.00  0.00    -0.266 OA
BRANCH  18  21
HETATM   21  N   UNL     1      26.502  42.434  50.060  1.00  0.00    -0.274 N 
HETATM   22  H   UNL     1      26.683  43.260  49.486  1.00  0.00     0.189 HD
BRANCH  21  23
HETATM   23  C   UNL     1      27.375  41.387  49.887  1.00  0.00     0.186 C 
HETATM   24  S   UNL     1      27.191  40.127  48.804  1.00  0.00    -0.040 SA
BRANCH  23  25
HETATM   25  N   UNL     1      28.454  41.362  50.728  1.00  0.00    -0.364 N 
HETATM   26  H   UNL     1      29.199  40.753  50.408  1.00  0.00     0.162 HD
BRANCH  25  27
HETATM   27  C   UNL     1      28.438  41.705  52.146  1.00  0.00     0.154 C 
BRANCH  27  28
HETATM   28  C   UNL     1      29.317  42.906  52.523  1.00  0.00     0.139 C 
HETATM   29  O   UNL     1      30.427  42.476  53.338  1.00  0.00    -0.384 OA
HETATM   30  C   UNL     1      30.461  43.297  54.515  1.00  0.00     0.168 C 
HETATM   31  C   UNL     1      29.054  43.810  54.710  1.00  0.00     0.029 C 
HETATM   32  C   UNL     1      28.587  44.002  53.289  1.00  0.00     0.035 C 
ENDBRANCH  27  28
ENDBRANCH  25  27
ENDBRANCH  23  25
ENDBRANCH  21  23
ENDBRANCH  18  21
ENDBRANCH  13  17
ENDBRANCH  10  11
ENDBRANCH   9  10
ENDBRANCH   1   9
TORSDOF 9
ENDMDL
MODEL 10
REMARK VINA RESULT:      -7.9      1.619      2.266
REMARK  9 active torsions:
REMARK  status: ('A' for Active; 'I' for Inactive)
REMARK    1  A    between atoms: C_3  and  C_4 
REMARK       I    between atoms: C_4  and  N_5 
REMARK    2  A    between atoms: N_5  and  N_6 
REMARK    3  A    between atoms: N_6  and  C_7 
REMARK    4  A    between atoms: C_7  and  N_8 
REMARK    5  A    between atoms: N_8  and  C_9 
REMARK    6  A    between atoms: C_9  and  C_10 
REMARK    7  A    between atoms: C_18  and  C_19 
REMARK    8  A    between atoms: C_19  and  O_20 
REMARK    9  A    between atoms: O_20  and  C_21 
ROOT
HETATM    1  C   UNL     1      26.746  45.896  53.350  1.00  0.00     0.069 A 
HETATM    2  C   UNL     1      26.841  47.061  54.113  1.00  0.00     0.038 A 
HETATM    3  C   UNL     1      27.664  47.096  55.246  1.00  0.00     0.025 A 
HETATM    4  C   UNL     1      28.394  45.965  55.623  1.00  0.00     0.044 A 
HETATM    5  C   UNL     1      29.236  46.006  56.782  1.00  0.00     0.099 C 
HETATM    6  N   UNL     1      29.917  46.048  57.722  1.00  0.00    -0.191 NA
HETATM    7  C   UNL     1      28.299  44.799  54.861  1.00  0.00     0.025 A 
HETATM    8  C   UNL     1      27.479  44.769  53.730  1.00  0.00     0.038 A 
ENDROOT
BRANCH   1   9
HETATM    9  O   UNL     1      25.986  45.730  52.223  1.00  0.00    -0.347 OA
BRANCH   9  10
HETATM   10  C   UNL     1      26.017  46.791  51.273  1.00  0.00     0.214 C 
BRANCH  10  11
HETATM   11  C   UNL     1      24.924  46.587  50.253  1.00  0.00    -0.033 A 
HETATM   12  C   UNL     1      24.200  47.687  49.761  1.00  0.00     0.026 A 
HETATM   13  C   UNL     1      23.103  47.493  48.915  1.00  0.00     0.034 A 
HETATM   14  C   UNL     1      22.796  46.195  48.479  1.00  0.00     0.017 A 
HETATM   15  C   UNL     1      23.546  45.104  48.917  1.00  0.00     0.002 A 
HETATM   16  C   UNL     1      24.597  45.297  49.809  1.00  0.00     0.009 A 
BRANCH  13  17
HETATM   17  C   UNL     1      22.254  48.600  48.402  1.00  0.00     0.270 C 
HETATM   18  N   UNL     1      20.973  48.819  48.861  1.00  0.00    -0.264 N 
HETATM   19  H   UNL     1      20.460  49.556  48.378  1.00  0.00     0.190 HD
HETATM   20  O   UNL     1      22.707  49.329  47.519  1.00  0.00    -0.266 OA
BRANCH  18  21
HETATM   21  N   UNL     1      20.204  47.977  49.671  1.00  0.00    -0.274 N 
HETATM   22  H   UNL     1      20.651  47.520  50.468  1.00  0.00     0.189 HD
BRANCH  21  23
HETATM   23  C   UNL     1      19.111  47.328  49.149  1.00  0.00     0.186 C 
HETATM   24  S   UNL     1      19.150  46.108  48.007  1.00  0.00    -0.040 SA
BRANCH  23  25
HETATM   25  N   UNL     1      17.890  47.776  49.573  1.00  0.00    -0.364 N 
HETATM   26  H   UNL     1      17.470  47.188  50.285  1.00  0.00     0.162 HD
BRANCH  25  27
HETATM   27  C   UNL     1      16.995  48.651  48.822  1.00  0.00     0.154 C 
BRANCH  27  28
HETATM   28  C   UNL     1      17.591  50.019  48.462  1.00  0.00     0.139 C 
HETATM   29  O   UNL     1      18.417  50.504  49.541  1.00  0.00    -0.384 OA
HETATM   30  C   UNL     1      17.996  51.838  49.859  1.00  0.00     0.168 C 
HETATM   31  C   UNL     1      16.559  51.946  49.404  1.00  0.00     0.029 C 
HETATM   32  C   UNL     1      16.557  51.095  48.159  1.00  0.00     0.035 C 
ENDBRANCH  27  28
ENDBRANCH  25  27
ENDBRANCH  23  25
ENDBRANCH  21  23
ENDBRANCH  18  21
ENDBRANCH  13  17
ENDBRANCH  10  11
ENDBRANCH   9  10
ENDBRANCH   1   9
TORSDOF 9
ENDMDL
