MODEL 1
REMARK VINA RESULT:      -8.0      0.000      0.000
REMARK  2 active torsions:
REMARK  status: ('A' for Active; 'I' for Inactive)
REMARK    1  A    between atoms: C_2  and  C_3 
REMARK    2  A    between atoms: C_6  and  C_7 
ROOT
HETATM    1  C   UNL     1      20.542  48.857  47.812  1.00  0.00     0.119 C 
HETATM    2  S   UNL     1      20.279  47.590  46.553  1.00  0.00    -0.141 SA
HETATM    3  C   UNL     1      20.635  46.097  47.520  1.00  0.00     0.136 C 
HETATM    4  C   UNL     1      21.185  45.025  46.583  1.00  0.00     0.031 C 
HETATM    5  C   UNL     1      19.363  45.631  48.187  1.00  0.00     0.236 C 
HETATM    6  O   UNL     1      18.830  44.545  48.007  1.00  0.00    -0.272 OA
HETATM    7  N   UNL     1      18.728  46.414  49.196  1.00  0.00    -0.311 N 
HETATM    8  C   UNL     1      19.057  47.673  49.658  1.00  0.00     0.134 A 
HETATM    9  C   UNL     1      19.835  48.691  49.124  1.00  0.00     0.032 A 
HETATM   10  N   UNL     1      18.550  48.162  50.836  1.00  0.00    -0.262 N 
HETATM   11  H   UNL     1      17.923  47.701  51.487  1.00  0.00     0.191 HD
HETATM   12  N   UNL     1      18.979  49.380  51.154  1.00  0.00    -0.178 NA
HETATM   13  C   UNL     1      19.739  49.735  50.116  1.00  0.00     0.062 A 
HETATM   14  C   UNL     1      20.359  51.091  50.109  1.00  0.00     0.073 C 
HETATM   15  H   UNL     1      17.957  45.917  49.634  1.00  0.00     0.170 HD
ENDROOT
BRANCH   1  16
HETATM   16  C   UNL     1      22.016  49.151  48.056  1.00  0.00    -0.040 A 
HETATM   17  C   UNL     1      22.742  48.261  48.872  1.00  0.00     0.009 A 
HETATM   18  C   UNL     1      24.103  48.450  49.124  1.00  0.00     0.007 A 
HETATM   19  C   UNL     1      24.777  49.546  48.582  1.00  0.00    -0.059 A 
HETATM   20  C   UNL     1      24.064  50.450  47.786  1.00  0.00     0.007 A 
HETATM   21  C   UNL     1      22.703  50.256  47.527  1.00  0.00     0.009 A 
BRANCH  19  22
HETATM   22  C   UNL     1      26.251  49.740  48.834  1.00  0.00     0.034 C 
HETATM   23  C   UNL     1      26.923  48.460  49.312  1.00  0.00     0.010 C 
ENDBRANCH  19  22
ENDBRANCH   1  16
TORSDOF 2
ENDMDL
MODEL 2
REMARK VINA RESULT:      -7.8      7.296      9.624
REMARK  2 active torsions:
REMARK  status: ('A' for Active; 'I' for Inactive)
REMARK    1  A    between atoms: C_2  and  C_3 
REMARK    2  A    between atoms: C_6  and  C_7 
ROOT
HETATM    1  C   UNL     1      26.441  43.686  53.078  1.00  0.00     0.119 C 
HETATM    2  S   UNL     1      25.356  44.942  53.789  1.00  0.00    -0.141 SA
HETATM    3  C   UNL     1      26.102  46.443  53.094  1.00  0.00     0.136 C 
HETATM    4  C   UNL     1      25.869  47.600  54.062  1.00  0.00     0.031 C 
HETATM    5  C   UNL     1      25.471  46.726  51.752  1.00  0.00     0.236 C 
HETATM    6  O   UNL     1      24.849  47.740  51.466  1.00  0.00    -0.272 OA
HETATM    7  N   UNL     1      25.655  45.843  50.647  1.00  0.00    -0.311 N 
HETATM    8  C   UNL     1      26.304  44.625  50.605  1.00  0.00     0.134 A 
HETATM    9  C   UNL     1      26.675  43.728  51.597  1.00  0.00     0.032 A 
HETATM   10  N   UNL     1      26.668  44.046  49.415  1.00  0.00    -0.262 N 
HETATM   11  H   UNL     1      26.535  44.407  48.476  1.00  0.00     0.191 HD
HETATM   12  N   UNL     1      27.303  42.884  49.543  1.00  0.00    -0.178 NA
HETATM   13  C   UNL     1      27.296  42.655  50.857  1.00  0.00     0.062 A 
HETATM   14  C   UNL     1      27.893  41.389  51.370  1.00  0.00     0.073 C 
HETATM   15  H   UNL     1      25.276  46.227  49.786  1.00  0.00     0.170 HD
ENDROOT
BRANCH   1  16
HETATM   16  C   UNL     1      27.774  43.576  53.805  1.00  0.00    -0.040 A 
HETATM   17  C   UNL     1      28.314  44.744  54.378  1.00  0.00     0.009 A 
HETATM   18  C   UNL     1      29.521  44.718  55.081  1.00  0.00     0.007 A 
HETATM   19  C   UNL     1      30.235  43.526  55.218  1.00  0.00    -0.059 A 
HETATM   20  C   UNL     1      29.721  42.362  54.637  1.00  0.00     0.007 A 
HETATM   21  C   UNL     1      28.508  42.386  53.940  1.00  0.00     0.009 A 
BRANCH  19  22
HETATM   22  C   UNL     1      31.527  43.492  55.996  1.00  0.00     0.034 C 
HETATM   23  C   UNL     1      31.332  43.909  57.447  1.00  0.00     0.010 C 
ENDBRANCH  19  22
ENDBRANCH   1  16
TORSDOF 2
ENDMDL
MODEL 3
REMARK VINA RESULT:      -7.6      7.170      8.806
REMARK  2 active torsions:
REMARK  status: ('A' for Active; 'I' for Inactive)
REMARK    1  A    between atoms: C_2  and  C_3 
REMARK    2  A    between atoms: C_6  and  C_7 
ROOT
HETATM    1  C   UNL     1      26.480  43.068  51.751  1.00  0.00     0.119 C 
HETATM    2  S   UNL     1      25.719  41.808  50.706  1.00  0.00    -0.141 SA
HETATM    3  C   UNL     1      27.050  41.542  49.502  1.00  0.00     0.136 C 
HETATM    4  C   UNL     1      26.430  41.118  48.172  1.00  0.00     0.031 C 
HETATM    5  C   UNL     1      27.980  40.477  50.028  1.00  0.00     0.236 C 
HETATM    6  O   UNL     1      28.213  39.409  49.477  1.00  0.00    -0.272 OA
HETATM    7  N   UNL     1      28.767  40.694  51.198  1.00  0.00    -0.311 N 
HETATM    8  C   UNL     1      28.771  41.776  52.056  1.00  0.00     0.134 A 
HETATM    9  C   UNL     1      27.856  42.794  52.280  1.00  0.00     0.032 A 
HETATM   10  N   UNL     1      29.792  41.980  52.949  1.00  0.00    -0.262 N 
HETATM   11  H   UNL     1      30.627  41.420  53.086  1.00  0.00     0.191 HD
HETATM   12  N   UNL     1      29.661  43.077  53.690  1.00  0.00    -0.178 NA
HETATM   13  C   UNL     1      28.479  43.575  53.323  1.00  0.00     0.062 A 
HETATM   14  C   UNL     1      27.975  44.805  53.998  1.00  0.00     0.073 C 
HETATM   15  H   UNL     1      29.430  39.940  51.356  1.00  0.00     0.170 HD
ENDROOT
BRANCH   1  16
HETATM   16  C   UNL     1      26.436  44.458  51.129  1.00  0.00    -0.040 A 
HETATM   17  C   UNL     1      25.494  45.378  51.629  1.00  0.00     0.009 A 
HETATM   18  C   UNL     1      25.408  46.678  51.126  1.00  0.00     0.007 A 
HETATM   19  C   UNL     1      26.252  47.094  50.094  1.00  0.00    -0.059 A 
HETATM   20  C   UNL     1      27.180  46.185  49.574  1.00  0.00     0.007 A 
HETATM   21  C   UNL     1      27.271  44.885  50.083  1.00  0.00     0.009 A 
BRANCH  19  22
HETATM   22  C   UNL     1      26.177  48.505  49.566  1.00  0.00     0.034 C 
HETATM   23  C   UNL     1      27.542  49.033  49.148  1.00  0.00     0.010 C 
ENDBRANCH  19  22
ENDBRANCH   1  16
TORSDOF 2
ENDMDL
MODEL 4
REMARK VINA RESULT:      -7.5     10.622     12.100
REMARK  2 active torsions:
REMARK  status: ('A' for Active; 'I' for Inactive)
REMARK    1  A    between atoms: C_2  and  C_3 
REMARK    2  A    between atoms: C_6  and  C_7 
ROOT
HETATM    1  C   UNL     1      29.821  50.463  39.479  1.00  0.00     0.119 C 
HETATM    2  S   UNL     1      29.412  48.852  38.775  1.00  0.00    -0.141 SA
HETATM    3  C   UNL     1      28.794  48.002  40.254  1.00  0.00     0.136 C 
HETATM    4  C   UNL     1      29.071  46.508  40.113  1.00  0.00     0.031 C 
HETATM    5  C   UNL     1      27.314  48.267  40.387  1.00  0.00     0.236 C 
HETATM    6  O   UNL     1      26.442  47.409  40.380  1.00  0.00    -0.272 OA
HETATM    7  N   UNL     1      26.818  49.578  40.650  1.00  0.00    -0.311 N 
HETATM    8  C   UNL     1      27.510  50.770  40.734  1.00  0.00     0.134 A 
HETATM    9  C   UNL     1      28.767  51.154  40.291  1.00  0.00     0.032 A 
HETATM   10  N   UNL     1      26.948  51.888  41.297  1.00  0.00    -0.262 N 
HETATM   11  H   UNL     1      26.025  51.987  41.708  1.00  0.00     0.191 HD
HETATM   12  N   UNL     1      27.749  52.950  41.323  1.00  0.00    -0.178 NA
HETATM   13  C   UNL     1      28.850  52.539  40.693  1.00  0.00     0.062 A 
HETATM   14  C   UNL     1      29.967  53.505  40.491  1.00  0.00     0.073 C 
HETATM   15  H   UNL     1      25.819  49.577  40.834  1.00  0.00     0.170 HD
ENDROOT
BRANCH   1  16
HETATM   16  C   UNL     1      31.138  50.458  40.244  1.00  0.00    -0.040 A 
HETATM   17  C   UNL     1      32.293  50.912  39.577  1.00  0.00     0.009 A 
HETATM   18  C   UNL     1      33.533  50.959  40.219  1.00  0.00     0.007 A 
HETATM   19  C   UNL     1      33.660  50.536  41.544  1.00  0.00    -0.059 A 
HETATM   20  C   UNL     1      32.525  50.064  42.212  1.00  0.00     0.007 A 
HETATM   21  C   UNL     1      31.282  50.024  41.572  1.00  0.00     0.009 A 
BRANCH  19  22
HETATM   22  C   UNL     1      34.993  50.608  42.246  1.00  0.00     0.034 C 
HETATM   23  C   UNL     1      35.067  51.778  43.216  1.00  0.00     0.010 C 
ENDBRANCH  19  22
ENDBRANCH   1  16
TORSDOF 2
ENDMDL
MODEL 5
REMARK VINA RESULT:      -7.3      4.569      6.122
REMARK  2 active torsions:
REMARK  status: ('A' for Active; 'I' for Inactive)
REMARK    1  A    between atoms: C_2  and  C_3 
REMARK    2  A    between atoms: C_6  and  C_7 
ROOT
HETATM    1  C   UNL     1      25.637  45.201  49.501  1.00  0.00     0.119 C 
HETATM    2  S   UNL     1      24.793  43.739  48.861  1.00  0.00    -0.141 SA
HETATM    3  C   UNL     1      23.283  43.774  49.866  1.00  0.00     0.136 C 
HETATM    4  C   UNL     1      22.784  42.343  50.052  1.00  0.00     0.031 C 
HETATM    5  C   UNL     1      22.248  44.619  49.164  1.00  0.00     0.236 C 
HETATM    6  O   UNL     1      21.155  44.224  48.785  1.00  0.00    -0.272 OA
HETATM    7  N   UNL     1      22.438  46.022  48.984  1.00  0.00    -0.311 N 
HETATM    8  C   UNL     1      23.535  46.799  49.297  1.00  0.00     0.134 A 
HETATM    9  C   UNL     1      24.862  46.484  49.552  1.00  0.00     0.032 A 
HETATM   10  N   UNL     1      23.453  48.168  49.354  1.00  0.00    -0.262 N 
HETATM   11  H   UNL     1      22.639  48.753  49.200  1.00  0.00     0.191 HD
HETATM   12  N   UNL     1      24.590  48.772  49.690  1.00  0.00    -0.178 NA
HETATM   13  C   UNL     1      25.469  47.773  49.789  1.00  0.00     0.062 A 
HETATM   14  C   UNL     1      26.889  48.093  50.110  1.00  0.00     0.073 C 
HETATM   15  H   UNL     1      21.609  46.473  48.608  1.00  0.00     0.170 HD
ENDROOT
BRANCH   1  16
HETATM   16  C   UNL     1      26.312  44.955  50.844  1.00  0.00    -0.040 A 
HETATM   17  C   UNL     1      27.528  44.244  50.853  1.00  0.00     0.009 A 
HETATM   18  C   UNL     1      28.218  43.999  52.043  1.00  0.00     0.007 A 
HETATM   19  C   UNL     1      27.704  44.441  53.263  1.00  0.00    -0.059 A 
HETATM   20  C   UNL     1      26.487  45.131  53.271  1.00  0.00     0.007 A 
HETATM   21  C   UNL     1      25.800  45.384  52.079  1.00  0.00     0.009 A 
BRANCH  19  22
HETATM   22  C   UNL     1      28.460  44.198  54.546  1.00  0.00     0.034 C 
HETATM   23  C   UNL     1      29.675  43.306  54.334  1.00  0.00     0.010 C 
ENDBRANCH  19  22
ENDBRANCH   1  16
TORSDOF 2
ENDMDL
MODEL 6
REMARK VINA RESULT:      -7.3     11.464     13.274
REMARK  2 active torsions:
REMARK  status: ('A' for Active; 'I' for Inactive)
REMARK    1  A    between atoms: C_2  and  C_3 
REMARK    2  A    between atoms: C_6  and  C_7 
ROOT
HETATM    1  C   UNL     1      30.325  50.517  42.077  1.00  0.00     0.119 C 
HETATM    2  S   UNL     1      31.939  50.082  42.759  1.00  0.00    -0.141 SA
HETATM    3  C   UNL     1      32.976  50.278  41.284  1.00  0.00     0.136 C 
HETATM    4  C   UNL     1      34.158  49.318  41.383  1.00  0.00     0.031 C 
HETATM    5  C   UNL     1      33.448  51.710  41.204  1.00  0.00     0.236 C 
HETATM    6  O   UNL     1      34.617  52.068  41.222  1.00  0.00    -0.272 OA
HETATM    7  N   UNL     1      32.530  52.780  40.986  1.00  0.00    -0.311 N 
HETATM    8  C   UNL     1      31.152  52.743  40.905  1.00  0.00     0.134 A 
HETATM    9  C   UNL     1      30.217  51.803  41.315  1.00  0.00     0.032 A 
HETATM   10  N   UNL     1      30.435  53.791  40.385  1.00  0.00    -0.262 N 
HETATM   11  H   UNL     1      30.786  54.664  40.007  1.00  0.00     0.191 HD
HETATM   12  N   UNL     1      29.120  53.593  40.356  1.00  0.00    -0.178 NA
HETATM   13  C   UNL     1      28.959  52.405  40.940  1.00  0.00     0.062 A 
HETATM   14  C   UNL     1      27.577  51.876  41.127  1.00  0.00     0.073 C 
HETATM   15  H   UNL     1      33.007  53.665  40.835  1.00  0.00     0.170 HD
ENDROOT
BRANCH   1  16
HETATM   16  C   UNL     1      29.700  49.387  41.270  1.00  0.00    -0.040 A 
HETATM   17  C   UNL     1      28.819  48.509  41.932  1.00  0.00     0.009 A 
HETATM   18  C   UNL     1      28.188  47.463  41.254  1.00  0.00     0.007 A 
HETATM   19  C   UNL     1      28.433  47.251  39.896  1.00  0.00    -0.059 A 
HETATM   20  C   UNL     1      29.321  48.103  39.230  1.00  0.00     0.007 A 
HETATM   21  C   UNL     1      29.946  49.156  39.907  1.00  0.00     0.009 A 
BRANCH  19  22
HETATM   22  C   UNL     1      27.735  46.136  39.157  1.00  0.00     0.034 C 
HETATM   23  C   UNL     1      28.149  44.764  39.668  1.00  0.00     0.010 C 
ENDBRANCH  19  22
ENDBRANCH   1  16
TORSDOF 2
ENDMDL
MODEL 7
REMARK VINA RESULT:      -7.2     11.662     13.345
REMARK  2 active torsions:
REMARK  status: ('A' for Active; 'I' for Inactive)
REMARK    1  A    between atoms: C_2  and  C_3 
REMARK    2  A    between atoms: C_6  and  C_7 
ROOT
HETATM    1  C   UNL     1      31.302  50.228  39.909  1.00  0.00     0.119 C 
HETATM    2  S   UNL     1      30.973  51.471  38.642  1.00  0.00    -0.141 SA
HETATM    3  C   UNL     1      29.530  52.297  39.368  1.00  0.00     0.136 C 
HETATM    4  C   UNL     1      28.657  52.842  38.241  1.00  0.00     0.031 C 
HETATM    5  C   UNL     1      30.006  53.410  40.269  1.00  0.00     0.236 C 
HETATM    6  O   UNL     1      29.741  54.596  40.125  1.00  0.00    -0.272 OA
HETATM    7  N   UNL     1      30.739  53.135  41.462  1.00  0.00    -0.311 N 
HETATM    8  C   UNL     1      31.199  51.924  41.941  1.00  0.00     0.134 A 
HETATM    9  C   UNL     1      31.407  50.695  41.330  1.00  0.00     0.032 A 
HETATM   10  N   UNL     1      31.610  51.776  43.242  1.00  0.00    -0.262 N 
HETATM   11  H   UNL     1      31.621  52.473  43.978  1.00  0.00     0.191 HD
HETATM   12  N   UNL     1      32.004  50.544  43.555  1.00  0.00    -0.178 NA
HETATM   13  C   UNL     1      31.917  49.875  42.404  1.00  0.00     0.062 A 
HETATM   14  C   UNL     1      32.336  48.445  42.370  1.00  0.00     0.073 C 
HETATM   15  H   UNL     1      30.881  53.970  42.022  1.00  0.00     0.170 HD
ENDROOT
BRANCH   1  16
HETATM   16  C   UNL     1      30.356  49.037  39.829  1.00  0.00    -0.040 A 
HETATM   17  C   UNL     1      30.722  47.956  39.002  1.00  0.00     0.009 A 
HETATM   18  C   UNL     1      29.919  46.819  38.894  1.00  0.00     0.007 A 
HETATM   19  C   UNL     1      28.715  46.733  39.598  1.00  0.00    -0.059 A 
HETATM   20  C   UNL     1      28.331  47.806  40.408  1.00  0.00     0.007 A 
HETATM   21  C   UNL     1      29.139  48.943  40.523  1.00  0.00     0.009 A 
BRANCH  19  22
HETATM   22  C   UNL     1      27.858  45.495  39.501  1.00  0.00     0.034 C 
HETATM   23  C   UNL     1      26.445  45.736  40.013  1.00  0.00     0.010 C 
ENDBRANCH  19  22
ENDBRANCH   1  16
TORSDOF 2
ENDMDL
MODEL 8
REMARK VINA RESULT:      -7.2      2.477      3.928
REMARK  2 active torsions:
REMARK  status: ('A' for Active; 'I' for Inactive)
REMARK    1  A    between atoms: C_2  and  C_3 
REMARK    2  A    between atoms: C_6  and  C_7 
ROOT
HETATM    1  C   UNL     1      20.653  48.296  48.818  1.00  0.00     0.119 C 
HETATM    2  S   UNL     1      19.643  49.352  49.879  1.00  0.00    -0.141 SA
HETATM    3  C   UNL     1      19.250  50.691  48.720  1.00  0.00     0.136 C 
HETATM    4  C   UNL     1      19.061  51.983  49.509  1.00  0.00     0.031 C 
HETATM    5  C   UNL     1      17.995  50.330  47.964  1.00  0.00     0.236 C 
HETATM    6  O   UNL     1      16.955  50.975  47.977  1.00  0.00    -0.272 OA
HETATM    7  N   UNL     1      17.966  49.227  47.061  1.00  0.00    -0.311 N 
HETATM    8  C   UNL     1      18.951  48.298  46.789  1.00  0.00     0.134 A 
HETATM    9  C   UNL     1      20.094  47.918  47.479  1.00  0.00     0.032 A 
HETATM   10  N   UNL     1      18.892  47.492  45.680  1.00  0.00    -0.262 N 
HETATM   11  H   UNL     1      18.182  47.474  44.956  1.00  0.00     0.191 HD
HETATM   12  N   UNL     1      19.927  46.666  45.547  1.00  0.00    -0.178 NA
HETATM   13  C   UNL     1      20.657  46.885  46.642  1.00  0.00     0.062 A 
HETATM   14  C   UNL     1      21.894  46.081  46.855  1.00  0.00     0.073 C 
HETATM   15  H   UNL     1      17.095  49.184  46.539  1.00  0.00     0.170 HD
ENDROOT
BRANCH   1  16
HETATM   16  C   UNL     1      22.077  48.812  48.652  1.00  0.00    -0.040 A 
HETATM   17  C   UNL     1      23.111  48.126  49.320  1.00  0.00     0.009 A 
HETATM   18  C   UNL     1      24.444  48.524  49.199  1.00  0.00     0.007 A 
HETATM   19  C   UNL     1      24.784  49.632  48.419  1.00  0.00    -0.059 A 
HETATM   20  C   UNL     1      23.765  50.333  47.766  1.00  0.00     0.007 A 
HETATM   21  C   UNL     1      22.430  49.930  47.881  1.00  0.00     0.009 A 
BRANCH  19  22
HETATM   22  C   UNL     1      26.226  50.049  48.268  1.00  0.00     0.034 C 
HETATM   23  C   UNL     1      27.173  49.111  49.004  1.00  0.00     0.010 C 
ENDBRANCH  19  22
ENDBRANCH   1  16
TORSDOF 2
ENDMDL
MODEL 9
REMARK VINA RESULT:      -7.0     12.417     13.637
REMARK  2 active torsions:
REMARK  status: ('A' for Active; 'I' for Inactive)
REMARK    1  A    between atoms: C_2  and  C_3 
REMARK    2  A    between atoms: C_6  and  C_7 
ROOT
HETATM    1  C   UNL     1      30.542  50.617  41.887  1.00  0.00     0.119 C 
HETATM    2  S   UNL     1      29.409  51.996  41.618  1.00  0.00    -0.141 SA
HETATM    3  C   UNL     1      30.092  52.679  40.083  1.00  0.00     0.136 C 
HETATM    4  C   UNL     1      29.815  54.180  40.048  1.00  0.00     0.031 C 
HETATM    5  C   UNL     1      29.448  51.983  38.909  1.00  0.00     0.236 C 
HETATM    6  O   UNL     1      28.785  52.534  38.040  1.00  0.00    -0.272 OA
HETATM    7  N   UNL     1      29.666  50.596  38.661  1.00  0.00    -0.311 N 
HETATM    8  C   UNL     1      30.363  49.675  39.418  1.00  0.00     0.134 A 
HETATM    9  C   UNL     1      30.772  49.673  40.745  1.00  0.00     0.032 A 
HETATM   10  N   UNL     1      30.748  48.464  38.901  1.00  0.00    -0.262 N 
HETATM   11  H   UNL     1      30.599  48.107  37.963  1.00  0.00     0.191 HD
HETATM   12  N   UNL     1      31.430  47.698  39.748  1.00  0.00    -0.178 NA
HETATM   13  C   UNL     1      31.434  48.398  40.884  1.00  0.00     0.062 A 
HETATM   14  C   UNL     1      32.083  47.808  42.090  1.00  0.00     0.073 C 
HETATM   15  H   UNL     1      29.270  50.301  37.773  1.00  0.00     0.170 HD
ENDROOT
BRANCH   1  16
HETATM   16  C   UNL     1      31.881  51.055  42.468  1.00  0.00    -0.040 A 
HETATM   17  C   UNL     1      32.989  51.118  41.600  1.00  0.00     0.009 A 
HETATM   18  C   UNL     1      34.244  51.533  42.052  1.00  0.00     0.007 A 
HETATM   19  C   UNL     1      34.434  51.881  43.391  1.00  0.00    -0.059 A 
HETATM   20  C   UNL     1      33.347  51.804  44.268  1.00  0.00     0.007 A 
HETATM   21  C   UNL     1      32.088  51.396  43.814  1.00  0.00     0.009 A 
BRANCH  19  22
HETATM   22  C   UNL     1      35.783  52.351  43.876  1.00  0.00     0.034 C 
HETATM   23  C   UNL     1      36.729  52.660  42.725  1.00  0.00     0.010 C 
ENDBRANCH  19  22
ENDBRANCH   1  16
TORSDOF 2
ENDMDL
MODEL 10
REMARK VINA RESULT:      -6.8     12.018     13.559
REMARK  2 active torsions:
REMARK  status: ('A' for Active; 'I' for Inactive)
REMARK    1  A    between atoms: C_2  and  C_3 
REMARK    2  A    between atoms: C_6  and  C_7 
ROOT
HETATM    1  C   UNL     1      29.231  49.747  40.756  1.00  0.00     0.119 C 
HETATM    2  S   UNL     1      30.479  50.005  42.034  1.00  0.00    -0.141 SA
HETATM    3  C   UNL     1      31.939  50.313  41.002  1.00  0.00     0.136 C 
HETATM    4  C   UNL     1      33.181  49.845  41.756  1.00  0.00     0.031 C 
HETATM    5  C   UNL     1      32.017  51.788  40.695  1.00  0.00     0.236 C 
HETATM    6  O   UNL     1      32.943  52.525  41.006  1.00  0.00    -0.272 OA
HETATM    7  N   UNL     1      31.027  52.431  39.893  1.00  0.00    -0.311 N 
HETATM    8  C   UNL     1      29.862  51.910  39.366  1.00  0.00     0.134 A 
HETATM    9  C   UNL     1      29.116  50.782  39.678  1.00  0.00     0.032 A 
HETATM   10  N   UNL     1      29.176  52.554  38.366  1.00  0.00    -0.262 N 
HETATM   11  H   UNL     1      29.415  53.425  37.903  1.00  0.00     0.191 HD
HETATM   12  N   UNL     1      28.086  51.915  37.950  1.00  0.00    -0.178 NA
HETATM   13  C   UNL     1      28.012  50.850  38.750  1.00  0.00     0.062 A 
HETATM   14  C   UNL     1      26.862  49.914  38.597  1.00  0.00     0.073 C 
HETATM   15  H   UNL     1      31.280  53.390  39.674  1.00  0.00     0.170 HD
ENDROOT
BRANCH   1  16
HETATM   16  C   UNL     1      29.302  48.360  40.130  1.00  0.00    -0.040 A 
HETATM   17  C   UNL     1      28.523  47.335  40.702  1.00  0.00     0.009 A 
HETATM   18  C   UNL     1      28.517  46.043  40.171  1.00  0.00     0.007 A 
HETATM   19  C   UNL     1      29.304  45.731  39.060  1.00  0.00    -0.059 A 
HETATM   20  C   UNL     1      30.098  46.734  38.494  1.00  0.00     0.007 A 
HETATM   21  C   UNL     1      30.098  48.030  39.021  1.00  0.00     0.009 A 
BRANCH  19  22
HETATM   22  C   UNL     1      29.281  44.343  38.471  1.00  0.00     0.034 C 
HETATM   23  C   UNL     1      29.457  44.360  36.959  1.00  0.00     0.010 C 
ENDBRANCH  19  22
ENDBRANCH   1  16
TORSDOF 2
ENDMDL
