MODEL 1
REMARK VINA RESULT:      -8.5      0.000      0.000
REMARK  4 active torsions:
REMARK  status: ('A' for Active; 'I' for Inactive)
REMARK    1  A    between atoms: C_2  and  C_3 
REMARK    2  A    between atoms: C_3  and  N_4 
REMARK    3  A    between atoms: C_3  and  C_17 
REMARK       I    between atoms: N_4  and  C_5 
REMARK    4  A    between atoms: C_5  and  C_6 
ROOT
HETATM    1  N   UNL     1      26.656  44.816  51.576  1.00  0.00    -0.345 N 
HETATM    2  C   UNL     1      26.447  45.571  52.715  1.00  0.00     0.252 C 
HETATM    3  O   UNL     1      25.464  46.295  52.838  1.00  0.00    -0.268 OA
HETATM    4  H   UNL     1      27.604  44.483  51.442  1.00  0.00     0.163 HD
ENDROOT
BRANCH   1   5
HETATM    5  C   UNL     1      25.866  45.022  50.354  1.00  0.00     0.152 C 
BRANCH   5   6
HETATM    6  C   UNL     1      24.511  44.306  50.458  1.00  0.00     0.028 C 
HETATM    7  C   UNL     1      24.603  42.880  50.989  1.00  0.00     0.007 C 
ENDBRANCH   5   6
BRANCH   5   8
HETATM    8  C   UNL     1      25.774  46.500  49.939  1.00  0.00     0.104 A 
HETATM    9  N   UNL     1      26.786  47.300  49.568  1.00  0.00    -0.347 N 
HETATM   10  H   UNL     1      27.755  46.948  49.564  1.00  0.00     0.167 HD
HETATM   11  C   UNL     1      26.370  48.568  49.227  1.00  0.00     0.022 A 
HETATM   12  C   UNL     1      27.287  49.635  48.799  1.00  0.00     0.069 C 
HETATM   13  C   UNL     1      25.008  48.535  49.383  1.00  0.00     0.114 A 
HETATM   14  N   UNL     1      24.675  47.266  49.807  1.00  0.00    -0.352 N 
HETATM   15  H   UNL     1      23.727  46.950  49.991  1.00  0.00     0.166 HD
ENDBRANCH   5   8
ENDBRANCH   1   5
BRANCH   2  16
HETATM   16  C   UNL     1      27.477  45.490  53.790  1.00  0.00     0.033 A 
HETATM   17  C   UNL     1      28.320  44.361  53.798  1.00  0.00     0.031 A 
HETATM   18  C   UNL     1      29.295  44.249  54.805  1.00  0.00     0.001 A 
HETATM   19  C   UNL     1      29.394  45.261  55.750  1.00  0.00     0.086 A 
HETATM   20  C   UNL     1      30.294  43.300  55.151  1.00  0.00     0.046 A 
HETATM   21  O   UNL     1      30.382  44.984  56.641  1.00  0.00    -0.315 OA
HETATM   22  C   UNL     1      28.591  46.398  55.764  1.00  0.00     0.039 A 
HETATM   23  C   UNL     1      30.929  43.789  56.274  1.00  0.00     0.050 A 
HETATM   24  C   UNL     1      32.034  43.282  57.113  1.00  0.00     0.077 C 
HETATM   25  C   UNL     1      27.625  46.500  54.754  1.00  0.00     0.020 A 
ENDBRANCH   2  16
TORSDOF 4
ENDMDL
MODEL 2
REMARK VINA RESULT:      -8.3      1.396      1.995
REMARK  4 active torsions:
REMARK  status: ('A' for Active; 'I' for Inactive)
REMARK    1  A    between atoms: C_2  and  C_3 
REMARK    2  A    between atoms: C_3  and  N_4 
REMARK    3  A    between atoms: C_3  and  C_17 
REMARK       I    between atoms: N_4  and  C_5 
REMARK    4  A    between atoms: C_5  and  C_6 
ROOT
HETATM    1  N   UNL     1      26.822  45.208  51.676  1.00  0.00    -0.345 N 
HETATM    2  C   UNL     1      27.545  44.051  51.893  1.00  0.00     0.252 C 
HETATM    3  O   UNL     1      27.441  43.076  51.153  1.00  0.00    -0.268 OA
HETATM    4  H   UNL     1      26.754  45.834  52.471  1.00  0.00     0.163 HD
ENDROOT
BRANCH   1   5
HETATM    5  C   UNL     1      25.710  45.259  50.717  1.00  0.00     0.152 C 
BRANCH   5   6
HETATM    6  C   UNL     1      24.438  44.652  51.329  1.00  0.00     0.028 C 
HETATM    7  C   UNL     1      23.699  43.696  50.400  1.00  0.00     0.007 C 
ENDBRANCH   5   6
BRANCH   5   8
HETATM    8  C   UNL     1      25.513  46.652  50.096  1.00  0.00     0.104 A 
HETATM    9  N   UNL     1      26.472  47.489  49.669  1.00  0.00    -0.347 N 
HETATM   10  H   UNL     1      27.466  47.235  49.762  1.00  0.00     0.167 HD
HETATM   11  C   UNL     1      25.967  48.654  49.134  1.00  0.00     0.022 A 
HETATM   12  C   UNL     1      26.812  49.737  48.608  1.00  0.00     0.069 C 
HETATM   13  C   UNL     1      24.606  48.511  49.224  1.00  0.00     0.114 A 
HETATM   14  N   UNL     1      24.362  47.284  49.804  1.00  0.00    -0.352 N 
HETATM   15  H   UNL     1      23.435  46.906  49.981  1.00  0.00     0.166 HD
ENDBRANCH   5   8
ENDBRANCH   1   5
BRANCH   2  16
HETATM   16  C   UNL     1      28.450  44.019  53.077  1.00  0.00     0.033 A 
HETATM   17  C   UNL     1      28.223  44.967  54.094  1.00  0.00     0.031 A 
HETATM   18  C   UNL     1      29.065  44.970  55.220  1.00  0.00     0.001 A 
HETATM   19  C   UNL     1      30.085  44.031  55.289  1.00  0.00     0.086 A 
HETATM   20  C   UNL     1      29.167  45.738  56.411  1.00  0.00     0.046 A 
HETATM   21  O   UNL     1      30.794  44.185  56.439  1.00  0.00    -0.315 OA
HETATM   22  C   UNL     1      30.330  43.069  54.314  1.00  0.00     0.039 A 
HETATM   23  C   UNL     1      30.234  45.226  57.120  1.00  0.00     0.050 A 
HETATM   24  C   UNL     1      30.851  45.579  58.415  1.00  0.00     0.077 C 
HETATM   25  C   UNL     1      29.482  43.074  53.198  1.00  0.00     0.020 A 
ENDBRANCH   2  16
TORSDOF 4
ENDMDL
MODEL 3
REMARK VINA RESULT:      -8.2      1.387      1.522
REMARK  4 active torsions:
REMARK  status: ('A' for Active; 'I' for Inactive)
REMARK    1  A    between atoms: C_2  and  C_3 
REMARK    2  A    between atoms: C_3  and  N_4 
REMARK    3  A    between atoms: C_3  and  C_17 
REMARK       I    between atoms: N_4  and  C_5 
REMARK    4  A    between atoms: C_5  and  C_6 
ROOT
HETATM    1  N   UNL     1      25.899  45.387  51.445  1.00  0.00    -0.345 N 
HETATM    2  C   UNL     1      26.877  44.447  51.708  1.00  0.00     0.252 C 
HETATM    3  O   UNL     1      27.085  43.503  50.952  1.00  0.00    -0.268 OA
HETATM    4  H   UNL     1      25.610  45.949  52.239  1.00  0.00     0.163 HD
ENDROOT
BRANCH   1   5
HETATM    5  C   UNL     1      24.888  45.182  50.399  1.00  0.00     0.152 C 
BRANCH   5   6
HETATM    6  C   UNL     1      23.809  44.196  50.873  1.00  0.00     0.028 C 
HETATM    7  C   UNL     1      23.677  42.956  49.997  1.00  0.00     0.007 C 
ENDBRANCH   5   6
BRANCH   5   8
HETATM    8  C   UNL     1      24.338  46.498  49.826  1.00  0.00     0.104 A 
HETATM    9  N   UNL     1      25.040  47.600  49.516  1.00  0.00    -0.347 N 
HETATM   10  H   UNL     1      26.057  47.635  49.678  1.00  0.00     0.167 HD
HETATM   11  C   UNL     1      24.255  48.606  48.994  1.00  0.00     0.022 A 
HETATM   12  C   UNL     1      24.783  49.917  48.586  1.00  0.00     0.069 C 
HETATM   13  C   UNL     1      22.991  48.075  48.966  1.00  0.00     0.114 A 
HETATM   14  N   UNL     1      23.075  46.794  49.469  1.00  0.00    -0.352 N 
HETATM   15  H   UNL     1      22.288  46.157  49.554  1.00  0.00     0.166 HD
ENDBRANCH   5   8
ENDBRANCH   1   5
BRANCH   2  16
HETATM   16  C   UNL     1      27.666  44.611  52.963  1.00  0.00     0.033 A 
HETATM   17  C   UNL     1      28.733  43.717  53.180  1.00  0.00     0.031 A 
HETATM   18  C   UNL     1      29.491  43.837  54.359  1.00  0.00     0.001 A 
HETATM   19  C   UNL     1      29.162  44.840  55.260  1.00  0.00     0.086 A 
HETATM   20  C   UNL     1      30.597  43.154  54.929  1.00  0.00     0.046 A 
HETATM   21  O   UNL     1      29.993  44.804  56.335  1.00  0.00    -0.315 OA
HETATM   22  C   UNL     1      28.126  45.752  55.072  1.00  0.00     0.039 A 
HETATM   23  C   UNL     1      30.866  43.777  56.131  1.00  0.00     0.050 A 
HETATM   24  C   UNL     1      31.874  43.546  57.187  1.00  0.00     0.077 C 
HETATM   25  C   UNL     1      27.381  45.624  53.893  1.00  0.00     0.020 A 
ENDBRANCH   2  16
TORSDOF 4
ENDMDL
MODEL 4
REMARK VINA RESULT:      -8.2      1.403      3.073
REMARK  4 active torsions:
REMARK  status: ('A' for Active; 'I' for Inactive)
REMARK    1  A    between atoms: C_2  and  C_3 
REMARK    2  A    between atoms: C_3  and  N_4 
REMARK    3  A    between atoms: C_3  and  C_17 
REMARK       I    between atoms: N_4  and  C_5 
REMARK    4  A    between atoms: C_5  and  C_6 
ROOT
HETATM    1  N   UNL     1      26.289  45.765  52.001  1.00  0.00    -0.345 N 
HETATM    2  C   UNL     1      26.327  46.553  53.136  1.00  0.00     0.252 C 
HETATM    3  O   UNL     1      25.572  47.509  53.284  1.00  0.00    -0.268 OA
HETATM    4  H   UNL     1      27.112  45.195  51.840  1.00  0.00     0.163 HD
ENDROOT
BRANCH   1   5
HETATM    5  C   UNL     1      25.536  46.165  50.805  1.00  0.00     0.152 C 
BRANCH   5   6
HETATM    6  C   UNL     1      26.463  46.834  49.779  1.00  0.00     0.028 C 
HETATM    7  C   UNL     1      26.154  48.306  49.533  1.00  0.00     0.007 C 
ENDBRANCH   5   6
BRANCH   5   8
HETATM    8  C   UNL     1      24.668  45.032  50.234  1.00  0.00     0.104 A 
HETATM    9  N   UNL     1      25.005  44.167  49.264  1.00  0.00    -0.347 N 
HETATM   10  H   UNL     1      25.922  44.233  48.800  1.00  0.00     0.167 HD
HETATM   11  C   UNL     1      24.012  43.248  48.997  1.00  0.00     0.022 A 
HETATM   12  C   UNL     1      24.131  42.202  47.970  1.00  0.00     0.069 C 
HETATM   13  C   UNL     1      23.008  43.563  49.876  1.00  0.00     0.114 A 
HETATM   14  N   UNL     1      23.438  44.644  50.618  1.00  0.00    -0.352 N 
HETATM   15  H   UNL     1      22.899  45.084  51.359  1.00  0.00     0.166 HD
ENDBRANCH   5   8
ENDBRANCH   1   5
BRANCH   2  16
HETATM   16  C   UNL     1      27.339  46.209  54.177  1.00  0.00     0.033 A 
HETATM   17  C   UNL     1      28.146  45.078  53.949  1.00  0.00     0.031 A 
HETATM   18  C   UNL     1      29.103  44.721  54.915  1.00  0.00     0.001 A 
HETATM   19  C   UNL     1      29.221  45.504  56.055  1.00  0.00     0.086 A 
HETATM   20  C   UNL     1      30.068  43.688  55.057  1.00  0.00     0.046 A 
HETATM   21  O   UNL     1      30.188  45.010  56.873  1.00  0.00    -0.315 OA
HETATM   22  C   UNL     1      28.453  46.638  56.307  1.00  0.00     0.039 A 
HETATM   23  C   UNL     1      30.702  43.904  56.263  1.00  0.00     0.050 A 
HETATM   24  C   UNL     1      31.779  43.193  56.981  1.00  0.00     0.077 C 
HETATM   25  C   UNL     1      27.505  46.985  55.335  1.00  0.00     0.020 A 
ENDBRANCH   2  16
TORSDOF 4
ENDMDL
MODEL 5
REMARK VINA RESULT:      -8.0      1.656      3.244
REMARK  4 active torsions:
REMARK  status: ('A' for Active; 'I' for Inactive)
REMARK    1  A    between atoms: C_2  and  C_3 
REMARK    2  A    between atoms: C_3  and  N_4 
REMARK    3  A    between atoms: C_3  and  C_17 
REMARK       I    between atoms: N_4  and  C_5 
REMARK    4  A    between atoms: C_5  and  C_6 
ROOT
HETATM    1  N   UNL     1      26.466  45.451  51.337  1.00  0.00    -0.345 N 
HETATM    2  C   UNL     1      26.496  45.478  52.719  1.00  0.00     0.252 C 
HETATM    3  O   UNL     1      25.663  46.101  53.370  1.00  0.00    -0.268 OA
HETATM    4  H   UNL     1      27.329  45.163  50.889  1.00  0.00     0.163 HD
ENDROOT
BRANCH   1   5
HETATM    5  C   UNL     1      25.608  46.357  50.563  1.00  0.00     0.152 C 
BRANCH   5   6
HETATM    6  C   UNL     1      26.452  47.417  49.838  1.00  0.00     0.028 C 
HETATM    7  C   UNL     1      25.643  48.591  49.300  1.00  0.00     0.007 C 
ENDBRANCH   5   6
BRANCH   5   8
HETATM    8  C   UNL     1      24.608  45.615  49.660  1.00  0.00     0.104 A 
HETATM    9  N   UNL     1      23.284  45.818  49.583  1.00  0.00    -0.347 N 
HETATM   10  H   UNL     1      22.827  46.518  50.185  1.00  0.00     0.167 HD
HETATM   11  C   UNL     1      22.670  45.006  48.653  1.00  0.00     0.022 A 
HETATM   12  C   UNL     1      21.224  45.028  48.388  1.00  0.00     0.069 C 
HETATM   13  C   UNL     1      23.693  44.270  48.113  1.00  0.00     0.114 A 
HETATM   14  N   UNL     1      24.857  44.667  48.738  1.00  0.00    -0.352 N 
HETATM   15  H   UNL     1      25.779  44.297  48.525  1.00  0.00     0.166 HD
ENDBRANCH   5   8
ENDBRANCH   1   5
BRANCH   2  16
HETATM   16  C   UNL     1      27.596  44.734  53.396  1.00  0.00     0.033 A 
HETATM   17  C   UNL     1      28.231  45.364  54.485  1.00  0.00     0.031 A 
HETATM   18  C   UNL     1      29.280  44.693  55.140  1.00  0.00     0.001 A 
HETATM   19  C   UNL     1      29.643  43.431  54.691  1.00  0.00     0.086 A 
HETATM   20  C   UNL     1      30.144  44.978  56.230  1.00  0.00     0.046 A 
HETATM   21  O   UNL     1      30.670  42.940  55.436  1.00  0.00    -0.315 OA
HETATM   22  C   UNL     1      29.029  42.770  53.631  1.00  0.00     0.039 A 
HETATM   23  C   UNL     1      30.973  43.884  56.372  1.00  0.00     0.050 A 
HETATM   24  C   UNL     1      32.074  43.563  57.303  1.00  0.00     0.077 C 
HETATM   25  C   UNL     1      27.984  43.447  52.988  1.00  0.00     0.020 A 
ENDBRANCH   2  16
TORSDOF 4
ENDMDL
MODEL 6
REMARK VINA RESULT:      -7.9      1.733      3.351
REMARK  4 active torsions:
REMARK  status: ('A' for Active; 'I' for Inactive)
REMARK    1  A    between atoms: C_2  and  C_3 
REMARK    2  A    between atoms: C_3  and  N_4 
REMARK    3  A    between atoms: C_3  and  C_17 
REMARK       I    between atoms: N_4  and  C_5 
REMARK    4  A    between atoms: C_5  and  C_6 
ROOT
HETATM    1  N   UNL     1      26.256  45.089  51.477  1.00  0.00    -0.345 N 
HETATM    2  C   UNL     1      26.048  44.725  52.794  1.00  0.00     0.252 C 
HETATM    3  O   UNL     1      24.964  44.301  53.184  1.00  0.00    -0.268 OA
HETATM    4  H   UNL     1      27.064  45.679  51.311  1.00  0.00     0.163 HD
ENDROOT
BRANCH   1   5
HETATM    5  C   UNL     1      25.144  45.234  50.529  1.00  0.00     0.152 C 
BRANCH   5   6
HETATM    6  C   UNL     1      25.373  46.441  49.606  1.00  0.00     0.028 C 
HETATM    7  C   UNL     1      26.218  47.545  50.229  1.00  0.00     0.007 C 
ENDBRANCH   5   6
BRANCH   5   8
HETATM    8  C   UNL     1      24.805  43.927  49.793  1.00  0.00     0.104 A 
HETATM    9  N   UNL     1      24.635  43.764  48.472  1.00  0.00    -0.347 N 
HETATM   10  H   UNL     1      24.705  44.569  47.833  1.00  0.00     0.167 HD
HETATM   11  C   UNL     1      24.366  42.458  48.123  1.00  0.00     0.022 A 
HETATM   12  C   UNL     1      24.129  42.021  46.739  1.00  0.00     0.069 C 
HETATM   13  C   UNL     1      24.392  41.774  49.311  1.00  0.00     0.114 A 
HETATM   14  N   UNL     1      24.668  42.690  50.304  1.00  0.00    -0.352 N 
HETATM   15  H   UNL     1      24.761  42.459  51.290  1.00  0.00     0.166 HD
ENDBRANCH   5   8
ENDBRANCH   1   5
BRANCH   2  16
HETATM   16  C   UNL     1      27.191  44.885  53.739  1.00  0.00     0.033 A 
HETATM   17  C   UNL     1      28.045  43.779  53.918  1.00  0.00     0.031 A 
HETATM   18  C   UNL     1      29.127  43.894  54.809  1.00  0.00     0.001 A 
HETATM   19  C   UNL     1      29.315  45.098  55.474  1.00  0.00     0.086 A 
HETATM   20  C   UNL     1      30.171  43.040  55.255  1.00  0.00     0.046 A 
HETATM   21  O   UNL     1      30.399  45.025  56.291  1.00  0.00    -0.315 OA
HETATM   22  C   UNL     1      28.503  46.217  55.310  1.00  0.00     0.039 A 
HETATM   23  C   UNL     1      30.918  43.771  56.156  1.00  0.00     0.050 A 
HETATM   24  C   UNL     1      32.116  43.460  56.963  1.00  0.00     0.077 C 
HETATM   25  C   UNL     1      27.431  46.091  54.417  1.00  0.00     0.020 A 
ENDBRANCH   2  16
TORSDOF 4
ENDMDL
MODEL 7
REMARK VINA RESULT:      -7.8      2.425      3.339
REMARK  4 active torsions:
REMARK  status: ('A' for Active; 'I' for Inactive)
REMARK    1  A    between atoms: C_2  and  C_3 
REMARK    2  A    between atoms: C_3  and  N_4 
REMARK    3  A    between atoms: C_3  and  C_17 
REMARK       I    between atoms: N_4  and  C_5 
REMARK    4  A    between atoms: C_5  and  C_6 
ROOT
HETATM    1  N   UNL     1      24.296  46.034  50.522  1.00  0.00    -0.345 N 
HETATM    2  C   UNL     1      25.473  46.669  50.870  1.00  0.00     0.252 C 
HETATM    3  O   UNL     1      25.923  47.603  50.211  1.00  0.00    -0.268 OA
HETATM    4  H   UNL     1      24.155  45.120  50.938  1.00  0.00     0.163 HD
ENDROOT
BRANCH   1   5
HETATM    5  C   UNL     1      23.650  46.258  49.221  1.00  0.00     0.152 C 
BRANCH   5   6
HETATM    6  C   UNL     1      22.795  45.045  48.825  1.00  0.00     0.028 C 
HETATM    7  C   UNL     1      22.736  43.955  49.889  1.00  0.00     0.007 C 
ENDBRANCH   5   6
BRANCH   5   8
HETATM    8  C   UNL     1      22.917  47.607  49.138  1.00  0.00     0.104 A 
HETATM    9  N   UNL     1      23.446  48.795  48.806  1.00  0.00    -0.347 N 
HETATM   10  H   UNL     1      24.452  48.879  48.597  1.00  0.00     0.167 HD
HETATM   11  C   UNL     1      22.516  49.812  48.796  1.00  0.00     0.022 A 
HETATM   12  C   UNL     1      22.846  51.209  48.476  1.00  0.00     0.069 C 
HETATM   13  C   UNL     1      21.335  49.200  49.125  1.00  0.00     0.114 A 
HETATM   14  N   UNL     1      21.608  47.862  49.319  1.00  0.00    -0.352 N 
HETATM   15  H   UNL     1      20.912  47.161  49.561  1.00  0.00     0.166 HD
ENDBRANCH   5   8
ENDBRANCH   1   5
BRANCH   2  16
HETATM   16  C   UNL     1      26.195  46.164  52.073  1.00  0.00     0.033 A 
HETATM   17  C   UNL     1      26.448  47.082  53.111  1.00  0.00     0.031 A 
HETATM   18  C   UNL     1      27.135  46.641  54.256  1.00  0.00     0.001 A 
HETATM   19  C   UNL     1      27.533  45.312  54.320  1.00  0.00     0.086 A 
HETATM   20  C   UNL     1      27.573  47.233  55.470  1.00  0.00     0.046 A 
HETATM   21  O   UNL     1      28.182  45.067  55.490  1.00  0.00    -0.315 OA
HETATM   22  C   UNL     1      27.287  44.373  53.323  1.00  0.00     0.039 A 
HETATM   23  C   UNL     1      28.206  46.239  56.187  1.00  0.00     0.050 A 
HETATM   24  C   UNL     1      28.873  46.210  57.506  1.00  0.00     0.077 C 
HETATM   25  C   UNL     1      26.598  44.824  52.189  1.00  0.00     0.020 A 
ENDBRANCH   2  16
TORSDOF 4
ENDMDL
MODEL 8
REMARK VINA RESULT:      -7.6      3.068      4.422
REMARK  4 active torsions:
REMARK  status: ('A' for Active; 'I' for Inactive)
REMARK    1  A    between atoms: C_2  and  C_3 
REMARK    2  A    between atoms: C_3  and  N_4 
REMARK    3  A    between atoms: C_3  and  C_17 
REMARK       I    between atoms: N_4  and  C_5 
REMARK    4  A    between atoms: C_5  and  C_6 
ROOT
HETATM    1  N   UNL     1      23.506  46.756  49.726  1.00  0.00    -0.345 N 
HETATM    2  C   UNL     1      24.638  47.385  50.207  1.00  0.00     0.252 C 
HETATM    3  O   UNL     1      24.981  48.494  49.806  1.00  0.00    -0.268 OA
HETATM    4  H   UNL     1      23.459  45.757  49.893  1.00  0.00     0.163 HD
ENDROOT
BRANCH   1   5
HETATM    5  C   UNL     1      22.792  47.246  48.539  1.00  0.00     0.152 C 
BRANCH   5   6
HETATM    6  C   UNL     1      22.303  46.072  47.678  1.00  0.00     0.028 C 
HETATM    7  C   UNL     1      23.000  44.751  47.979  1.00  0.00     0.007 C 
ENDBRANCH   5   6
BRANCH   5   8
HETATM    8  C   UNL     1      21.708  48.283  48.874  1.00  0.00     0.104 A 
HETATM    9  N   UNL     1      21.661  49.563  48.471  1.00  0.00    -0.347 N 
HETATM   10  H   UNL     1      22.417  49.955  47.891  1.00  0.00     0.167 HD
HETATM   11  C   UNL     1      20.540  50.226  48.920  1.00  0.00     0.022 A 
HETATM   12  C   UNL     1      20.261  51.640  48.625  1.00  0.00     0.069 C 
HETATM   13  C   UNL     1      19.845  49.282  49.631  1.00  0.00     0.114 A 
HETATM   14  N   UNL     1      20.574  48.112  49.579  1.00  0.00    -0.352 N 
HETATM   15  H   UNL     1      20.290  47.237  50.011  1.00  0.00     0.166 HD
ENDBRANCH   5   8
ENDBRANCH   1   5
BRANCH   2  16
HETATM   16  C   UNL     1      25.447  46.657  51.226  1.00  0.00     0.033 A 
HETATM   17  C   UNL     1      26.181  45.536  50.792  1.00  0.00     0.031 A 
HETATM   18  C   UNL     1      26.947  44.821  51.730  1.00  0.00     0.001 A 
HETATM   19  C   UNL     1      26.956  45.254  53.049  1.00  0.00     0.086 A 
HETATM   20  C   UNL     1      27.788  43.677  51.695  1.00  0.00     0.046 A 
HETATM   21  O   UNL     1      27.743  44.446  53.808  1.00  0.00    -0.315 OA
HETATM   22  C   UNL     1      26.258  46.366  53.511  1.00  0.00     0.039 A 
HETATM   23  C   UNL     1      28.248  43.486  52.982  1.00  0.00     0.050 A 
HETATM   24  C   UNL     1      29.140  42.484  53.599  1.00  0.00     0.077 C 
HETATM   25  C   UNL     1      25.501  47.072  52.567  1.00  0.00     0.020 A 
ENDBRANCH   2  16
TORSDOF 4
ENDMDL
MODEL 9
REMARK VINA RESULT:      -7.6      2.997      4.741
REMARK  4 active torsions:
REMARK  status: ('A' for Active; 'I' for Inactive)
REMARK    1  A    between atoms: C_2  and  C_3 
REMARK    2  A    between atoms: C_3  and  N_4 
REMARK    3  A    between atoms: C_3  and  C_17 
REMARK       I    between atoms: N_4  and  C_5 
REMARK    4  A    between atoms: C_5  and  C_6 
ROOT
HETATM    1  N   UNL     1      25.839  42.878  51.760  1.00  0.00    -0.345 N 
HETATM    2  C   UNL     1      26.813  43.848  51.619  1.00  0.00     0.252 C 
HETATM    3  O   UNL     1      27.318  44.102  50.529  1.00  0.00    -0.268 OA
HETATM    4  H   UNL     1      25.690  42.545  52.707  1.00  0.00     0.163 HD
ENDROOT
BRANCH   1   5
HETATM    5  C   UNL     1      25.533  41.924  50.686  1.00  0.00     0.152 C 
BRANCH   5   6
HETATM    6  C   UNL     1      24.723  42.604  49.572  1.00  0.00     0.028 C 
HETATM    7  C   UNL     1      23.220  42.620  49.821  1.00  0.00     0.007 C 
ENDBRANCH   5   6
BRANCH   5   8
HETATM    8  C   UNL     1      26.771  41.156  50.193  1.00  0.00     0.104 A 
HETATM    9  N   UNL     1      27.358  40.104  50.785  1.00  0.00    -0.347 N 
HETATM   10  H   UNL     1      26.999  39.741  51.680  1.00  0.00     0.167 HD
HETATM   11  C   UNL     1      28.436  39.622  50.075  1.00  0.00     0.022 A 
HETATM   12  C   UNL     1      29.254  38.483  50.517  1.00  0.00     0.069 C 
HETATM   13  C   UNL     1      28.501  40.423  48.963  1.00  0.00     0.114 A 
HETATM   14  N   UNL     1      27.474  41.338  49.059  1.00  0.00    -0.352 N 
HETATM   15  H   UNL     1      27.272  42.051  48.364  1.00  0.00     0.166 HD
ENDBRANCH   5   8
ENDBRANCH   1   5
BRANCH   2  16
HETATM   16  C   UNL     1      27.246  44.570  52.849  1.00  0.00     0.033 A 
HETATM   17  C   UNL     1      28.387  44.086  53.519  1.00  0.00     0.031 A 
HETATM   18  C   UNL     1      28.816  44.739  54.688  1.00  0.00     0.001 A 
HETATM   19  C   UNL     1      28.101  45.842  55.134  1.00  0.00     0.086 A 
HETATM   20  C   UNL     1      29.874  44.563  55.620  1.00  0.00     0.046 A 
HETATM   21  O   UNL     1      28.656  46.339  56.272  1.00  0.00    -0.315 OA
HETATM   22  C   UNL     1      26.980  46.359  54.491  1.00  0.00     0.039 A 
HETATM   23  C   UNL     1      29.734  45.558  56.566  1.00  0.00     0.050 A 
HETATM   24  C   UNL     1      30.499  45.915  57.779  1.00  0.00     0.077 C 
HETATM   25  C   UNL     1      26.564  45.703  53.325  1.00  0.00     0.020 A 
ENDBRANCH   2  16
TORSDOF 4
ENDMDL
MODEL 10
REMARK VINA RESULT:      -7.5      2.749      3.554
REMARK  4 active torsions:
REMARK  status: ('A' for Active; 'I' for Inactive)
REMARK    1  A    between atoms: C_2  and  C_3 
REMARK    2  A    between atoms: C_3  and  N_4 
REMARK    3  A    between atoms: C_3  and  C_17 
REMARK       I    between atoms: N_4  and  C_5 
REMARK    4  A    between atoms: C_5  and  C_6 
ROOT
HETATM    1  N   UNL     1      27.562  42.651  51.002  1.00  0.00    -0.345 N 
HETATM    2  C   UNL     1      27.616  43.865  51.661  1.00  0.00     0.252 C 
HETATM    3  O   UNL     1      27.017  44.853  51.244  1.00  0.00    -0.268 OA
HETATM    4  H   UNL     1      28.292  41.991  51.247  1.00  0.00     0.163 HD
ENDROOT
BRANCH   1   5
HETATM    5  C   UNL     1      27.009  42.529  49.647  1.00  0.00     0.152 C 
BRANCH   5   6
HETATM    6  C   UNL     1      27.280  41.129  49.075  1.00  0.00     0.028 C 
HETATM    7  C   UNL     1      27.317  40.027  50.128  1.00  0.00     0.007 C 
ENDBRANCH   5   6
BRANCH   5   8
HETATM    8  C   UNL     1      25.542  42.981  49.553  1.00  0.00     0.104 A 
HETATM    9  N   UNL     1      25.051  43.983  48.807  1.00  0.00    -0.347 N 
HETATM   10  H   UNL     1      25.680  44.562  48.232  1.00  0.00     0.167 HD
HETATM   11  C   UNL     1      23.684  44.117  48.922  1.00  0.00     0.022 A 
HETATM   12  C   UNL     1      22.909  45.147  48.215  1.00  0.00     0.069 C 
HETATM   13  C   UNL     1      23.312  43.117  49.783  1.00  0.00     0.114 A 
HETATM   14  N   UNL     1      24.459  42.440  50.142  1.00  0.00    -0.352 N 
HETATM   15  H   UNL     1      24.482  41.636  50.765  1.00  0.00     0.166 HD
ENDBRANCH   5   8
ENDBRANCH   1   5
BRANCH   2  16
HETATM   16  C   UNL     1      28.448  43.940  52.896  1.00  0.00     0.033 A 
HETATM   17  C   UNL     1      28.120  44.932  53.841  1.00  0.00     0.031 A 
HETATM   18  C   UNL     1      28.891  45.036  55.012  1.00  0.00     0.001 A 
HETATM   19  C   UNL     1      29.943  44.149  55.195  1.00  0.00     0.086 A 
HETATM   20  C   UNL     1      28.888  45.872  56.160  1.00  0.00     0.046 A 
HETATM   21  O   UNL     1      30.575  44.398  56.373  1.00  0.00    -0.315 OA
HETATM   22  C   UNL     1      30.287  43.146  54.293  1.00  0.00     0.039 A 
HETATM   23  C   UNL     1      29.931  45.448  56.959  1.00  0.00     0.050 A 
HETATM   24  C   UNL     1      30.453  45.900  58.265  1.00  0.00     0.077 C 
HETATM   25  C   UNL     1      29.509  43.051  53.131  1.00  0.00     0.020 A 
ENDBRANCH   2  16
TORSDOF 4
ENDMDL
