MODEL 1
REMARK VINA RESULT:      -8.8      0.000      0.000
REMARK  3 active torsions:
REMARK  status: ('A' for Active; 'I' for Inactive)
REMARK    1  A    between atoms: C_5  and  N_6 
REMARK       I    between atoms: N_6  and  C_7 
REMARK    2  A    between atoms: C_7  and  C_8 
REMARK    3  A    between atoms: C_8  and  C_9 
ROOT
HETATM    1  C   UNL     1      26.530  46.051  54.534  1.00  0.00     0.286 C 
HETATM    2  N   UNL     1      27.570  45.162  53.853  1.00  0.00    -0.056 N 
HETATM    3  H   UNL     1      27.040  44.415  53.358  1.00  0.00     0.278 HD
HETATM    4  H   UNL     1      28.073  45.688  53.127  1.00  0.00     0.278 HD
HETATM    5  C   UNL     1      28.508  44.577  54.863  1.00  0.00     0.209 C 
HETATM    6  C   UNL     1      29.246  45.739  55.567  1.00  0.00     0.115 C 
HETATM    7  N   UNL     1      28.327  46.742  56.102  1.00  0.00    -0.353 N 
HETATM    8  C   UNL     1      27.190  47.129  55.421  1.00  0.00     0.249 C 
HETATM    9  O   UNL     1      26.710  48.242  55.595  1.00  0.00    -0.271 OA
HETATM   10  C   UNL     1      29.493  43.630  54.192  1.00  0.00     0.035 C 
HETATM   11  C   UNL     1      30.462  43.066  55.235  1.00  0.00     0.002 C 
HETATM   12  C   UNL     1      31.161  44.168  56.037  1.00  0.00     0.002 C 
HETATM   13  C   UNL     1      30.179  45.176  56.640  1.00  0.00     0.027 C 
HETATM   14  H   UNL     1      28.726  47.503  56.651  1.00  0.00     0.163 HD
ENDROOT
BRANCH   1  15
HETATM   15  C   UNL     1      25.561  46.654  53.510  1.00  0.00     0.146 C 
BRANCH  15  16
HETATM   16  C   UNL     1      25.097  45.579  52.561  1.00  0.00     0.224 C 
HETATM   17  N   UNL     1      24.858  45.814  51.248  1.00  0.00    -0.327 N 
HETATM   18  H   UNL     1      24.426  45.013  50.794  1.00  0.00     0.169 HD
HETATM   19  O   UNL     1      24.923  44.435  53.004  1.00  0.00    -0.273 OA
BRANCH  17  20
HETATM   20  C   UNL     1      25.063  46.923  50.407  1.00  0.00     0.034 A 
HETATM   21  C   UNL     1      24.058  47.720  49.860  1.00  0.00     0.030 A 
HETATM   22  C   UNL     1      24.382  48.812  49.042  1.00  0.00     0.009 A 
HETATM   23  C   UNL     1      25.713  49.125  48.759  1.00  0.00    -0.062 A 
HETATM   24  C   UNL     1      26.066  50.307  47.905  1.00  0.00     0.048 C 
HETATM   25  C   UNL     1      26.723  48.347  49.328  1.00  0.00     0.009 A 
HETATM   26  C   UNL     1      26.398  47.262  50.148  1.00  0.00     0.030 A 
ENDBRANCH  17  20
ENDBRANCH  15  16
ENDBRANCH   1  15
TORSDOF 3
ENDMDL
MODEL 2
REMARK VINA RESULT:      -8.5      3.280      7.005
REMARK  3 active torsions:
REMARK  status: ('A' for Active; 'I' for Inactive)
REMARK    1  A    between atoms: C_5  and  N_6 
REMARK       I    between atoms: N_6  and  C_7 
REMARK    2  A    between atoms: C_7  and  C_8 
REMARK    3  A    between atoms: C_8  and  C_9 
ROOT
HETATM    1  C   UNL     1      26.261  43.923  52.620  1.00  0.00     0.286 C 
HETATM    2  N   UNL     1      26.957  42.570  52.769  1.00  0.00    -0.056 N 
HETATM    3  H   UNL     1      27.849  42.753  53.275  1.00  0.00     0.278 HD
HETATM    4  H   UNL     1      26.406  41.946  53.371  1.00  0.00     0.278 HD
HETATM    5  C   UNL     1      27.217  41.958  51.427  1.00  0.00     0.209 C 
HETATM    6  C   UNL     1      25.855  41.732  50.728  1.00  0.00     0.115 C 
HETATM    7  N   UNL     1      25.036  42.942  50.695  1.00  0.00    -0.353 N 
HETATM    8  C   UNL     1      24.982  43.818  51.762  1.00  0.00     0.249 C 
HETATM    9  O   UNL     1      23.993  44.517  51.943  1.00  0.00    -0.271 OA
HETATM   10  C   UNL     1      27.979  40.650  51.574  1.00  0.00     0.035 C 
HETATM   11  C   UNL     1      28.208  40.025  50.195  1.00  0.00     0.002 C 
HETATM   12  C   UNL     1      26.905  39.859  49.408  1.00  0.00     0.002 C 
HETATM   13  C   UNL     1      26.088  41.151  49.333  1.00  0.00     0.027 C 
HETATM   14  H   UNL     1      24.156  42.903  50.184  1.00  0.00     0.163 HD
ENDROOT
BRANCH   1  15
HETATM   15  C   UNL     1      25.993  44.561  53.987  1.00  0.00     0.146 C 
BRANCH  15  16
HETATM   16  C   UNL     1      26.569  45.953  54.017  1.00  0.00     0.224 C 
HETATM   17  N   UNL     1      27.760  46.244  54.596  1.00  0.00    -0.327 N 
HETATM   18  H   UNL     1      27.923  47.246  54.640  1.00  0.00     0.169 HD
HETATM   19  O   UNL     1      25.922  46.871  53.491  1.00  0.00    -0.273 OA
BRANCH  17  20
HETATM   20  C   UNL     1      28.784  45.457  55.156  1.00  0.00     0.034 A 
HETATM   21  C   UNL     1      29.305  44.291  54.597  1.00  0.00     0.030 A 
HETATM   22  C   UNL     1      30.337  43.594  55.240  1.00  0.00     0.009 A 
HETATM   23  C   UNL     1      30.864  44.050  56.451  1.00  0.00    -0.062 A 
HETATM   24  C   UNL     1      31.986  43.322  57.131  1.00  0.00     0.048 C 
HETATM   25  C   UNL     1      30.365  45.233  56.998  1.00  0.00     0.009 A 
HETATM   26  C   UNL     1      29.340  45.930  56.352  1.00  0.00     0.030 A 
ENDBRANCH  17  20
ENDBRANCH  15  16
ENDBRANCH   1  15
TORSDOF 3
ENDMDL
MODEL 3
REMARK VINA RESULT:      -8.4      2.494      7.978
REMARK  3 active torsions:
REMARK  status: ('A' for Active; 'I' for Inactive)
REMARK    1  A    between atoms: C_5  and  N_6 
REMARK       I    between atoms: N_6  and  C_7 
REMARK    2  A    between atoms: C_7  and  C_8 
REMARK    3  A    between atoms: C_8  and  C_9 
ROOT
HETATM    1  C   UNL     1      25.305  47.153  49.842  1.00  0.00     0.286 C 
HETATM    2  N   UNL     1      23.840  47.493  50.112  1.00  0.00    -0.056 N 
HETATM    3  H   UNL     1      23.346  46.585  50.236  1.00  0.00     0.278 HD
HETATM    4  H   UNL     1      23.745  47.997  51.002  1.00  0.00     0.278 HD
HETATM    5  C   UNL     1      23.259  48.270  48.971  1.00  0.00     0.209 C 
HETATM    6  C   UNL     1      24.050  49.592  48.834  1.00  0.00     0.115 C 
HETATM    7  N   UNL     1      25.492  49.374  48.748  1.00  0.00    -0.353 N 
HETATM    8  C   UNL     1      26.133  48.412  49.503  1.00  0.00     0.249 C 
HETATM    9  O   UNL     1      27.314  48.539  49.801  1.00  0.00    -0.271 OA
HETATM   10  C   UNL     1      21.780  48.539  49.205  1.00  0.00     0.035 C 
HETATM   11  C   UNL     1      21.212  49.359  48.044  1.00  0.00     0.002 C 
HETATM   12  C   UNL     1      22.008  50.642  47.793  1.00  0.00     0.002 C 
HETATM   13  C   UNL     1      23.511  50.388  47.646  1.00  0.00     0.027 C 
HETATM   14  H   UNL     1      26.083  50.187  48.578  1.00  0.00     0.163 HD
ENDROOT
BRANCH   1  15
HETATM   15  C   UNL     1      25.911  46.355  51.002  1.00  0.00     0.146 C 
BRANCH  15  16
HETATM   16  C   UNL     1      25.435  44.926  50.934  1.00  0.00     0.224 C 
HETATM   17  N   UNL     1      26.069  43.910  51.570  1.00  0.00    -0.327 N 
HETATM   18  H   UNL     1      25.691  43.004  51.304  1.00  0.00     0.169 HD
HETATM   19  O   UNL     1      24.425  44.672  50.263  1.00  0.00    -0.273 OA
BRANCH  17  20
HETATM   20  C   UNL     1      27.134  43.855  52.489  1.00  0.00     0.034 A 
HETATM   21  C   UNL     1      27.098  44.333  53.798  1.00  0.00     0.030 A 
HETATM   22  C   UNL     1      28.220  44.212  54.630  1.00  0.00     0.009 A 
HETATM   23  C   UNL     1      29.393  43.612  54.167  1.00  0.00    -0.062 A 
HETATM   24  C   UNL     1      30.588  43.457  55.062  1.00  0.00     0.048 C 
HETATM   25  C   UNL     1      29.422  43.106  52.867  1.00  0.00     0.009 A 
HETATM   26  C   UNL     1      28.301  43.222  52.041  1.00  0.00     0.030 A 
ENDBRANCH  17  20
ENDBRANCH  15  16
ENDBRANCH   1  15
TORSDOF 3
ENDMDL
MODEL 4
REMARK VINA RESULT:      -8.4      1.953      3.154
REMARK  3 active torsions:
REMARK  status: ('A' for Active; 'I' for Inactive)
REMARK    1  A    between atoms: C_5  and  N_6 
REMARK       I    between atoms: N_6  and  C_7 
REMARK    2  A    between atoms: C_7  and  C_8 
REMARK    3  A    between atoms: C_8  and  C_9 
ROOT
HETATM    1  C   UNL     1      27.372  43.874  51.401  1.00  0.00     0.286 C 
HETATM    2  N   UNL     1      27.299  44.311  52.864  1.00  0.00    -0.056 N 
HETATM    3  H   UNL     1      26.936  45.287  52.861  1.00  0.00     0.278 HD
HETATM    4  H   UNL     1      26.608  43.747  53.374  1.00  0.00     0.278 HD
HETATM    5  C   UNL     1      28.651  44.242  53.504  1.00  0.00     0.209 C 
HETATM    6  C   UNL     1      29.134  42.773  53.456  1.00  0.00     0.115 C 
HETATM    7  N   UNL     1      29.071  42.208  52.111  1.00  0.00    -0.353 N 
HETATM    8  C   UNL     1      28.026  42.484  51.249  1.00  0.00     0.249 C 
HETATM    9  O   UNL     1      27.715  41.687  50.374  1.00  0.00    -0.271 OA
HETATM   10  C   UNL     1      28.592  44.752  54.936  1.00  0.00     0.035 C 
HETATM   11  C   UNL     1      29.975  44.645  55.583  1.00  0.00     0.002 C 
HETATM   12  C   UNL     1      30.555  43.232  55.488  1.00  0.00     0.002 C 
HETATM   13  C   UNL     1      30.535  42.677  54.060  1.00  0.00     0.027 C 
HETATM   14  H   UNL     1      29.444  41.269  51.975  1.00  0.00     0.163 HD
ENDROOT
BRANCH   1  15
HETATM   15  C   UNL     1      25.994  43.944  50.734  1.00  0.00     0.146 C 
BRANCH  15  16
HETATM   16  C   UNL     1      25.009  44.590  51.674  1.00  0.00     0.224 C 
HETATM   17  N   UNL     1      24.680  45.903  51.603  1.00  0.00    -0.327 N 
HETATM   18  H   UNL     1      24.110  46.192  52.394  1.00  0.00     0.169 HD
HETATM   19  O   UNL     1      24.484  43.890  52.551  1.00  0.00    -0.273 OA
BRANCH  17  20
HETATM   20  C   UNL     1      24.977  46.930  50.687  1.00  0.00     0.034 A 
HETATM   21  C   UNL     1      24.049  47.586  49.879  1.00  0.00     0.030 A 
HETATM   22  C   UNL     1      24.458  48.606  49.010  1.00  0.00     0.009 A 
HETATM   23  C   UNL     1      25.800  48.987  48.934  1.00  0.00    -0.062 A 
HETATM   24  C   UNL     1      26.240  50.096  48.024  1.00  0.00     0.048 C 
HETATM   25  C   UNL     1      26.727  48.353  49.763  1.00  0.00     0.009 A 
HETATM   26  C   UNL     1      26.316  47.340  50.633  1.00  0.00     0.030 A 
ENDBRANCH  17  20
ENDBRANCH  15  16
ENDBRANCH   1  15
TORSDOF 3
ENDMDL
MODEL 5
REMARK VINA RESULT:      -8.2      3.236      4.581
REMARK  3 active torsions:
REMARK  status: ('A' for Active; 'I' for Inactive)
REMARK    1  A    between atoms: C_5  and  N_6 
REMARK       I    between atoms: N_6  and  C_7 
REMARK    2  A    between atoms: C_7  and  C_8 
REMARK    3  A    between atoms: C_8  and  C_9 
ROOT
HETATM    1  C   UNL     1      27.584  44.803  54.196  1.00  0.00     0.286 C 
HETATM    2  N   UNL     1      28.952  44.121  54.183  1.00  0.00    -0.056 N 
HETATM    3  H   UNL     1      28.805  43.176  53.770  1.00  0.00     0.278 HD
HETATM    4  H   UNL     1      29.594  44.615  53.551  1.00  0.00     0.278 HD
HETATM    5  C   UNL     1      29.507  44.022  55.570  1.00  0.00     0.209 C 
HETATM    6  C   UNL     1      29.682  45.456  56.124  1.00  0.00     0.115 C 
HETATM    7  N   UNL     1      28.460  46.249  56.015  1.00  0.00    -0.353 N 
HETATM    8  C   UNL     1      27.632  46.170  54.912  1.00  0.00     0.249 C 
HETATM    9  O   UNL     1      26.927  47.119  54.594  1.00  0.00    -0.271 OA
HETATM   10  C   UNL     1      30.832  43.273  55.564  1.00  0.00     0.035 C 
HETATM   11  C   UNL     1      31.398  43.209  56.985  1.00  0.00     0.002 C 
HETATM   12  C   UNL     1      31.510  44.593  57.630  1.00  0.00     0.002 C 
HETATM   13  C   UNL     1      30.203  45.388  57.560  1.00  0.00     0.027 C 
HETATM   14  H   UNL     1      28.463  47.181  56.427  1.00  0.00     0.163 HD
ENDROOT
BRANCH   1  15
HETATM   15  C   UNL     1      27.004  44.907  52.782  1.00  0.00     0.146 C 
BRANCH  15  16
HETATM   16  C   UNL     1      25.700  44.154  52.714  1.00  0.00     0.224 C 
HETATM   17  N   UNL     1      25.525  43.057  51.937  1.00  0.00    -0.327 N 
HETATM   18  H   UNL     1      24.552  42.763  51.913  1.00  0.00     0.169 HD
HETATM   19  O   UNL     1      24.747  44.561  53.395  1.00  0.00    -0.273 OA
BRANCH  17  20
HETATM   20  C   UNL     1      26.394  42.272  51.158  1.00  0.00     0.034 A 
HETATM   21  C   UNL     1      27.305  41.339  51.653  1.00  0.00     0.030 A 
HETATM   22  C   UNL     1      28.115  40.601  50.778  1.00  0.00     0.009 A 
HETATM   23  C   UNL     1      28.028  40.784  49.396  1.00  0.00    -0.062 A 
HETATM   24  C   UNL     1      28.874  39.979  48.454  1.00  0.00     0.048 C 
HETATM   25  C   UNL     1      27.096  41.695  48.895  1.00  0.00     0.009 A 
HETATM   26  C   UNL     1      26.286  42.425  49.769  1.00  0.00     0.030 A 
ENDBRANCH  17  20
ENDBRANCH  15  16
ENDBRANCH   1  15
TORSDOF 3
ENDMDL
MODEL 6
REMARK VINA RESULT:      -8.0      1.722      2.413
REMARK  3 active torsions:
REMARK  status: ('A' for Active; 'I' for Inactive)
REMARK    1  A    between atoms: C_5  and  N_6 
REMARK       I    between atoms: N_6  and  C_7 
REMARK    2  A    between atoms: C_7  and  C_8 
REMARK    3  A    between atoms: C_8  and  C_9 
ROOT
HETATM    1  C   UNL     1      26.479  43.833  53.212  1.00  0.00     0.286 C 
HETATM    2  N   UNL     1      27.921  43.327  53.181  1.00  0.00    -0.056 N 
HETATM    3  H   UNL     1      27.867  42.298  53.032  1.00  0.00     0.278 HD
HETATM    4  H   UNL     1      28.419  43.710  52.368  1.00  0.00     0.278 HD
HETATM    5  C   UNL     1      28.622  43.649  54.464  1.00  0.00     0.209 C 
HETATM    6  C   UNL     1      28.649  45.187  54.627  1.00  0.00     0.115 C 
HETATM    7  N   UNL     1      27.322  45.786  54.494  1.00  0.00    -0.353 N 
HETATM    8  C   UNL     1      26.406  45.335  53.563  1.00  0.00     0.249 C 
HETATM    9  O   UNL     1      25.546  46.087  53.123  1.00  0.00    -0.271 OA
HETATM   10  C   UNL     1      30.031  43.075  54.462  1.00  0.00     0.035 C 
HETATM   11  C   UNL     1      30.742  43.441  55.768  1.00  0.00     0.002 C 
HETATM   12  C   UNL     1      30.723  44.947  56.039  1.00  0.00     0.002 C 
HETATM   13  C   UNL     1      29.317  45.548  55.954  1.00  0.00     0.027 C 
HETATM   14  H   UNL     1      27.237  46.787  54.665  1.00  0.00     0.163 HD
ENDROOT
BRANCH   1  15
HETATM   15  C   UNL     1      25.749  43.507  51.905  1.00  0.00     0.146 C 
BRANCH  15  16
HETATM   16  C   UNL     1      26.718  43.580  50.753  1.00  0.00     0.224 C 
HETATM   17  N   UNL     1      26.690  44.572  49.831  1.00  0.00    -0.327 N 
HETATM   18  H   UNL     1      27.324  44.388  49.058  1.00  0.00     0.169 HD
HETATM   19  O   UNL     1      27.574  42.689  50.645  1.00  0.00    -0.273 OA
BRANCH  17  20
HETATM   20  C   UNL     1      25.961  45.771  49.718  1.00  0.00     0.034 A 
HETATM   21  C   UNL     1      26.502  47.055  49.780  1.00  0.00     0.030 A 
HETATM   22  C   UNL     1      25.679  48.181  49.642  1.00  0.00     0.009 A 
HETATM   23  C   UNL     1      24.304  48.042  49.440  1.00  0.00    -0.062 A 
HETATM   24  C   UNL     1      23.422  49.244  49.267  1.00  0.00     0.048 C 
HETATM   25  C   UNL     1      23.764  46.759  49.349  1.00  0.00     0.009 A 
HETATM   26  C   UNL     1      24.587  45.637  49.481  1.00  0.00     0.030 A 
ENDBRANCH  17  20
ENDBRANCH  15  16
ENDBRANCH   1  15
TORSDOF 3
ENDMDL
MODEL 7
REMARK VINA RESULT:      -8.0      2.557      3.850
REMARK  3 active torsions:
REMARK  status: ('A' for Active; 'I' for Inactive)
REMARK    1  A    between atoms: C_5  and  N_6 
REMARK       I    between atoms: N_6  and  C_7 
REMARK    2  A    between atoms: C_7  and  C_8 
REMARK    3  A    between atoms: C_8  and  C_9 
ROOT
HETATM    1  C   UNL     1      28.949  43.477  53.968  1.00  0.00     0.286 C 
HETATM    2  N   UNL     1      30.314  43.528  54.654  1.00  0.00    -0.056 N 
HETATM    3  H   UNL     1      30.697  42.561  54.619  1.00  0.00     0.278 HD
HETATM    4  H   UNL     1      30.965  44.115  54.117  1.00  0.00     0.278 HD
HETATM    5  C   UNL     1      30.177  44.002  56.068  1.00  0.00     0.209 C 
HETATM    6  C   UNL     1      29.589  45.433  56.043  1.00  0.00     0.115 C 
HETATM    7  N   UNL     1      28.363  45.519  55.253  1.00  0.00    -0.353 N 
HETATM    8  C   UNL     1      28.206  44.827  54.068  1.00  0.00     0.249 C 
HETATM    9  O   UNL     1      27.449  45.243  53.200  1.00  0.00    -0.271 OA
HETATM   10  C   UNL     1      31.525  43.977  56.773  1.00  0.00     0.035 C 
HETATM   11  C   UNL     1      31.370  44.494  58.206  1.00  0.00     0.002 C 
HETATM   12  C   UNL     1      30.706  45.872  58.260  1.00  0.00     0.002 C 
HETATM   13  C   UNL     1      29.392  45.928  57.476  1.00  0.00     0.027 C 
HETATM   14  H   UNL     1      27.866  46.409  55.248  1.00  0.00     0.163 HD
ENDROOT
BRANCH   1  15
HETATM   15  C   UNL     1      29.076  42.990  52.520  1.00  0.00     0.146 C 
BRANCH  15  16
HETATM   16  C   UNL     1      28.139  41.831  52.293  1.00  0.00     0.224 C 
HETATM   17  N   UNL     1      26.917  41.975  51.725  1.00  0.00    -0.327 N 
HETATM   18  H   UNL     1      26.374  41.117  51.775  1.00  0.00     0.169 HD
HETATM   19  O   UNL     1      28.503  40.700  52.647  1.00  0.00    -0.273 OA
BRANCH  17  20
HETATM   20  C   UNL     1      26.254  43.054  51.110  1.00  0.00     0.034 A 
HETATM   21  C   UNL     1      26.703  43.745  49.986  1.00  0.00     0.030 A 
HETATM   22  C   UNL     1      25.951  44.800  49.451  1.00  0.00     0.009 A 
HETATM   23  C   UNL     1      24.738  45.180  50.031  1.00  0.00    -0.062 A 
HETATM   24  C   UNL     1      23.916  46.292  49.447  1.00  0.00     0.048 C 
HETATM   25  C   UNL     1      24.270  44.471  51.138  1.00  0.00     0.009 A 
HETATM   26  C   UNL     1      25.020  43.417  51.666  1.00  0.00     0.030 A 
ENDBRANCH  17  20
ENDBRANCH  15  16
ENDBRANCH   1  15
TORSDOF 3
ENDMDL
MODEL 8
REMARK VINA RESULT:      -7.9      3.679      5.306
REMARK  3 active torsions:
REMARK  status: ('A' for Active; 'I' for Inactive)
REMARK    1  A    between atoms: C_5  and  N_6 
REMARK       I    between atoms: N_6  and  C_7 
REMARK    2  A    between atoms: C_7  and  C_8 
REMARK    3  A    between atoms: C_8  and  C_9 
ROOT
HETATM    1  C   UNL     1      26.973  44.316  52.905  1.00  0.00     0.286 C 
HETATM    2  N   UNL     1      28.397  43.764  52.963  1.00  0.00    -0.056 N 
HETATM    3  H   UNL     1      28.345  42.781  52.622  1.00  0.00     0.278 HD
HETATM    4  H   UNL     1      29.005  44.266  52.304  1.00  0.00     0.278 HD
HETATM    5  C   UNL     1      28.929  43.820  54.362  1.00  0.00     0.209 C 
HETATM    6  C   UNL     1      28.962  45.301  54.807  1.00  0.00     0.115 C 
HETATM    7  N   UNL     1      27.676  45.969  54.620  1.00  0.00    -0.353 N 
HETATM    8  C   UNL     1      26.882  45.732  53.514  1.00  0.00     0.249 C 
HETATM    9  O   UNL     1      26.102  46.586  53.115  1.00  0.00    -0.271 OA
HETATM   10  C   UNL     1      30.316  43.197  54.432  1.00  0.00     0.035 C 
HETATM   11  C   UNL     1      30.855  43.292  55.862  1.00  0.00     0.002 C 
HETATM   12  C   UNL     1      30.828  44.724  56.401  1.00  0.00     0.002 C 
HETATM   13  C   UNL     1      29.456  45.389  56.251  1.00  0.00     0.027 C 
HETATM   14  H   UNL     1      27.586  46.925  54.960  1.00  0.00     0.163 HD
ENDROOT
BRANCH   1  15
HETATM   15  C   UNL     1      26.416  44.261  51.478  1.00  0.00     0.146 C 
BRANCH  15  16
HETATM   16  C   UNL     1      25.210  43.358  51.441  1.00  0.00     0.224 C 
HETATM   17  N   UNL     1      25.256  42.091  50.962  1.00  0.00    -0.327 N 
HETATM   18  H   UNL     1      24.328  41.681  50.890  1.00  0.00     0.169 HD
HETATM   19  O   UNL     1      24.131  43.798  51.863  1.00  0.00    -0.273 OA
BRANCH  17  20
HETATM   20  C   UNL     1      26.302  41.252  50.535  1.00  0.00     0.034 A 
HETATM   21  C   UNL     1      27.413  40.894  51.296  1.00  0.00     0.030 A 
HETATM   22  C   UNL     1      28.391  40.038  50.769  1.00  0.00     0.009 A 
HETATM   23  C   UNL     1      28.273  39.528  49.474  1.00  0.00    -0.062 A 
HETATM   24  C   UNL     1      29.303  38.592  48.914  1.00  0.00     0.048 C 
HETATM   25  C   UNL     1      27.147  39.861  48.720  1.00  0.00     0.009 A 
HETATM   26  C   UNL     1      26.171  40.709  49.249  1.00  0.00     0.030 A 
ENDBRANCH  17  20
ENDBRANCH  15  16
ENDBRANCH   1  15
TORSDOF 3
ENDMDL
MODEL 9
REMARK VINA RESULT:      -7.8      3.817      5.027
REMARK  3 active torsions:
REMARK  status: ('A' for Active; 'I' for Inactive)
REMARK    1  A    between atoms: C_5  and  N_6 
REMARK       I    between atoms: N_6  and  C_7 
REMARK    2  A    between atoms: C_7  and  C_8 
REMARK    3  A    between atoms: C_8  and  C_9 
ROOT
HETATM    1  C   UNL     1      27.154  41.400  51.137  1.00  0.00     0.286 C 
HETATM    2  N   UNL     1      26.768  42.118  52.430  1.00  0.00    -0.056 N 
HETATM    3  H   UNL     1      25.952  42.721  52.198  1.00  0.00     0.278 HD
HETATM    4  H   UNL     1      26.438  41.443  53.132  1.00  0.00     0.278 HD
HETATM    5  C   UNL     1      27.913  42.936  52.943  1.00  0.00     0.209 C 
HETATM    6  C   UNL     1      29.091  41.980  53.248  1.00  0.00     0.115 C 
HETATM    7  N   UNL     1      29.420  41.119  52.114  1.00  0.00    -0.353 N 
HETATM    8  C   UNL     1      28.444  40.568  51.306  1.00  0.00     0.249 C 
HETATM    9  O   UNL     1      28.652  39.521  50.707  1.00  0.00    -0.271 OA
HETATM   10  C   UNL     1      27.502  43.711  54.186  1.00  0.00     0.035 C 
HETATM   11  C   UNL     1      28.693  44.516  54.712  1.00  0.00     0.002 C 
HETATM   12  C   UNL     1      29.928  43.643  54.948  1.00  0.00     0.002 C 
HETATM   13  C   UNL     1      30.294  42.791  53.729  1.00  0.00     0.027 C 
HETATM   14  H   UNL     1      30.234  40.513  52.202  1.00  0.00     0.163 HD
ENDROOT
BRANCH   1  15
HETATM   15  C   UNL     1      25.989  40.561  50.600  1.00  0.00     0.146 C 
BRANCH  15  16
HETATM   16  C   UNL     1      25.574  41.080  49.247  1.00  0.00     0.224 C 
HETATM   17  N   UNL     1      25.240  42.375  49.028  1.00  0.00    -0.327 N 
HETATM   18  H   UNL     1      24.860  42.514  48.096  1.00  0.00     0.169 HD
HETATM   19  O   UNL     1      25.534  40.284  48.298  1.00  0.00    -0.273 OA
BRANCH  17  20
HETATM   20  C   UNL     1      25.293  43.538  49.819  1.00  0.00     0.034 A 
HETATM   21  C   UNL     1      24.367  43.891  50.800  1.00  0.00     0.030 A 
HETATM   22  C   UNL     1      24.527  45.072  51.538  1.00  0.00     0.009 A 
HETATM   23  C   UNL     1      25.615  45.918  51.308  1.00  0.00    -0.062 A 
HETATM   24  C   UNL     1      25.806  47.171  52.112  1.00  0.00     0.048 C 
HETATM   25  C   UNL     1      26.560  45.553  50.348  1.00  0.00     0.009 A 
HETATM   26  C   UNL     1      26.401  44.372  49.617  1.00  0.00     0.030 A 
ENDBRANCH  17  20
ENDBRANCH  15  16
ENDBRANCH   1  15
TORSDOF 3
ENDMDL
MODEL 10
REMARK VINA RESULT:      -7.7      2.967      4.091
REMARK  3 active torsions:
REMARK  status: ('A' for Active; 'I' for Inactive)
REMARK    1  A    between atoms: C_5  and  N_6 
REMARK       I    between atoms: N_6  and  C_7 
REMARK    2  A    between atoms: C_7  and  C_8 
REMARK    3  A    between atoms: C_8  and  C_9 
ROOT
HETATM    1  C   UNL     1      27.944  42.730  52.163  1.00  0.00     0.286 C 
HETATM    2  N   UNL     1      27.392  43.769  53.140  1.00  0.00    -0.056 N 
HETATM    3  H   UNL     1      26.843  44.445  52.571  1.00  0.00     0.278 HD
HETATM    4  H   UNL     1      26.728  43.332  53.792  1.00  0.00     0.278 HD
HETATM    5  C   UNL     1      28.507  44.457  53.865  1.00  0.00     0.209 C 
HETATM    6  C   UNL     1      29.288  43.394  54.672  1.00  0.00     0.115 C 
HETATM    7  N   UNL     1      29.708  42.263  53.847  1.00  0.00    -0.353 N 
HETATM    8  C   UNL     1      28.897  41.736  52.861  1.00  0.00     0.249 C 
HETATM    9  O   UNL     1      29.008  40.564  52.525  1.00  0.00    -0.271 OA
HETATM   10  C   UNL     1      27.961  45.545  54.778  1.00  0.00     0.035 C 
HETATM   11  C   UNL     1      29.112  46.216  55.532  1.00  0.00     0.002 C 
HETATM   12  C   UNL     1      29.985  45.206  56.281  1.00  0.00     0.002 C 
HETATM   13  C   UNL     1      30.465  44.058  55.387  1.00  0.00     0.027 C 
HETATM   14  H   UNL     1      30.296  41.553  54.283  1.00  0.00     0.163 HD
ENDROOT
BRANCH   1  15
HETATM   15  C   UNL     1      26.811  42.020  51.413  1.00  0.00     0.146 C 
BRANCH  15  16
HETATM   16  C   UNL     1      27.097  42.037  49.933  1.00  0.00     0.224 C 
HETATM   17  N   UNL     1      26.696  43.044  49.119  1.00  0.00    -0.327 N 
HETATM   18  H   UNL     1      26.857  42.824  48.140  1.00  0.00     0.169 HD
HETATM   19  O   UNL     1      27.722  41.086  49.443  1.00  0.00    -0.273 OA
BRANCH  17  20
HETATM   20  C   UNL     1      26.097  44.296  49.348  1.00  0.00     0.034 A 
HETATM   21  C   UNL     1      26.765  45.450  49.758  1.00  0.00     0.030 A 
HETATM   22  C   UNL     1      26.065  46.650  49.943  1.00  0.00     0.009 A 
HETATM   23  C   UNL     1      24.688  46.716  49.723  1.00  0.00    -0.062 A 
HETATM   24  C   UNL     1      23.937  48.005  49.895  1.00  0.00     0.048 C 
HETATM   25  C   UNL     1      24.021  45.572  49.284  1.00  0.00     0.009 A 
HETATM   26  C   UNL     1      24.721  44.378  49.094  1.00  0.00     0.030 A 
ENDBRANCH  17  20
ENDBRANCH  15  16
ENDBRANCH   1  15
TORSDOF 3
ENDMDL
