MODEL 1
REMARK VINA RESULT:      -6.2      0.000      0.000
REMARK  2 active torsions:
REMARK  status: ('A' for Active; 'I' for Inactive)
REMARK    1  A    between atoms: S_2  and  C_3 
REMARK    2  A    between atoms: C_7  and  N_8 
ROOT
HETATM    1  C   UNL     1      21.430  49.844  48.654  1.00  0.00     0.060 A 
HETATM    2  C   UNL     1      20.303  49.028  48.720  1.00  0.00     0.044 A 
HETATM    3  C   UNL     1      19.034  49.615  48.751  1.00  0.00     0.033 A 
HETATM    4 BR   UNL     1      17.538  48.445  48.905  1.00  0.00    -0.049 Br
HETATM    5  C   UNL     1      18.868  51.021  48.703  1.00  0.00     0.028 A 
HETATM    6  C   UNL     1      20.027  51.811  48.632  1.00  0.00     0.026 A 
HETATM    7  C   UNL     1      21.301  51.233  48.603  1.00  0.00     0.025 A 
ENDROOT
BRANCH   5   8
HETATM    8  N   UNL     1      17.580  51.592  48.688  1.00  0.00    -0.279 NA
HETATM    9  C   UNL     1      17.269  52.578  49.739  1.00  0.00     0.123 C 
HETATM   10  C   UNL     1      15.747  52.833  49.763  1.00  0.00     0.247 C 
HETATM   11  N   UNL     1      15.259  53.245  48.390  1.00  0.00    -0.073 N 
HETATM   12  H   UNL     1      15.647  54.166  48.151  1.00  0.00     0.277 HD
HETATM   13  H   UNL     1      14.238  53.348  48.410  1.00  0.00     0.277 HD
HETATM   14  C   UNL     1      15.638  52.248  47.315  1.00  0.00     0.247 C 
HETATM   15  C   UNL     1      17.159  51.993  47.327  1.00  0.00     0.123 C 
ENDBRANCH   5   8
BRANCH   1  16
HETATM   16  S   UNL     1      23.041  49.098  48.544  1.00  0.00     0.171 S 
HETATM   17  C   UNL     1      22.691  47.392  48.213  1.00  0.00     0.167 C 
HETATM   18  O   UNL     1      23.645  49.191  49.859  1.00  0.00    -0.223 OA
HETATM   19  O   UNL     1      23.686  49.674  47.381  1.00  0.00    -0.223 OA
ENDBRANCH   1  16
TORSDOF 2
ENDMDL
MODEL 2
REMARK VINA RESULT:      -6.1     12.850     14.642
REMARK  2 active torsions:
REMARK  status: ('A' for Active; 'I' for Inactive)
REMARK    1  A    between atoms: S_2  and  C_3 
REMARK    2  A    between atoms: C_7  and  N_8 
ROOT
HETATM    1  C   UNL     1      34.105  51.253  42.092  1.00  0.00     0.060 A 
HETATM    2  C   UNL     1      33.610  51.135  40.796  1.00  0.00     0.044 A 
HETATM    3  C   UNL     1      32.272  50.776  40.605  1.00  0.00     0.033 A 
HETATM    4 BR   UNL     1      31.675  50.569  38.808  1.00  0.00    -0.049 Br
HETATM    5  C   UNL     1      31.405  50.543  41.701  1.00  0.00     0.028 A 
HETATM    6  C   UNL     1      31.939  50.678  42.994  1.00  0.00     0.026 A 
HETATM    7  C   UNL     1      33.277  51.034  43.193  1.00  0.00     0.025 A 
ENDROOT
BRANCH   5   8
HETATM    8  N   UNL     1      30.048  50.228  41.489  1.00  0.00    -0.279 NA
HETATM    9  C   UNL     1      29.558  48.956  42.050  1.00  0.00     0.123 C 
HETATM   10  C   UNL     1      28.175  48.632  41.443  1.00  0.00     0.247 C 
HETATM   11  N   UNL     1      27.222  49.789  41.656  1.00  0.00    -0.073 N 
HETATM   12  H   UNL     1      27.020  49.887  42.659  1.00  0.00     0.277 HD
HETATM   13  H   UNL     1      26.329  49.583  41.192  1.00  0.00     0.277 HD
HETATM   14  C   UNL     1      27.768  51.098  41.125  1.00  0.00     0.247 C 
HETATM   15  C   UNL     1      29.158  51.386  41.728  1.00  0.00     0.123 C 
ENDBRANCH   5   8
BRANCH   1  16
HETATM   16  S   UNL     1      35.787  51.779  42.337  1.00  0.00     0.171 S 
HETATM   17  C   UNL     1      35.789  52.424  43.989  1.00  0.00     0.167 C 
HETATM   18  O   UNL     1      36.029  52.875  41.420  1.00  0.00    -0.223 OA
HETATM   19  O   UNL     1      36.604  50.582  42.306  1.00  0.00    -0.223 OA
ENDBRANCH   1  16
TORSDOF 2
ENDMDL
MODEL 3
REMARK VINA RESULT:      -5.9     13.298     14.906
REMARK  2 active torsions:
REMARK  status: ('A' for Active; 'I' for Inactive)
REMARK    1  A    between atoms: S_2  and  C_3 
REMARK    2  A    between atoms: C_7  and  N_8 
ROOT
HETATM    1  C   UNL     1      33.882  51.837  40.352  1.00  0.00     0.060 A 
HETATM    2  C   UNL     1      33.401  50.874  41.236  1.00  0.00     0.044 A 
HETATM    3  C   UNL     1      32.021  50.704  41.377  1.00  0.00     0.033 A 
HETATM    4 BR   UNL     1      31.428  49.415  42.649  1.00  0.00    -0.049 Br
HETATM    5  C   UNL     1      31.100  51.479  40.630  1.00  0.00     0.028 A 
HETATM    6  C   UNL     1      31.622  52.436  39.744  1.00  0.00     0.026 A 
HETATM    7  C   UNL     1      33.002  52.615  39.600  1.00  0.00     0.025 A 
ENDROOT
BRANCH   5   8
HETATM    8  N   UNL     1      29.713  51.261  40.751  1.00  0.00    -0.279 NA
HETATM    9  C   UNL     1      28.854  52.451  40.885  1.00  0.00     0.123 C 
HETATM   10  C   UNL     1      27.443  52.013  41.333  1.00  0.00     0.247 C 
HETATM   11  N   UNL     1      26.886  50.975  40.381  1.00  0.00    -0.073 N 
HETATM   12  H   UNL     1      26.717  51.407  39.464  1.00  0.00     0.277 HD
HETATM   13  H   UNL     1      25.976  50.649  40.729  1.00  0.00     0.277 HD
HETATM   14  C   UNL     1      27.809  49.786  40.213  1.00  0.00     0.247 C 
HETATM   15  C   UNL     1      29.216  50.252  39.788  1.00  0.00     0.123 C 
ENDBRANCH   5   8
BRANCH   1  16
HETATM   16  S   UNL     1      35.638  52.006  40.120  1.00  0.00     0.171 S 
HETATM   17  C   UNL     1      36.296  50.499  40.782  1.00  0.00     0.167 C 
HETATM   18  O   UNL     1      36.076  53.102  40.963  1.00  0.00    -0.223 OA
HETATM   19  O   UNL     1      35.867  52.024  38.689  1.00  0.00    -0.223 OA
ENDBRANCH   1  16
TORSDOF 2
ENDMDL
MODEL 4
REMARK VINA RESULT:      -5.9     10.980     12.371
REMARK  2 active torsions:
REMARK  status: ('A' for Active; 'I' for Inactive)
REMARK    1  A    between atoms: S_2  and  C_3 
REMARK    2  A    between atoms: C_7  and  N_8 
ROOT
HETATM    1  C   UNL     1      29.140  44.801  55.276  1.00  0.00     0.060 A 
HETATM    2  C   UNL     1      29.335  43.557  54.681  1.00  0.00     0.044 A 
HETATM    3  C   UNL     1      28.519  43.175  53.613  1.00  0.00     0.033 A 
HETATM    4 BR   UNL     1      28.797  41.435  52.885  1.00  0.00    -0.049 Br
HETATM    5  C   UNL     1      27.507  44.029  53.112  1.00  0.00     0.028 A 
HETATM    6  C   UNL     1      27.343  45.278  53.734  1.00  0.00     0.026 A 
HETATM    7  C   UNL     1      28.153  45.668  54.806  1.00  0.00     0.025 A 
ENDROOT
BRANCH   5   8
HETATM    8  N   UNL     1      26.726  43.646  52.004  1.00  0.00    -0.279 NA
HETATM    9  C   UNL     1      25.263  43.781  52.133  1.00  0.00     0.123 C 
HETATM   10  C   UNL     1      24.578  43.016  50.980  1.00  0.00     0.247 C 
HETATM   11  N   UNL     1      25.109  43.490  49.644  1.00  0.00    -0.073 N 
HETATM   12  H   UNL     1      24.818  44.463  49.484  1.00  0.00     0.277 HD
HETATM   13  H   UNL     1      24.690  42.928  48.893  1.00  0.00     0.277 HD
HETATM   14  C   UNL     1      26.618  43.397  49.551  1.00  0.00     0.247 C 
HETATM   15  C   UNL     1      27.277  44.149  50.725  1.00  0.00     0.123 C 
ENDBRANCH   5   8
BRANCH   1  16
HETATM   16  S   UNL     1      30.222  45.318  56.590  1.00  0.00     0.171 S 
HETATM   17  C   UNL     1      29.114  45.931  57.831  1.00  0.00     0.167 C 
HETATM   18  O   UNL     1      31.002  46.433  56.086  1.00  0.00    -0.223 OA
HETATM   19  O   UNL     1      30.866  44.121  57.092  1.00  0.00    -0.223 OA
ENDBRANCH   1  16
TORSDOF 2
ENDMDL
MODEL 5
REMARK VINA RESULT:      -5.9      5.870      9.333
REMARK  2 active torsions:
REMARK  status: ('A' for Active; 'I' for Inactive)
REMARK    1  A    between atoms: S_2  and  C_3 
REMARK    2  A    between atoms: C_7  and  N_8 
ROOT
HETATM    1  C   UNL     1      24.289  48.284  49.096  1.00  0.00     0.060 A 
HETATM    2  C   UNL     1      23.545  47.111  49.185  1.00  0.00     0.044 A 
HETATM    3  C   UNL     1      24.139  45.963  49.719  1.00  0.00     0.033 A 
HETATM    4 BR   UNL     1      23.087  44.375  49.754  1.00  0.00    -0.049 Br
HETATM    5  C   UNL     1      25.477  45.971  50.184  1.00  0.00     0.028 A 
HETATM    6  C   UNL     1      26.194  47.175  50.083  1.00  0.00     0.026 A 
HETATM    7  C   UNL     1      25.609  48.327  49.547  1.00  0.00     0.025 A 
ENDROOT
BRANCH   5   8
HETATM    8  N   UNL     1      26.043  44.818  50.763  1.00  0.00    -0.279 NA
HETATM    9  C   UNL     1      26.925  44.001  49.909  1.00  0.00     0.123 C 
HETATM   10  C   UNL     1      27.173  42.638  50.589  1.00  0.00     0.247 C 
HETATM   11  N   UNL     1      27.710  42.838  51.991  1.00  0.00    -0.073 N 
HETATM   12  H   UNL     1      28.651  43.249  51.942  1.00  0.00     0.277 HD
HETATM   13  H   UNL     1      27.809  41.924  52.450  1.00  0.00     0.277 HD
HETATM   14  C   UNL     1      26.820  43.725  52.834  1.00  0.00     0.247 C 
HETATM   15  C   UNL     1      26.570  45.071  52.123  1.00  0.00     0.123 C 
ENDBRANCH   5   8
BRANCH   1  16
HETATM   16  S   UNL     1      23.514  49.763  48.482  1.00  0.00     0.171 S 
HETATM   17  C   UNL     1      21.906  49.214  47.975  1.00  0.00     0.167 C 
HETATM   18  O   UNL     1      24.248  50.171  47.300  1.00  0.00    -0.223 OA
HETATM   19  O   UNL     1      23.365  50.655  49.615  1.00  0.00    -0.223 OA
ENDBRANCH   1  16
TORSDOF 2
ENDMDL
MODEL 6
REMARK VINA RESULT:      -5.9     10.776     12.943
REMARK  2 active torsions:
REMARK  status: ('A' for Active; 'I' for Inactive)
REMARK    1  A    between atoms: S_2  and  C_3 
REMARK    2  A    between atoms: C_7  and  N_8 
ROOT
HETATM    1  C   UNL     1      30.179  43.985  55.652  1.00  0.00     0.060 A 
HETATM    2  C   UNL     1      29.393  45.135  55.657  1.00  0.00     0.044 A 
HETATM    3  C   UNL     1      28.460  45.329  54.634  1.00  0.00     0.033 A 
HETATM    4 BR   UNL     1      27.462  46.953  54.664  1.00  0.00    -0.049 Br
HETATM    5  C   UNL     1      28.285  44.376  53.601  1.00  0.00     0.028 A 
HETATM    6  C   UNL     1      29.091  43.226  53.633  1.00  0.00     0.026 A 
HETATM    7  C   UNL     1      30.030  43.025  54.650  1.00  0.00     0.025 A 
ENDROOT
BRANCH   5   8
HETATM    8  N   UNL     1      27.306  44.567  52.606  1.00  0.00    -0.279 NA
HETATM    9  C   UNL     1      27.669  44.195  51.226  1.00  0.00     0.123 C 
HETATM   10  C   UNL     1      26.623  44.775  50.250  1.00  0.00     0.247 C 
HETATM   11  N   UNL     1      25.230  44.331  50.645  1.00  0.00    -0.073 N 
HETATM   12  H   UNL     1      25.142  43.316  50.507  1.00  0.00     0.277 HD
HETATM   13  H   UNL     1      24.543  44.776  50.025  1.00  0.00     0.277 HD
HETATM   14  C   UNL     1      24.897  44.670  52.083  1.00  0.00     0.247 C 
HETATM   15  C   UNL     1      25.969  44.100  53.034  1.00  0.00     0.123 C 
ENDBRANCH   5   8
BRANCH   1  16
HETATM   16  S   UNL     1      31.317  43.703  56.990  1.00  0.00     0.171 S 
HETATM   17  C   UNL     1      30.876  44.937  58.184  1.00  0.00     0.167 C 
HETATM   18  O   UNL     1      32.645  44.006  56.491  1.00  0.00    -0.223 OA
HETATM   19  O   UNL     1      31.002  42.397  57.534  1.00  0.00    -0.223 OA
ENDBRANCH   1  16
TORSDOF 2
ENDMDL
MODEL 7
REMARK VINA RESULT:      -5.7      2.736      3.429
REMARK  2 active torsions:
REMARK  status: ('A' for Active; 'I' for Inactive)
REMARK    1  A    between atoms: S_2  and  C_3 
REMARK    2  A    between atoms: C_7  and  N_8 
ROOT
HETATM    1  C   UNL     1      21.954  49.660  48.058  1.00  0.00     0.060 A 
HETATM    2  C   UNL     1      21.043  50.713  48.089  1.00  0.00     0.044 A 
HETATM    3  C   UNL     1      19.706  50.471  47.759  1.00  0.00     0.033 A 
HETATM    4 BR   UNL     1      18.526  51.967  47.759  1.00  0.00    -0.049 Br
HETATM    5  C   UNL     1      19.253  49.176  47.408  1.00  0.00     0.028 A 
HETATM    6  C   UNL     1      20.200  48.137  47.394  1.00  0.00     0.026 A 
HETATM    7  C   UNL     1      21.540  48.371  47.719  1.00  0.00     0.025 A 
ENDROOT
BRANCH   5   8
HETATM    8  N   UNL     1      17.893  48.942  47.125  1.00  0.00    -0.279 NA
HETATM    9  C   UNL     1      17.580  48.221  45.877  1.00  0.00     0.123 C 
HETATM   10  C   UNL     1      16.072  48.354  45.578  1.00  0.00     0.247 C 
HETATM   11  N   UNL     1      15.255  47.885  46.764  1.00  0.00    -0.073 N 
HETATM   12  H   UNL     1      15.381  46.872  46.887  1.00  0.00     0.277 HD
HETATM   13  H   UNL     1      14.258  48.039  46.572  1.00  0.00     0.277 HD
HETATM   14  C   UNL     1      15.631  48.596  48.046  1.00  0.00     0.247 C 
HETATM   15  C   UNL     1      17.145  48.469  48.311  1.00  0.00     0.123 C 
ENDBRANCH   5   8
BRANCH   1  16
HETATM   16  S   UNL     1      23.640  49.951  48.545  1.00  0.00     0.171 S 
HETATM   17  C   UNL     1      24.131  48.420  49.293  1.00  0.00     0.167 C 
HETATM   18  O   UNL     1      23.616  50.973  49.574  1.00  0.00    -0.223 OA
HETATM   19  O   UNL     1      24.398  50.136  47.324  1.00  0.00    -0.223 OA
ENDBRANCH   1  16
TORSDOF 2
ENDMDL
MODEL 8
REMARK VINA RESULT:      -5.7     13.577     15.940
REMARK  2 active torsions:
REMARK  status: ('A' for Active; 'I' for Inactive)
REMARK    1  A    between atoms: S_2  and  C_3 
REMARK    2  A    between atoms: C_7  and  N_8 
ROOT
HETATM    1  C   UNL     1      29.978  51.332  41.165  1.00  0.00     0.060 A 
HETATM    2  C   UNL     1      30.610  51.568  42.383  1.00  0.00     0.044 A 
HETATM    3  C   UNL     1      32.006  51.549  42.444  1.00  0.00     0.033 A 
HETATM    4 BR   UNL     1      32.806  51.816  44.153  1.00  0.00    -0.049 Br
HETATM    5  C   UNL     1      32.794  51.310  41.291  1.00  0.00     0.028 A 
HETATM    6  C   UNL     1      32.121  51.082  40.079  1.00  0.00     0.026 A 
HETATM    7  C   UNL     1      30.724  51.096  40.010  1.00  0.00     0.025 A 
ENDROOT
BRANCH   5   8
HETATM    8  N   UNL     1      34.201  51.343  41.363  1.00  0.00    -0.279 NA
HETATM    9  C   UNL     1      34.886  50.082  41.703  1.00  0.00     0.123 C 
HETATM   10  C   UNL     1      36.358  50.382  42.058  1.00  0.00     0.247 C 
HETATM   11  N   UNL     1      37.026  51.144  40.933  1.00  0.00    -0.073 N 
HETATM   12  H   UNL     1      37.104  50.538  40.107  1.00  0.00     0.277 HD
HETATM   13  H   UNL     1      37.984  51.391  41.212  1.00  0.00     0.277 HD
HETATM   14  C   UNL     1      36.277  52.406  40.560  1.00  0.00     0.247 C 
HETATM   15  C   UNL     1      34.805  52.082  40.233  1.00  0.00     0.123 C 
ENDBRANCH   5   8
BRANCH   1  16
HETATM   16  S   UNL     1      28.203  51.424  41.071  1.00  0.00     0.171 S 
HETATM   17  C   UNL     1      27.852  51.036  39.378  1.00  0.00     0.167 C 
HETATM   18  O   UNL     1      27.836  52.807  41.307  1.00  0.00    -0.223 OA
HETATM   19  O   UNL     1      27.688  50.360  41.909  1.00  0.00    -0.223 OA
ENDBRANCH   1  16
TORSDOF 2
ENDMDL
MODEL 9
REMARK VINA RESULT:      -5.7     12.394     13.990
REMARK  2 active torsions:
REMARK  status: ('A' for Active; 'I' for Inactive)
REMARK    1  A    between atoms: S_2  and  C_3 
REMARK    2  A    between atoms: C_7  and  N_8 
ROOT
HETATM    1  C   UNL     1      32.629  51.112  41.317  1.00  0.00     0.060 A 
HETATM    2  C   UNL     1      32.384  49.910  40.656  1.00  0.00     0.044 A 
HETATM    3  C   UNL     1      31.081  49.605  40.252  1.00  0.00     0.033 A 
HETATM    4 BR   UNL     1      30.804  47.918  39.411  1.00  0.00    -0.049 Br
HETATM    5  C   UNL     1      30.006  50.496  40.488  1.00  0.00     0.028 A 
HETATM    6  C   UNL     1      30.292  51.701  41.152  1.00  0.00     0.026 A 
HETATM    7  C   UNL     1      31.593  52.013  41.562  1.00  0.00     0.025 A 
ENDROOT
BRANCH   5   8
HETATM    8  N   UNL     1      28.708  50.193  40.032  1.00  0.00    -0.279 NA
HETATM    9  C   UNL     1      27.764  49.631  41.015  1.00  0.00     0.123 C 
HETATM   10  C   UNL     1      26.535  49.062  40.274  1.00  0.00     0.247 C 
HETATM   11  N   UNL     1      25.917  50.122  39.386  1.00  0.00    -0.073 N 
HETATM   12  H   UNL     1      25.515  50.866  39.970  1.00  0.00     0.277 HD
HETATM   13  H   UNL     1      25.142  49.710  38.854  1.00  0.00     0.277 HD
HETATM   14  C   UNL     1      26.916  50.727  38.422  1.00  0.00     0.247 C 
HETATM   15  C   UNL     1      28.143  51.267  39.184  1.00  0.00     0.123 C 
ENDBRANCH   5   8
BRANCH   1  16
HETATM   16  S   UNL     1      34.297  51.534  41.768  1.00  0.00     0.171 S 
HETATM   17  C   UNL     1      35.180  50.006  41.588  1.00  0.00     0.167 C 
HETATM   18  O   UNL     1      34.282  51.886  43.175  1.00  0.00    -0.223 OA
HETATM   19  O   UNL     1      34.775  52.467  40.768  1.00  0.00    -0.223 OA
ENDBRANCH   1  16
TORSDOF 2
ENDMDL
MODEL 10
REMARK VINA RESULT:      -5.7     13.728     15.740
REMARK  2 active torsions:
REMARK  status: ('A' for Active; 'I' for Inactive)
REMARK    1  A    between atoms: S_2  and  C_3 
REMARK    2  A    between atoms: C_7  and  N_8 
ROOT
HETATM    1  C   UNL     1      30.191  50.060  41.393  1.00  0.00     0.060 A 
HETATM    2  C   UNL     1      30.888  50.916  40.545  1.00  0.00     0.044 A 
HETATM    3  C   UNL     1      32.195  51.290  40.874  1.00  0.00     0.033 A 
HETATM    4 BR   UNL     1      33.069  52.514  39.704  1.00  0.00    -0.049 Br
HETATM    5  C   UNL     1      32.831  50.806  42.043  1.00  0.00     0.028 A 
HETATM    6  C   UNL     1      32.098  49.939  42.871  1.00  0.00     0.026 A 
HETATM    7  C   UNL     1      30.789  49.563  42.552  1.00  0.00     0.025 A 
ENDROOT
BRANCH   5   8
HETATM    8  N   UNL     1      34.164  51.156  42.333  1.00  0.00    -0.279 NA
HETATM    9  C   UNL     1      34.430  51.756  43.653  1.00  0.00     0.123 C 
HETATM   10  C   UNL     1      35.848  52.368  43.659  1.00  0.00     0.247 C 
HETATM   11  N   UNL     1      36.872  51.328  43.254  1.00  0.00    -0.073 N 
HETATM   12  H   UNL     1      36.928  50.602  43.979  1.00  0.00     0.277 HD
HETATM   13  H   UNL     1      37.799  51.767  43.201  1.00  0.00     0.277 HD
HETATM   14  C   UNL     1      36.551  50.682  41.923  1.00  0.00     0.247 C 
HETATM   15  C   UNL     1      35.123  50.100  41.936  1.00  0.00     0.123 C 
ENDBRANCH   5   8
BRANCH   1  16
HETATM   16  S   UNL     1      28.555  49.528  40.941  1.00  0.00     0.171 S 
HETATM   17  C   UNL     1      28.279  50.305  39.372  1.00  0.00     0.167 C 
HETATM   18  O   UNL     1      27.637  50.107  41.903  1.00  0.00    -0.223 OA
HETATM   19  O   UNL     1      28.624  48.094  40.744  1.00  0.00    -0.223 OA
ENDBRANCH   1  16
TORSDOF 2
ENDMDL
