MODEL 1
REMARK VINA RESULT:      -9.5      0.000      0.000
REMARK  5 active torsions:
REMARK  status: ('A' for Active; 'I' for Inactive)
REMARK    1  A    between atoms: O_2  and  C_3 
REMARK    2  A    between atoms: C_4  and  C_5 
REMARK       I    between atoms: C_5  and  N_6 
REMARK    3  A    between atoms: N_6  and  C_7 
REMARK    4  A    between atoms: C_7  and  C_8 
REMARK       I    between atoms: C_8  and  N_9 
REMARK    5  A    between atoms: N_9  and  N_10 
ROOT
HETATM    1  C   UNL     1      25.434  44.782  51.326  1.00  0.00     0.255 C 
HETATM    2  N   UNL     1      25.531  45.742  50.332  1.00  0.00    -0.245 N 
HETATM    3  O   UNL     1      24.432  44.597  52.021  1.00  0.00    -0.270 OA
HETATM    4  H   UNL     1      26.335  45.737  49.694  1.00  0.00     0.192 HD
ENDROOT
BRANCH   1   5
HETATM    5  C   UNL     1      26.618  43.815  51.409  1.00  0.00     0.227 C 
BRANCH   5   6
HETATM    6  N   UNL     1      27.687  44.172  52.329  1.00  0.00    -0.348 N 
HETATM    7  C   UNL     1      28.003  43.362  53.400  1.00  0.00     0.254 C 
HETATM    8  O   UNL     1      27.583  42.215  53.495  1.00  0.00    -0.268 OA
HETATM    9  H   UNL     1      27.948  45.148  52.371  1.00  0.00     0.163 HD
BRANCH   7  10
HETATM   10  C   UNL     1      28.898  43.968  54.421  1.00  0.00     0.065 A 
HETATM   11  C   UNL     1      28.642  45.245  54.935  1.00  0.00     0.084 A 
HETATM   12  C   UNL     1      29.518  45.817  55.863  1.00  0.00     0.038 A 
HETATM   13  C   UNL     1      30.629  45.101  56.310  1.00  0.00     0.003 A 
HETATM   14  C   UNL     1      30.873  43.816  55.825  1.00  0.00     0.001 A 
HETATM   15  C   UNL     1      30.010  43.248  54.885  1.00  0.00     0.020 A 
BRANCH  11  16
HETATM   16  O   UNL     1      27.601  45.998  54.458  1.00  0.00    -0.355 OA
HETATM   17  C   UNL     1      27.639  47.313  55.012  1.00  0.00     0.210 C 
ENDBRANCH  11  16
ENDBRANCH   7  10
ENDBRANCH   5   6
ENDBRANCH   1   5
BRANCH   2  18
HETATM   18  N   UNL     1      24.438  46.512  50.048  1.00  0.00    -0.166 NA
HETATM   19  C   UNL     1      24.642  47.688  49.553  1.00  0.00     0.157 A 
HETATM   20  C   UNL     1      25.960  48.422  49.285  1.00  0.00     0.277 A 
HETATM   21  C   UNL     1      23.586  48.595  49.113  1.00  0.00     0.028 A 
HETATM   22  O   UNL     1      27.063  48.023  49.580  1.00  0.00    -0.266 OA
HETATM   23  N   UNL     1      25.602  49.614  48.688  1.00  0.00    -0.321 N 
HETATM   24  C   UNL     1      24.218  49.722  48.592  1.00  0.00     0.048 A 
HETATM   25  H   UNL     1      26.275  50.307  48.397  1.00  0.00     0.169 HD
HETATM   26  C   UNL     1      23.492  50.771  48.069  1.00  0.00     0.032 A 
HETATM   27  C   UNL     1      22.095  50.658  48.085  1.00  0.00     0.021 A 
HETATM   28  C   UNL     1      21.469  49.511  48.619  1.00  0.00     0.012 A 
HETATM   29 BR   UNL     1      19.580  49.408  48.622  1.00  0.00    -0.051 Br
HETATM   30  C   UNL     1      22.213  48.455  49.143  1.00  0.00     0.035 A 
ENDBRANCH   2  18
TORSDOF 5
ENDMDL
MODEL 2
REMARK VINA RESULT:      -9.4      3.302      9.322
REMARK  5 active torsions:
REMARK  status: ('A' for Active; 'I' for Inactive)
REMARK    1  A    between atoms: O_2  and  C_3 
REMARK    2  A    between atoms: C_4  and  C_5 
REMARK       I    between atoms: C_5  and  N_6 
REMARK    3  A    between atoms: N_6  and  C_7 
REMARK    4  A    between atoms: C_7  and  C_8 
REMARK       I    between atoms: C_8  and  N_9 
REMARK    5  A    between atoms: N_9  and  N_10 
ROOT
HETATM    1  C   UNL     1      25.499  46.611  51.681  1.00  0.00     0.255 C 
HETATM    2  N   UNL     1      25.509  45.531  52.549  1.00  0.00    -0.245 N 
HETATM    3  O   UNL     1      26.235  47.595  51.785  1.00  0.00    -0.270 OA
HETATM    4  H   UNL     1      24.980  44.684  52.315  1.00  0.00     0.192 HD
ENDROOT
BRANCH   1   5
HETATM    5  C   UNL     1      24.611  46.440  50.446  1.00  0.00     0.227 C 
BRANCH   5   6
HETATM    6  N   UNL     1      23.644  47.495  50.187  1.00  0.00    -0.348 N 
HETATM    7  C   UNL     1      22.897  47.505  49.027  1.00  0.00     0.254 C 
HETATM    8  O   UNL     1      22.828  46.530  48.288  1.00  0.00    -0.268 OA
HETATM    9  H   UNL     1      23.774  48.366  50.683  1.00  0.00     0.163 HD
BRANCH   7  10
HETATM   10  C   UNL     1      22.169  48.771  48.743  1.00  0.00     0.065 A 
HETATM   11  C   UNL     1      22.833  50.003  48.772  1.00  0.00     0.084 A 
HETATM   12  C   UNL     1      22.124  51.188  48.545  1.00  0.00     0.038 A 
HETATM   13  C   UNL     1      20.761  51.142  48.250  1.00  0.00     0.003 A 
HETATM   14  C   UNL     1      20.101  49.915  48.190  1.00  0.00     0.001 A 
HETATM   15  C   UNL     1      20.800  48.731  48.433  1.00  0.00     0.020 A 
BRANCH  11  16
HETATM   16  O   UNL     1      24.152  50.082  49.132  1.00  0.00    -0.355 OA
HETATM   17  C   UNL     1      24.985  50.145  47.973  1.00  0.00     0.210 C 
ENDBRANCH  11  16
ENDBRANCH   7  10
ENDBRANCH   5   6
ENDBRANCH   1   5
BRANCH   2  18
HETATM   18  N   UNL     1      26.423  45.507  53.564  1.00  0.00    -0.166 NA
HETATM   19  C   UNL     1      27.400  44.665  53.477  1.00  0.00     0.157 A 
HETATM   20  C   UNL     1      27.677  43.596  52.416  1.00  0.00     0.277 A 
HETATM   21  C   UNL     1      28.503  44.577  54.428  1.00  0.00     0.028 A 
HETATM   22  O   UNL     1      26.949  43.311  51.492  1.00  0.00    -0.266 OA
HETATM   23  N   UNL     1      28.885  43.030  52.771  1.00  0.00    -0.321 N 
HETATM   24  C   UNL     1      29.367  43.594  53.948  1.00  0.00     0.048 A 
HETATM   25  H   UNL     1      29.320  42.288  52.244  1.00  0.00     0.169 HD
HETATM   26  C   UNL     1      30.532  43.278  54.615  1.00  0.00     0.032 A 
HETATM   27  C   UNL     1      30.808  43.982  55.795  1.00  0.00     0.021 A 
HETATM   28  C   UNL     1      29.922  44.973  56.271  1.00  0.00     0.012 A 
HETATM   29 BR   UNL     1      30.338  45.892  57.871  1.00  0.00    -0.051 Br
HETATM   30  C   UNL     1      28.749  45.286  55.586  1.00  0.00     0.035 A 
ENDBRANCH   2  18
TORSDOF 5
ENDMDL
MODEL 3
REMARK VINA RESULT:      -9.4      3.478      9.582
REMARK  5 active torsions:
REMARK  status: ('A' for Active; 'I' for Inactive)
REMARK    1  A    between atoms: O_2  and  C_3 
REMARK    2  A    between atoms: C_4  and  C_5 
REMARK       I    between atoms: C_5  and  N_6 
REMARK    3  A    between atoms: N_6  and  C_7 
REMARK    4  A    between atoms: C_7  and  C_8 
REMARK       I    between atoms: C_8  and  N_9 
REMARK    5  A    between atoms: N_9  and  N_10 
ROOT
HETATM    1  C   UNL     1      24.802  47.149  50.556  1.00  0.00     0.255 C 
HETATM    2  N   UNL     1      24.663  46.139  51.493  1.00  0.00    -0.245 N 
HETATM    3  O   UNL     1      25.744  47.945  50.524  1.00  0.00    -0.270 OA
HETATM    4  H   UNL     1      23.939  45.423  51.368  1.00  0.00     0.192 HD
ENDROOT
BRANCH   1   5
HETATM    5  C   UNL     1      23.776  47.123  49.420  1.00  0.00     0.227 C 
BRANCH   5   6
HETATM    6  N   UNL     1      22.602  47.967  49.583  1.00  0.00    -0.348 N 
HETATM    7  C   UNL     1      21.946  48.491  48.488  1.00  0.00     0.254 C 
HETATM    8  O   UNL     1      22.157  48.089  47.350  1.00  0.00    -0.268 OA
HETATM    9  H   UNL     1      22.490  48.428  50.476  1.00  0.00     0.163 HD
BRANCH   7  10
HETATM   10  C   UNL     1      20.956  49.561  48.784  1.00  0.00     0.065 A 
HETATM   11  C   UNL     1      19.780  49.276  49.488  1.00  0.00     0.084 A 
HETATM   12  C   UNL     1      18.840  50.286  49.720  1.00  0.00     0.038 A 
HETATM   13  C   UNL     1      19.089  51.588  49.285  1.00  0.00     0.003 A 
HETATM   14  C   UNL     1      20.273  51.883  48.610  1.00  0.00     0.001 A 
HETATM   15  C   UNL     1      21.206  50.875  48.360  1.00  0.00     0.020 A 
BRANCH  11  16
HETATM   16  O   UNL     1      19.478  47.993  49.861  1.00  0.00    -0.355 OA
HETATM   17  C   UNL     1      18.463  47.452  49.014  1.00  0.00     0.210 C 
ENDBRANCH  11  16
ENDBRANCH   7  10
ENDBRANCH   5   6
ENDBRANCH   1   5
BRANCH   2  18
HETATM   18  N   UNL     1      25.649  45.958  52.422  1.00  0.00    -0.166 NA
HETATM   19  C   UNL     1      26.181  44.784  52.517  1.00  0.00     0.157 A 
HETATM   20  C   UNL     1      25.827  43.488  51.780  1.00  0.00     0.277 A 
HETATM   21  C   UNL     1      27.301  44.451  53.391  1.00  0.00     0.028 A 
HETATM   22  O   UNL     1      24.902  43.340  51.014  1.00  0.00    -0.266 OA
HETATM   23  N   UNL     1      26.752  42.557  52.209  1.00  0.00    -0.321 N 
HETATM   24  C   UNL     1      27.609  43.113  53.154  1.00  0.00     0.048 A 
HETATM   25  H   UNL     1      26.761  41.602  51.885  1.00  0.00     0.169 HD
HETATM   26  C   UNL     1      28.647  42.490  53.816  1.00  0.00     0.032 A 
HETATM   27  C   UNL     1      29.374  43.256  54.736  1.00  0.00     0.021 A 
HETATM   28  C   UNL     1      29.049  44.610  54.967  1.00  0.00     0.012 A 
HETATM   29 BR   UNL     1      30.059  45.600  56.223  1.00  0.00    -0.051 Br
HETATM   30  C   UNL     1      28.000  45.230  54.290  1.00  0.00     0.035 A 
ENDBRANCH   2  18
TORSDOF 5
ENDMDL
MODEL 4
REMARK VINA RESULT:      -9.3      3.473      8.769
REMARK  5 active torsions:
REMARK  status: ('A' for Active; 'I' for Inactive)
REMARK    1  A    between atoms: O_2  and  C_3 
REMARK    2  A    between atoms: C_4  and  C_5 
REMARK       I    between atoms: C_5  and  N_6 
REMARK    3  A    between atoms: N_6  and  C_7 
REMARK    4  A    between atoms: C_7  and  C_8 
REMARK       I    between atoms: C_8  and  N_9 
REMARK    5  A    between atoms: N_9  and  N_10 
ROOT
HETATM    1  C   UNL     1      24.984  45.317  49.970  1.00  0.00     0.255 C 
HETATM    2  N   UNL     1      24.851  45.124  51.336  1.00  0.00    -0.245 N 
HETATM    3  O   UNL     1      26.056  45.276  49.362  1.00  0.00    -0.270 OA
HETATM    4  H   UNL     1      23.917  45.020  51.747  1.00  0.00     0.192 HD
ENDROOT
BRANCH   1   5
HETATM    5  C   UNL     1      23.665  45.422  49.201  1.00  0.00     0.227 C 
BRANCH   5   6
HETATM    6  N   UNL     1      22.971  46.700  49.269  1.00  0.00    -0.348 N 
HETATM    7  C   UNL     1      22.447  47.285  48.134  1.00  0.00     0.254 C 
HETATM    8  O   UNL     1      22.322  46.669  47.083  1.00  0.00    -0.268 OA
HETATM    9  H   UNL     1      23.177  47.290  50.063  1.00  0.00     0.163 HD
BRANCH   7  10
HETATM   10  C   UNL     1      22.029  48.704  48.279  1.00  0.00     0.065 A 
HETATM   11  C   UNL     1      22.898  49.657  48.825  1.00  0.00     0.084 A 
HETATM   12  C   UNL     1      22.474  50.979  48.993  1.00  0.00     0.038 A 
HETATM   13  C   UNL     1      21.196  51.362  48.582  1.00  0.00     0.003 A 
HETATM   14  C   UNL     1      20.337  50.424  48.010  1.00  0.00     0.001 A 
HETATM   15  C   UNL     1      20.750  49.099  47.856  1.00  0.00     0.020 A 
BRANCH  11  16
HETATM   16  O   UNL     1      24.128  49.292  49.304  1.00  0.00    -0.355 OA
HETATM   17  C   UNL     1      25.165  49.811  48.470  1.00  0.00     0.210 C 
ENDBRANCH  11  16
ENDBRANCH   7  10
ENDBRANCH   5   6
ENDBRANCH   1   5
BRANCH   2  18
HETATM   18  N   UNL     1      25.960  44.813  52.071  1.00  0.00    -0.166 NA
HETATM   19  C   UNL     1      26.378  45.682  52.930  1.00  0.00     0.157 A 
HETATM   20  C   UNL     1      25.857  47.093  53.227  1.00  0.00     0.277 A 
HETATM   21  C   UNL     1      27.488  45.468  53.852  1.00  0.00     0.028 A 
HETATM   22  O   UNL     1      24.979  47.664  52.620  1.00  0.00    -0.266 OA
HETATM   23  N   UNL     1      26.621  47.553  54.280  1.00  0.00    -0.321 N 
HETATM   24  C   UNL     1      27.578  46.611  54.644  1.00  0.00     0.048 A 
HETATM   25  H   UNL     1      26.496  48.466  54.691  1.00  0.00     0.169 HD
HETATM   26  C   UNL     1      28.526  46.718  55.640  1.00  0.00     0.032 A 
HETATM   27  C   UNL     1      29.395  45.635  55.820  1.00  0.00     0.021 A 
HETATM   28  C   UNL     1      29.295  44.484  55.008  1.00  0.00     0.012 A 
HETATM   29 BR   UNL     1      30.495  43.049  55.288  1.00  0.00    -0.051 Br
HETATM   30  C   UNL     1      28.330  44.385  54.006  1.00  0.00     0.035 A 
ENDBRANCH   2  18
TORSDOF 5
ENDMDL
MODEL 5
REMARK VINA RESULT:      -9.1      3.542      8.467
REMARK  5 active torsions:
REMARK  status: ('A' for Active; 'I' for Inactive)
REMARK    1  A    between atoms: O_2  and  C_3 
REMARK    2  A    between atoms: C_4  and  C_5 
REMARK       I    between atoms: C_5  and  N_6 
REMARK    3  A    between atoms: N_6  and  C_7 
REMARK    4  A    between atoms: C_7  and  C_8 
REMARK       I    between atoms: C_8  and  N_9 
REMARK    5  A    between atoms: N_9  and  N_10 
ROOT
HETATM    1  C   UNL     1      23.784  44.261  49.999  1.00  0.00     0.255 C 
HETATM    2  N   UNL     1      24.989  44.940  49.925  1.00  0.00    -0.245 N 
HETATM    3  O   UNL     1      23.529  43.383  50.827  1.00  0.00    -0.270 OA
HETATM    4  H   UNL     1      25.076  45.759  49.313  1.00  0.00     0.192 HD
ENDROOT
BRANCH   1   5
HETATM    5  C   UNL     1      22.685  44.790  49.074  1.00  0.00     0.227 C 
BRANCH   5   6
HETATM    6  N   UNL     1      22.353  46.201  49.196  1.00  0.00    -0.348 N 
HETATM    7  C   UNL     1      22.277  47.012  48.083  1.00  0.00     0.254 C 
HETATM    8  O   UNL     1      22.241  46.556  46.946  1.00  0.00    -0.268 OA
HETATM    9  H   UNL     1      22.518  46.633  50.095  1.00  0.00     0.163 HD
BRANCH   7  10
HETATM   10  C   UNL     1      22.223  48.473  48.355  1.00  0.00     0.065 A 
HETATM   11  C   UNL     1      21.109  49.048  48.978  1.00  0.00     0.084 A 
HETATM   12  C   UNL     1      21.057  50.430  49.188  1.00  0.00     0.038 A 
HETATM   13  C   UNL     1      22.133  51.236  48.813  1.00  0.00     0.003 A 
HETATM   14  C   UNL     1      23.259  50.665  48.220  1.00  0.00     0.001 A 
HETATM   15  C   UNL     1      23.308  49.288  47.992  1.00  0.00     0.020 A 
BRANCH  11  16
HETATM   16  O   UNL     1      20.010  48.291  49.288  1.00  0.00    -0.355 OA
HETATM   17  C   UNL     1      19.206  48.952  50.265  1.00  0.00     0.210 C 
ENDBRANCH  11  16
ENDBRANCH   7  10
ENDBRANCH   5   6
ENDBRANCH   1   5
BRANCH   2  18
HETATM   18  N   UNL     1      25.955  44.676  50.854  1.00  0.00    -0.166 NA
HETATM   19  C   UNL     1      26.121  45.527  51.811  1.00  0.00     0.157 A 
HETATM   20  C   UNL     1      25.433  46.875  52.052  1.00  0.00     0.277 A 
HETATM   21  C   UNL     1      27.044  45.348  52.927  1.00  0.00     0.028 A 
HETATM   22  O   UNL     1      24.646  47.410  51.304  1.00  0.00    -0.266 OA
HETATM   23  N   UNL     1      25.934  47.334  53.253  1.00  0.00    -0.321 N 
HETATM   24  C   UNL     1      26.879  46.450  53.764  1.00  0.00     0.048 A 
HETATM   25  H   UNL     1      25.654  48.211  53.665  1.00  0.00     0.169 HD
HETATM   26  C   UNL     1      27.601  46.575  54.932  1.00  0.00     0.032 A 
HETATM   27  C   UNL     1      28.508  45.553  55.240  1.00  0.00     0.021 A 
HETATM   28  C   UNL     1      28.667  44.443  54.382  1.00  0.00     0.012 A 
HETATM   29 BR   UNL     1      29.908  43.091  54.840  1.00  0.00    -0.051 Br
HETATM   30  C   UNL     1      27.929  44.325  53.204  1.00  0.00     0.035 A 
ENDBRANCH   2  18
TORSDOF 5
ENDMDL
MODEL 6
REMARK VINA RESULT:      -8.8      3.489      8.425
REMARK  5 active torsions:
REMARK  status: ('A' for Active; 'I' for Inactive)
REMARK    1  A    between atoms: O_2  and  C_3 
REMARK    2  A    between atoms: C_4  and  C_5 
REMARK       I    between atoms: C_5  and  N_6 
REMARK    3  A    between atoms: N_6  and  C_7 
REMARK    4  A    between atoms: C_7  and  C_8 
REMARK       I    between atoms: C_8  and  N_9 
REMARK    5  A    between atoms: N_9  and  N_10 
ROOT
HETATM    1  C   UNL     1      23.434  44.415  49.669  1.00  0.00     0.255 C 
HETATM    2  N   UNL     1      24.701  44.958  49.529  1.00  0.00    -0.245 N 
HETATM    3  O   UNL     1      23.105  43.641  50.572  1.00  0.00    -0.270 OA
HETATM    4  H   UNL     1      24.861  45.709  48.848  1.00  0.00     0.192 HD
ENDROOT
BRANCH   1   5
HETATM    5  C   UNL     1      22.381  44.974  48.710  1.00  0.00     0.227 C 
BRANCH   5   6
HETATM    6  N   UNL     1      21.894  46.316  48.987  1.00  0.00    -0.348 N 
HETATM    7  C   UNL     1      21.897  47.289  48.009  1.00  0.00     0.254 C 
HETATM    8  O   UNL     1      22.072  47.022  46.826  1.00  0.00    -0.268 OA
HETATM    9  H   UNL     1      21.882  46.608  49.955  1.00  0.00     0.163 HD
BRANCH   7  10
HETATM   10  C   UNL     1      21.657  48.678  48.484  1.00  0.00     0.065 A 
HETATM   11  C   UNL     1      22.533  49.715  48.142  1.00  0.00     0.084 A 
HETATM   12  C   UNL     1      22.315  51.007  48.634  1.00  0.00     0.038 A 
HETATM   13  C   UNL     1      21.203  51.274  49.433  1.00  0.00     0.003 A 
HETATM   14  C   UNL     1      20.310  50.251  49.751  1.00  0.00     0.001 A 
HETATM   15  C   UNL     1      20.533  48.956  49.278  1.00  0.00     0.020 A 
BRANCH  11  16
HETATM   16  O   UNL     1      23.670  49.465  47.422  1.00  0.00    -0.355 OA
HETATM   17  C   UNL     1      24.819  49.964  48.110  1.00  0.00     0.210 C 
ENDBRANCH  11  16
ENDBRANCH   7  10
ENDBRANCH   5   6
ENDBRANCH   1   5
BRANCH   2  18
HETATM   18  N   UNL     1      25.650  44.675  50.471  1.00  0.00    -0.166 NA
HETATM   19  C   UNL     1      25.838  45.536  51.416  1.00  0.00     0.157 A 
HETATM   20  C   UNL     1      25.197  46.911  51.627  1.00  0.00     0.277 A 
HETATM   21  C   UNL     1      26.745  45.343  52.542  1.00  0.00     0.028 A 
HETATM   22  O   UNL     1      24.435  47.461  50.865  1.00  0.00    -0.266 OA
HETATM   23  N   UNL     1      25.704  47.372  52.826  1.00  0.00    -0.321 N 
HETATM   24  C   UNL     1      26.612  46.464  53.359  1.00  0.00     0.048 A 
HETATM   25  H   UNL     1      25.452  48.266  53.221  1.00  0.00     0.169 HD
HETATM   26  C   UNL     1      27.329  46.583  54.531  1.00  0.00     0.032 A 
HETATM   27  C   UNL     1      28.197  45.535  54.864  1.00  0.00     0.021 A 
HETATM   28  C   UNL     1      28.323  44.406  54.026  1.00  0.00     0.012 A 
HETATM   29 BR   UNL     1      29.511  43.019  54.517  1.00  0.00    -0.051 Br
HETATM   30  C   UNL     1      27.591  44.295  52.844  1.00  0.00     0.035 A 
ENDBRANCH   2  18
TORSDOF 5
ENDMDL
MODEL 7
REMARK VINA RESULT:      -8.7      3.618      8.907
REMARK  5 active torsions:
REMARK  status: ('A' for Active; 'I' for Inactive)
REMARK    1  A    between atoms: O_2  and  C_3 
REMARK    2  A    between atoms: C_4  and  C_5 
REMARK       I    between atoms: C_5  and  N_6 
REMARK    3  A    between atoms: N_6  and  C_7 
REMARK    4  A    between atoms: C_7  and  C_8 
REMARK       I    between atoms: C_8  and  N_9 
REMARK    5  A    between atoms: N_9  and  N_10 
ROOT
HETATM    1  C   UNL     1      26.471  44.797  51.120  1.00  0.00     0.255 C 
HETATM    2  N   UNL     1      26.377  45.128  52.462  1.00  0.00    -0.245 N 
HETATM    3  O   UNL     1      27.487  44.348  50.583  1.00  0.00    -0.270 OA
HETATM    4  H   UNL     1      25.461  45.350  52.869  1.00  0.00     0.192 HD
ENDROOT
BRANCH   1   5
HETATM    5  C   UNL     1      25.153  44.862  50.344  1.00  0.00     0.227 C 
BRANCH   5   6
HETATM    6  N   UNL     1      24.921  46.062  49.554  1.00  0.00    -0.348 N 
HETATM    7  C   UNL     1      24.641  47.269  50.162  1.00  0.00     0.254 C 
HETATM    8  O   UNL     1      24.809  47.448  51.362  1.00  0.00    -0.268 OA
HETATM    9  H   UNL     1      24.636  45.929  48.593  1.00  0.00     0.163 HD
BRANCH   7  10
HETATM   10  C   UNL     1      24.138  48.339  49.260  1.00  0.00     0.065 A 
HETATM   11  C   UNL     1      22.824  48.314  48.777  1.00  0.00     0.084 A 
HETATM   12  C   UNL     1      22.381  49.306  47.896  1.00  0.00     0.038 A 
HETATM   13  C   UNL     1      23.235  50.346  47.526  1.00  0.00     0.003 A 
HETATM   14  C   UNL     1      24.535  50.394  48.028  1.00  0.00     0.001 A 
HETATM   15  C   UNL     1      24.987  49.396  48.895  1.00  0.00     0.020 A 
BRANCH  11  16
HETATM   16  O   UNL     1      21.991  47.265  49.065  1.00  0.00    -0.355 OA
HETATM   17  C   UNL     1      21.660  46.547  47.875  1.00  0.00     0.210 C 
ENDBRANCH  11  16
ENDBRANCH   7  10
ENDBRANCH   5   6
ENDBRANCH   1   5
BRANCH   2  18
HETATM   18  N   UNL     1      27.450  44.901  53.277  1.00  0.00    -0.166 NA
HETATM   19  C   UNL     1      27.554  45.611  54.351  1.00  0.00     0.157 A 
HETATM   20  C   UNL     1      26.675  46.763  54.850  1.00  0.00     0.277 A 
HETATM   21  C   UNL     1      28.587  45.431  55.366  1.00  0.00     0.028 A 
HETATM   22  O   UNL     1      25.749  47.257  54.249  1.00  0.00    -0.266 OA
HETATM   23  N   UNL     1      27.195  47.115  56.080  1.00  0.00    -0.321 N 
HETATM   24  C   UNL     1      28.313  46.345  56.381  1.00  0.00     0.048 A 
HETATM   25  H   UNL     1      26.810  47.855  56.647  1.00  0.00     0.169 HD
HETATM   26  C   UNL     1      29.103  46.417  57.510  1.00  0.00     0.032 A 
HETATM   27  C   UNL     1      30.190  45.537  57.591  1.00  0.00     0.021 A 
HETATM   28  C   UNL     1      30.456  44.618  56.553  1.00  0.00     0.012 A 
HETATM   29 BR   UNL     1      31.939  43.453  56.709  1.00  0.00    -0.051 Br
HETATM   30  C   UNL     1      29.649  44.552  55.418  1.00  0.00     0.035 A 
ENDBRANCH   2  18
TORSDOF 5
ENDMDL
MODEL 8
REMARK VINA RESULT:      -8.6      5.213      7.639
REMARK  5 active torsions:
REMARK  status: ('A' for Active; 'I' for Inactive)
REMARK    1  A    between atoms: O_2  and  C_3 
REMARK    2  A    between atoms: C_4  and  C_5 
REMARK       I    between atoms: C_5  and  N_6 
REMARK    3  A    between atoms: N_6  and  C_7 
REMARK    4  A    between atoms: C_7  and  C_8 
REMARK       I    between atoms: C_8  and  N_9 
REMARK    5  A    between atoms: N_9  and  N_10 
ROOT
HETATM    1  C   UNL     1      26.271  43.760  51.949  1.00  0.00     0.255 C 
HETATM    2  N   UNL     1      26.553  42.404  51.994  1.00  0.00    -0.245 N 
HETATM    3  O   UNL     1      26.293  44.443  50.922  1.00  0.00    -0.270 OA
HETATM    4  H   UNL     1      26.368  41.873  52.851  1.00  0.00     0.192 HD
ENDROOT
BRANCH   1   5
HETATM    5  C   UNL     1      25.751  44.356  53.260  1.00  0.00     0.227 C 
BRANCH   5   6
HETATM    6  N   UNL     1      26.693  44.418  54.367  1.00  0.00    -0.348 N 
HETATM    7  C   UNL     1      27.288  45.610  54.727  1.00  0.00     0.254 C 
HETATM    8  O   UNL     1      26.885  46.690  54.312  1.00  0.00    -0.268 OA
HETATM    9  H   UNL     1      27.149  43.554  54.629  1.00  0.00     0.163 HD
BRANCH   7  10
HETATM   10  C   UNL     1      28.436  45.496  55.665  1.00  0.00     0.065 A 
HETATM   11  C   UNL     1      29.536  44.686  55.358  1.00  0.00     0.084 A 
HETATM   12  C   UNL     1      30.589  44.557  56.271  1.00  0.00     0.038 A 
HETATM   13  C   UNL     1      30.563  45.265  57.473  1.00  0.00     0.003 A 
HETATM   14  C   UNL     1      29.485  46.097  57.770  1.00  0.00     0.001 A 
HETATM   15  C   UNL     1      28.423  46.216  56.870  1.00  0.00     0.020 A 
BRANCH  11  16
HETATM   16  O   UNL     1      29.552  43.923  54.221  1.00  0.00    -0.355 OA
HETATM   17  C   UNL     1      30.648  43.008  54.246  1.00  0.00     0.210 C 
ENDBRANCH  11  16
ENDBRANCH   7  10
ENDBRANCH   5   6
ENDBRANCH   1   5
BRANCH   2  18
HETATM   18  N   UNL     1      26.823  41.746  50.827  1.00  0.00    -0.166 NA
HETATM   19  C   UNL     1      27.703  40.800  50.857  1.00  0.00     0.157 A 
HETATM   20  C   UNL     1      28.581  40.319  52.016  1.00  0.00     0.277 A 
HETATM   21  C   UNL     1      28.038  39.945  49.723  1.00  0.00     0.028 A 
HETATM   22  O   UNL     1      28.643  40.825  53.114  1.00  0.00    -0.266 OA
HETATM   23  N   UNL     1      29.286  39.240  51.520  1.00  0.00    -0.321 N 
HETATM   24  C   UNL     1      28.977  39.023  50.181  1.00  0.00     0.048 A 
HETATM   25  H   UNL     1      29.950  38.718  52.071  1.00  0.00     0.169 HD
HETATM   26  C   UNL     1      29.489  38.051  49.348  1.00  0.00     0.032 A 
HETATM   27  C   UNL     1      29.030  38.030  48.025  1.00  0.00     0.021 A 
HETATM   28  C   UNL     1      28.081  38.973  47.574  1.00  0.00     0.012 A 
HETATM   29 BR   UNL     1      27.495  38.906  45.776  1.00  0.00    -0.051 Br
HETATM   30  C   UNL     1      27.567  39.950  48.426  1.00  0.00     0.035 A 
ENDBRANCH   2  18
TORSDOF 5
ENDMDL
MODEL 9
REMARK VINA RESULT:      -8.6      1.809      2.516
REMARK  5 active torsions:
REMARK  status: ('A' for Active; 'I' for Inactive)
REMARK    1  A    between atoms: O_2  and  C_3 
REMARK    2  A    between atoms: C_4  and  C_5 
REMARK       I    between atoms: C_5  and  N_6 
REMARK    3  A    between atoms: N_6  and  C_7 
REMARK    4  A    between atoms: C_7  and  C_8 
REMARK       I    between atoms: C_8  and  N_9 
REMARK    5  A    between atoms: N_9  and  N_10 
ROOT
HETATM    1  C   UNL     1      26.800  44.202  50.315  1.00  0.00     0.255 C 
HETATM    2  N   UNL     1      25.470  44.421  50.638  1.00  0.00    -0.245 N 
HETATM    3  O   UNL     1      27.508  45.004  49.700  1.00  0.00    -0.270 OA
HETATM    4  H   UNL     1      24.990  43.781  51.280  1.00  0.00     0.192 HD
ENDROOT
BRANCH   1   5
HETATM    5  C   UNL     1      27.415  42.942  50.927  1.00  0.00     0.227 C 
BRANCH   5   6
HETATM    6  N   UNL     1      28.293  43.135  52.072  1.00  0.00    -0.348 N 
HETATM    7  C   UNL     1      27.782  43.461  53.311  1.00  0.00     0.254 C 
HETATM    8  O   UNL     1      26.587  43.367  53.568  1.00  0.00    -0.268 OA
HETATM    9  H   UNL     1      29.258  43.361  51.875  1.00  0.00     0.163 HD
BRANCH   7  10
HETATM   10  C   UNL     1      28.778  43.916  54.317  1.00  0.00     0.065 A 
HETATM   11  C   UNL     1      28.712  45.204  54.862  1.00  0.00     0.084 A 
HETATM   12  C   UNL     1      29.683  45.631  55.774  1.00  0.00     0.038 A 
HETATM   13  C   UNL     1      30.698  44.760  56.174  1.00  0.00     0.003 A 
HETATM   14  C   UNL     1      30.751  43.466  55.658  1.00  0.00     0.001 A 
HETATM   15  C   UNL     1      29.795  43.042  54.733  1.00  0.00     0.020 A 
BRANCH  11  16
HETATM   16  O   UNL     1      27.771  46.101  54.431  1.00  0.00    -0.355 OA
HETATM   17  C   UNL     1      27.558  47.115  55.414  1.00  0.00     0.210 C 
ENDBRANCH  11  16
ENDBRANCH   7  10
ENDBRANCH   5   6
ENDBRANCH   1   5
BRANCH   2  18
HETATM   18  N   UNL     1      24.898  45.618  50.311  1.00  0.00    -0.166 NA
HETATM   19  C   UNL     1      24.018  45.628  49.365  1.00  0.00     0.157 A 
HETATM   20  C   UNL     1      23.538  44.485  48.464  1.00  0.00     0.277 A 
HETATM   21  C   UNL     1      23.252  46.802  48.959  1.00  0.00     0.028 A 
HETATM   22  O   UNL     1      23.986  43.361  48.448  1.00  0.00    -0.266 OA
HETATM   23  N   UNL     1      22.541  45.030  47.679  1.00  0.00    -0.321 N 
HETATM   24  C   UNL     1      22.376  46.382  47.960  1.00  0.00     0.048 A 
HETATM   25  H   UNL     1      22.039  44.500  46.983  1.00  0.00     0.169 HD
HETATM   26  C   UNL     1      21.490  47.260  47.371  1.00  0.00     0.032 A 
HETATM   27  C   UNL     1      21.509  48.588  47.816  1.00  0.00     0.021 A 
HETATM   28  C   UNL     1      22.404  49.000  48.828  1.00  0.00     0.012 A 
HETATM   29 BR   UNL     1      22.394  50.805  49.392  1.00  0.00    -0.051 Br
HETATM   30  C   UNL     1      23.294  48.103  49.418  1.00  0.00     0.035 A 
ENDBRANCH   2  18
TORSDOF 5
ENDMDL
MODEL 10
REMARK VINA RESULT:      -8.3      4.868      7.325
REMARK  5 active torsions:
REMARK  status: ('A' for Active; 'I' for Inactive)
REMARK    1  A    between atoms: O_2  and  C_3 
REMARK    2  A    between atoms: C_4  and  C_5 
REMARK       I    between atoms: C_5  and  N_6 
REMARK    3  A    between atoms: N_6  and  C_7 
REMARK    4  A    between atoms: C_7  and  C_8 
REMARK       I    between atoms: C_8  and  N_9 
REMARK    5  A    between atoms: N_9  and  N_10 
ROOT
HETATM    1  C   UNL     1      26.657  43.626  50.574  1.00  0.00     0.255 C 
HETATM    2  N   UNL     1      26.340  42.281  50.681  1.00  0.00    -0.245 N 
HETATM    3  O   UNL     1      26.994  44.180  49.524  1.00  0.00    -0.270 OA
HETATM    4  H   UNL     1      25.923  41.923  51.548  1.00  0.00     0.192 HD
ENDROOT
BRANCH   1   5
HETATM    5  C   UNL     1      26.397  44.454  51.834  1.00  0.00     0.227 C 
BRANCH   5   6
HETATM    6  N   UNL     1      27.532  44.664  52.721  1.00  0.00    -0.348 N 
HETATM    7  C   UNL     1      27.834  43.755  53.714  1.00  0.00     0.254 C 
HETATM    8  O   UNL     1      27.335  42.637  53.747  1.00  0.00    -0.268 OA
HETATM    9  H   UNL     1      27.866  45.613  52.819  1.00  0.00     0.163 HD
BRANCH   7  10
HETATM   10  C   UNL     1      28.819  44.217  54.728  1.00  0.00     0.065 A 
HETATM   11  C   UNL     1      28.586  45.374  55.480  1.00  0.00     0.084 A 
HETATM   12  C   UNL     1      29.542  45.818  56.400  1.00  0.00     0.038 A 
HETATM   13  C   UNL     1      30.714  45.087  56.598  1.00  0.00     0.003 A 
HETATM   14  C   UNL     1      30.938  43.917  55.874  1.00  0.00     0.001 A 
HETATM   15  C   UNL     1      29.994  43.479  54.942  1.00  0.00     0.020 A 
BRANCH  11  16
HETATM   16  O   UNL     1      27.480  46.149  55.252  1.00  0.00    -0.355 OA
HETATM   17  C   UNL     1      27.864  47.483  54.915  1.00  0.00     0.210 C 
ENDBRANCH  11  16
ENDBRANCH   7  10
ENDBRANCH   5   6
ENDBRANCH   1   5
BRANCH   2  18
HETATM   18  N   UNL     1      26.342  41.508  49.554  1.00  0.00    -0.166 NA
HETATM   19  C   UNL     1      27.253  40.598  49.448  1.00  0.00     0.157 A 
HETATM   20  C   UNL     1      28.422  40.271  50.383  1.00  0.00     0.277 A 
HETATM   21  C   UNL     1      27.337  39.635  48.355  1.00  0.00     0.028 A 
HETATM   22  O   UNL     1      28.732  40.895  51.372  1.00  0.00    -0.266 OA
HETATM   23  N   UNL     1      29.038  39.166  49.829  1.00  0.00    -0.321 N 
HETATM   24  C   UNL     1      28.412  38.796  48.643  1.00  0.00     0.048 A 
HETATM   25  H   UNL     1      29.848  38.726  50.238  1.00  0.00     0.169 HD
HETATM   26  C   UNL     1      28.750  37.754  47.805  1.00  0.00     0.032 A 
HETATM   27  C   UNL     1      27.972  37.577  46.653  1.00  0.00     0.021 A 
HETATM   28  C   UNL     1      26.888  38.436  46.373  1.00  0.00     0.012 A 
HETATM   29 BR   UNL     1      25.870  38.158  44.803  1.00  0.00    -0.051 Br
HETATM   30  C   UNL     1      26.553  39.485  47.230  1.00  0.00     0.035 A 
ENDBRANCH   2  18
TORSDOF 5
ENDMDL
