MODEL 1
REMARK VINA RESULT:      -9.1      0.000      0.000
REMARK  12 active torsions:
REMARK  status: ('A' for Active; 'I' for Inactive)
REMARK    1  A    between atoms: C_3  and  O_4 
REMARK    2  A    between atoms: C_8  and  C_9 
REMARK       I    between atoms: C_9  and  N_10 
REMARK    3  A    between atoms: N_10  and  C_11 
REMARK    4  A    between atoms: C_11  and  C_33 
REMARK    5  A    between atoms: C_11  and  C_12 
REMARK    6  A    between atoms: C_12  and  O_13 
REMARK    7  A    between atoms: C_12  and  C_14 
REMARK    8  A    between atoms: C_14  and  N_15 
REMARK    9  A    between atoms: C_17  and  C_18 
REMARK       I    between atoms: C_18  and  N_19 
REMARK   10  A    between atoms: N_19  and  C_20 
REMARK   11  A    between atoms: C_33  and  S_34 
REMARK   12  A    between atoms: S_34  and  C_35 
ROOT
HETATM    1  C   UNL     1      26.399  43.059  50.893  1.00  0.00     0.167 C 
ENDROOT
BRANCH   1   2
HETATM    2  C   UNL     1      26.498  44.390  51.708  1.00  0.00     0.124 C 
BRANCH   2   3
HETATM    3  N   UNL     1      27.668  44.359  52.605  1.00  0.00    -0.349 N 
HETATM    4  C   UNL     1      27.555  43.955  53.919  1.00  0.00     0.252 C 
HETATM    5  O   UNL     1      26.513  43.500  54.378  1.00  0.00    -0.268 OA
HETATM    6  H   UNL     1      28.517  44.845  52.329  1.00  0.00     0.163 HD
BRANCH   4   7
HETATM    7  C   UNL     1      28.779  44.105  54.749  1.00  0.00     0.040 A 
HETATM    8  C   UNL     1      28.980  45.245  55.559  1.00  0.00    -0.013 A 
HETATM    9  C   UNL     1      27.988  46.376  55.576  1.00  0.00     0.052 C 
HETATM   10  C   UNL     1      30.133  45.273  56.357  1.00  0.00     0.072 A 
HETATM   11  C   UNL     1      31.078  44.247  56.315  1.00  0.00     0.037 A 
HETATM   12  C   UNL     1      30.874  43.140  55.497  1.00  0.00     0.004 A 
HETATM   13  C   UNL     1      29.722  43.062  54.723  1.00  0.00     0.018 A 
BRANCH  10  14
HETATM   14  O   UNL     1      30.418  46.291  57.222  1.00  0.00    -0.360 OA
HETATM   15  H   UNL     1      29.773  46.305  57.946  1.00  0.00     0.217 HD
ENDBRANCH  10  14
ENDBRANCH   4   7
ENDBRANCH   2   3
BRANCH   2  16
HETATM   16  C   UNL     1      26.552  45.671  50.859  1.00  0.00     0.107 C 
BRANCH  16  17
HETATM   17  S   UNL     1      24.984  46.605  50.926  1.00  0.00    -0.128 SA
BRANCH  17  18
HETATM   18  C   UNL     1      25.433  47.943  49.835  1.00  0.00     0.000 A 
HETATM   19  C   UNL     1      24.438  48.641  49.144  1.00  0.00     0.018 A 
HETATM   20  C   UNL     1      24.785  49.674  48.271  1.00  0.00     0.001 A 
HETATM   21  C   UNL     1      26.124  50.017  48.089  1.00  0.00     0.000 A 
HETATM   22  C   UNL     1      27.119  49.333  48.786  1.00  0.00     0.001 A 
HETATM   23  C   UNL     1      26.773  48.300  49.661  1.00  0.00     0.018 A 
ENDBRANCH  17  18
ENDBRANCH  16  17
ENDBRANCH   2  16
ENDBRANCH   1   2
BRANCH   1  24
HETATM   24  O   UNL     1      27.657  42.474  50.506  1.00  0.00    -0.392 OA
HETATM   25  H   UNL     1      27.505  41.533  50.268  1.00  0.00     0.210 HD
ENDBRANCH   1  24
BRANCH   1  26
HETATM   26  C   UNL     1      25.548  43.211  49.612  1.00  0.00     0.269 C 
BRANCH  26  27
HETATM   27  N   UNL     1      24.477  42.111  49.611  1.00  0.00    -0.055 N 
HETATM   28  H   UNL     1      24.789  41.542  50.424  1.00  0.00     0.281 HD
HETATM   29  C   UNL     1      24.511  41.129  48.433  1.00  0.00     0.279 C 
HETATM   30  C   UNL     1      24.006  41.863  47.195  1.00  0.00     0.048 C 
HETATM   31  C   UNL     1      22.559  42.343  47.408  1.00  0.00    -0.006 C 
HETATM   32  C   UNL     1      22.357  43.163  48.697  1.00  0.00     0.016 C 
HETATM   33  C   UNL     1      22.010  43.104  46.198  1.00  0.00     0.005 C 
HETATM   34  C   UNL     1      23.084  42.573  49.918  1.00  0.00     0.241 C 
HETATM   35  C   UNL     1      22.551  44.683  48.512  1.00  0.00     0.007 C 
HETATM   36  C   UNL     1      23.252  45.100  47.223  1.00  0.00     0.000 C 
HETATM   37  C   UNL     1      22.663  44.464  45.970  1.00  0.00     0.000 C 
BRANCH  29  38
HETATM   38  C   UNL     1      25.880  40.412  48.313  1.00  0.00     0.249 C 
HETATM   39  N   UNL     1      25.975  39.165  48.889  1.00  0.00    -0.351 N 
HETATM   40  H   UNL     1      25.245  38.875  49.527  1.00  0.00     0.163 HD
HETATM   41  O   UNL     1      26.814  40.996  47.763  1.00  0.00    -0.271 OA
BRANCH  39  42
HETATM   42  C   UNL     1      27.217  38.370  48.999  1.00  0.00     0.022 C 
HETATM   43  C   UNL     1      26.903  36.988  49.587  1.00  0.00     0.037 C 
HETATM   44  C   UNL     1      27.783  38.188  47.578  1.00  0.00     0.037 C 
HETATM   45  C   UNL     1      28.283  39.080  49.848  1.00  0.00     0.037 C 
ENDBRANCH  39  42
ENDBRANCH  29  38
ENDBRANCH  26  27
ENDBRANCH   1  26
TORSDOF 12
ENDMDL
MODEL 2
REMARK VINA RESULT:      -8.9      1.328      4.364
REMARK  12 active torsions:
REMARK  status: ('A' for Active; 'I' for Inactive)
REMARK    1  A    between atoms: C_3  and  O_4 
REMARK    2  A    between atoms: C_8  and  C_9 
REMARK       I    between atoms: C_9  and  N_10 
REMARK    3  A    between atoms: N_10  and  C_11 
REMARK    4  A    between atoms: C_11  and  C_33 
REMARK    5  A    between atoms: C_11  and  C_12 
REMARK    6  A    between atoms: C_12  and  O_13 
REMARK    7  A    between atoms: C_12  and  C_14 
REMARK    8  A    between atoms: C_14  and  N_15 
REMARK    9  A    between atoms: C_17  and  C_18 
REMARK       I    between atoms: C_18  and  N_19 
REMARK   10  A    between atoms: N_19  and  C_20 
REMARK   11  A    between atoms: C_33  and  S_34 
REMARK   12  A    between atoms: S_34  and  C_35 
ROOT
HETATM    1  C   UNL     1      26.824  43.493  49.857  1.00  0.00     0.167 C 
ENDROOT
BRANCH   1   2
HETATM    2  C   UNL     1      26.361  43.877  51.300  1.00  0.00     0.124 C 
BRANCH   2   3
HETATM    3  N   UNL     1      27.519  43.955  52.210  1.00  0.00    -0.349 N 
HETATM    4  C   UNL     1      27.402  43.651  53.550  1.00  0.00     0.252 C 
HETATM    5  O   UNL     1      26.369  43.199  54.032  1.00  0.00    -0.268 OA
HETATM    6  H   UNL     1      28.356  44.446  51.906  1.00  0.00     0.163 HD
BRANCH   4   7
HETATM    7  C   UNL     1      28.609  43.906  54.379  1.00  0.00     0.040 A 
HETATM    8  C   UNL     1      28.722  45.071  55.170  1.00  0.00    -0.013 A 
HETATM    9  C   UNL     1      27.648  46.125  55.168  1.00  0.00     0.052 C 
HETATM   10  C   UNL     1      29.868  45.199  55.969  1.00  0.00     0.072 A 
HETATM   11  C   UNL     1      30.887  44.246  55.945  1.00  0.00     0.037 A 
HETATM   12  C   UNL     1      30.769  43.114  55.145  1.00  0.00     0.004 A 
HETATM   13  C   UNL     1      29.627  42.936  54.371  1.00  0.00     0.018 A 
BRANCH  10  14
HETATM   14  O   UNL     1      30.074  46.249  56.818  1.00  0.00    -0.360 OA
HETATM   15  H   UNL     1      30.584  45.959  57.590  1.00  0.00     0.217 HD
ENDBRANCH  10  14
ENDBRANCH   4   7
ENDBRANCH   2   3
BRANCH   2  16
HETATM   16  C   UNL     1      25.557  45.184  51.400  1.00  0.00     0.107 C 
BRANCH  16  17
HETATM   17  S   UNL     1      26.638  46.656  51.383  1.00  0.00    -0.128 SA
BRANCH  17  18
HETATM   18  C   UNL     1      25.695  47.657  50.246  1.00  0.00     0.000 A 
HETATM   19  C   UNL     1      26.347  48.596  49.441  1.00  0.00     0.018 A 
HETATM   20  C   UNL     1      25.612  49.398  48.566  1.00  0.00     0.001 A 
HETATM   21  C   UNL     1      24.226  49.262  48.488  1.00  0.00     0.000 A 
HETATM   22  C   UNL     1      23.574  48.318  49.279  1.00  0.00     0.001 A 
HETATM   23  C   UNL     1      24.308  47.514  50.154  1.00  0.00     0.018 A 
ENDBRANCH  17  18
ENDBRANCH  16  17
ENDBRANCH   2  16
ENDBRANCH   1   2
BRANCH   1  24
HETATM   24  O   UNL     1      26.236  44.261  48.791  1.00  0.00    -0.392 OA
HETATM   25  H   UNL     1      25.374  43.854  48.550  1.00  0.00     0.210 HD
ENDBRANCH   1  24
BRANCH   1  26
HETATM   26  C   UNL     1      26.584  42.000  49.536  1.00  0.00     0.269 C 
BRANCH  26  27
HETATM   27  N   UNL     1      26.623  41.822  48.012  1.00  0.00    -0.055 N 
HETATM   28  H   UNL     1      26.480  42.804  47.702  1.00  0.00     0.281 HD
HETATM   29  C   UNL     1      25.449  41.059  47.386  1.00  0.00     0.279 C 
HETATM   30  C   UNL     1      25.608  39.582  47.737  1.00  0.00     0.048 C 
HETATM   31  C   UNL     1      26.926  39.033  47.165  1.00  0.00    -0.006 C 
HETATM   32  C   UNL     1      28.167  39.862  47.550  1.00  0.00     0.016 C 
HETATM   33  C   UNL     1      27.142  37.556  47.506  1.00  0.00     0.005 C 
HETATM   34  C   UNL     1      27.942  41.381  47.453  1.00  0.00     0.241 C 
HETATM   35  C   UNL     1      28.851  39.401  48.855  1.00  0.00     0.007 C 
HETATM   36  C   UNL     1      28.020  38.472  49.734  1.00  0.00     0.000 C 
HETATM   37  C   UNL     1      27.415  37.292  48.983  1.00  0.00     0.000 C 
BRANCH  29  38
HETATM   38  C   UNL     1      24.085  41.715  47.718  1.00  0.00     0.249 C 
HETATM   39  N   UNL     1      23.929  43.032  47.348  1.00  0.00    -0.351 N 
HETATM   40  H   UNL     1      24.753  43.557  47.083  1.00  0.00     0.163 HD
HETATM   41  O   UNL     1      23.239  41.060  48.328  1.00  0.00    -0.271 OA
BRANCH  39  42
HETATM   42  C   UNL     1      22.763  43.879  47.682  1.00  0.00     0.022 C 
HETATM   43  C   UNL     1      23.004  45.315  47.198  1.00  0.00     0.037 C 
HETATM   44  C   UNL     1      21.541  43.303  46.942  1.00  0.00     0.037 C 
HETATM   45  C   UNL     1      22.456  43.869  49.188  1.00  0.00     0.037 C 
ENDBRANCH  39  42
ENDBRANCH  29  38
ENDBRANCH  26  27
ENDBRANCH   1  26
TORSDOF 12
ENDMDL
MODEL 3
REMARK VINA RESULT:      -8.6      1.616      2.415
REMARK  12 active torsions:
REMARK  status: ('A' for Active; 'I' for Inactive)
REMARK    1  A    between atoms: C_3  and  O_4 
REMARK    2  A    between atoms: C_8  and  C_9 
REMARK       I    between atoms: C_9  and  N_10 
REMARK    3  A    between atoms: N_10  and  C_11 
REMARK    4  A    between atoms: C_11  and  C_33 
REMARK    5  A    between atoms: C_11  and  C_12 
REMARK    6  A    between atoms: C_12  and  O_13 
REMARK    7  A    between atoms: C_12  and  C_14 
REMARK    8  A    between atoms: C_14  and  N_15 
REMARK    9  A    between atoms: C_17  and  C_18 
REMARK       I    between atoms: C_18  and  N_19 
REMARK   10  A    between atoms: N_19  and  C_20 
REMARK   11  A    between atoms: C_33  and  S_34 
REMARK   12  A    between atoms: S_34  and  C_35 
ROOT
HETATM    1  C   UNL     1      24.422  43.110  50.726  1.00  0.00     0.167 C 
ENDROOT
BRANCH   1   2
HETATM    2  C   UNL     1      24.392  44.609  51.171  1.00  0.00     0.124 C 
BRANCH   2   3
HETATM    3  N   UNL     1      25.581  44.929  51.983  1.00  0.00    -0.349 N 
HETATM    4  C   UNL     1      25.585  44.751  53.351  1.00  0.00     0.252 C 
HETATM    5  O   UNL     1      24.653  44.223  53.946  1.00  0.00    -0.268 OA
HETATM    6  H   UNL     1      26.325  45.489  51.575  1.00  0.00     0.163 HD
BRANCH   4   7
HETATM    7  C   UNL     1      26.793  45.243  54.064  1.00  0.00     0.040 A 
HETATM    8  C   UNL     1      27.849  44.369  54.406  1.00  0.00    -0.013 A 
HETATM    9  C   UNL     1      27.772  42.896  54.108  1.00  0.00     0.052 C 
HETATM   10  C   UNL     1      28.978  44.931  55.020  1.00  0.00     0.072 A 
HETATM   11  C   UNL     1      29.039  46.289  55.337  1.00  0.00     0.037 A 
HETATM   12  C   UNL     1      27.982  47.133  55.011  1.00  0.00     0.004 A 
HETATM   13  C   UNL     1      26.864  46.615  54.365  1.00  0.00     0.018 A 
BRANCH  10  14
HETATM   14  O   UNL     1      30.086  44.206  55.353  1.00  0.00    -0.360 OA
HETATM   15  H   UNL     1      29.961  43.275  55.112  1.00  0.00     0.217 HD
ENDBRANCH  10  14
ENDBRANCH   4   7
ENDBRANCH   2   3
BRANCH   2  16
HETATM   16  C   UNL     1      24.283  45.627  50.023  1.00  0.00     0.107 C 
BRANCH  16  17
HETATM   17  S   UNL     1      25.156  47.185  50.402  1.00  0.00    -0.128 SA
BRANCH  17  18
HETATM   18  C   UNL     1      24.218  48.273  49.343  1.00  0.00     0.000 A 
HETATM   19  C   UNL     1      24.824  49.408  48.799  1.00  0.00     0.018 A 
HETATM   20  C   UNL     1      24.089  50.275  47.989  1.00  0.00     0.001 A 
HETATM   21  C   UNL     1      22.748  50.008  47.715  1.00  0.00     0.000 A 
HETATM   22  C   UNL     1      22.142  48.870  48.244  1.00  0.00     0.001 A 
HETATM   23  C   UNL     1      22.877  48.002  49.054  1.00  0.00     0.018 A 
ENDBRANCH  17  18
ENDBRANCH  16  17
ENDBRANCH   2  16
ENDBRANCH   1   2
BRANCH   1  24
HETATM   24  O   UNL     1      25.325  42.263  51.459  1.00  0.00    -0.392 OA
HETATM   25  H   UNL     1      24.816  41.505  51.824  1.00  0.00     0.210 HD
ENDBRANCH   1  24
BRANCH   1  26
HETATM   26  C   UNL     1      24.751  42.945  49.225  1.00  0.00     0.269 C 
BRANCH  26  27
HETATM   27  N   UNL     1      24.240  41.573  48.767  1.00  0.00    -0.055 N 
HETATM   28  H   UNL     1      24.404  41.011  49.627  1.00  0.00     0.281 HD
HETATM   29  C   UNL     1      25.072  40.860  47.693  1.00  0.00     0.279 C 
HETATM   30  C   UNL     1      24.844  41.580  46.367  1.00  0.00     0.048 C 
HETATM   31  C   UNL     1      23.358  41.521  45.972  1.00  0.00    -0.006 C 
HETATM   32  C   UNL     1      22.400  42.010  47.076  1.00  0.00     0.016 C 
HETATM   33  C   UNL     1      23.073  42.247  44.655  1.00  0.00     0.005 C 
HETATM   34  C   UNL     1      22.770  41.499  48.479  1.00  0.00     0.241 C 
HETATM   35  C   UNL     1      22.082  43.519  47.009  1.00  0.00     0.007 C 
HETATM   36  C   UNL     1      23.016  44.345  46.130  1.00  0.00     0.000 C 
HETATM   37  C   UNL     1      23.221  43.763  44.736  1.00  0.00     0.000 C 
BRANCH  29  38
HETATM   38  C   UNL     1      26.543  40.657  48.137  1.00  0.00     0.249 C 
HETATM   39  N   UNL     1      26.820  39.509  48.844  1.00  0.00    -0.351 N 
HETATM   40  H   UNL     1      26.044  38.976  49.217  1.00  0.00     0.163 HD
HETATM   41  O   UNL     1      27.369  41.534  47.885  1.00  0.00    -0.271 OA
BRANCH  39  42
HETATM   42  C   UNL     1      28.122  39.185  49.467  1.00  0.00     0.022 C 
HETATM   43  C   UNL     1      28.334  40.050  50.717  1.00  0.00     0.037 C 
HETATM   44  C   UNL     1      28.082  37.704  49.889  1.00  0.00     0.037 C 
HETATM   45  C   UNL     1      29.292  39.369  48.488  1.00  0.00     0.037 C 
ENDBRANCH  39  42
ENDBRANCH  29  38
ENDBRANCH  26  27
ENDBRANCH   1  26
TORSDOF 12
ENDMDL
MODEL 4
REMARK VINA RESULT:      -8.0     17.859     21.014
REMARK  12 active torsions:
REMARK  status: ('A' for Active; 'I' for Inactive)
REMARK    1  A    between atoms: C_3  and  O_4 
REMARK    2  A    between atoms: C_8  and  C_9 
REMARK       I    between atoms: C_9  and  N_10 
REMARK    3  A    between atoms: N_10  and  C_11 
REMARK    4  A    between atoms: C_11  and  C_33 
REMARK    5  A    between atoms: C_11  and  C_12 
REMARK    6  A    between atoms: C_12  and  O_13 
REMARK    7  A    between atoms: C_12  and  C_14 
REMARK    8  A    between atoms: C_14  and  N_15 
REMARK    9  A    between atoms: C_17  and  C_18 
REMARK       I    between atoms: C_18  and  N_19 
REMARK   10  A    between atoms: N_19  and  C_20 
REMARK   11  A    between atoms: C_33  and  S_34 
REMARK   12  A    between atoms: S_34  and  C_35 
ROOT
HETATM    1  C   UNL     1      38.370  47.541  65.361  1.00  0.00     0.167 C 
ENDROOT
BRANCH   1   2
HETATM    2  C   UNL     1      39.351  48.223  66.371  1.00  0.00     0.124 C 
BRANCH   2   3
HETATM    3  N   UNL     1      40.749  48.033  65.940  1.00  0.00    -0.349 N 
HETATM    4  C   UNL     1      41.605  47.198  66.627  1.00  0.00     0.252 C 
HETATM    5  O   UNL     1      41.228  46.493  67.555  1.00  0.00    -0.268 OA
HETATM    6  H   UNL     1      41.154  48.682  65.271  1.00  0.00     0.163 HD
BRANCH   4   7
HETATM    7  C   UNL     1      43.020  47.206  66.171  1.00  0.00     0.040 A 
HETATM    8  C   UNL     1      43.417  46.522  65.000  1.00  0.00    -0.013 A 
HETATM    9  C   UNL     1      42.435  45.716  64.195  1.00  0.00     0.052 C 
HETATM   10  C   UNL     1      44.760  46.637  64.611  1.00  0.00     0.072 A 
HETATM   11  C   UNL     1      45.685  47.348  65.376  1.00  0.00     0.037 A 
HETATM   12  C   UNL     1      45.282  48.000  66.537  1.00  0.00     0.004 A 
HETATM   13  C   UNL     1      43.949  47.940  66.930  1.00  0.00     0.018 A 
BRANCH  10  14
HETATM   14  O   UNL     1      45.259  46.069  63.474  1.00  0.00    -0.360 OA
HETATM   15  H   UNL     1      44.561  45.989  62.805  1.00  0.00     0.217 HD
ENDBRANCH  10  14
ENDBRANCH   4   7
ENDBRANCH   2   3
BRANCH   2  16
HETATM   16  C   UNL     1      39.101  49.721  66.610  1.00  0.00     0.107 C 
BRANCH  16  17
HETATM   17  S   UNL     1      37.953  50.011  68.001  1.00  0.00    -0.128 SA
BRANCH  17  18
HETATM   18  C   UNL     1      37.662  51.752  67.738  1.00  0.00     0.000 A 
HETATM   19  C   UNL     1      37.937  52.323  66.493  1.00  0.00     0.018 A 
HETATM   20  C   UNL     1      37.735  53.689  66.288  1.00  0.00     0.001 A 
HETATM   21  C   UNL     1      37.251  54.487  67.324  1.00  0.00     0.000 A 
HETATM   22  C   UNL     1      36.962  53.920  68.564  1.00  0.00     0.001 A 
HETATM   23  C   UNL     1      37.164  52.553  68.770  1.00  0.00     0.018 A 
ENDBRANCH  17  18
ENDBRANCH  16  17
ENDBRANCH   2  16
ENDBRANCH   1   2
BRANCH   1  24
HETATM   24  O   UNL     1      36.974  47.824  65.565  1.00  0.00    -0.392 OA
HETATM   25  H   UNL     1      36.789  47.809  66.530  1.00  0.00     0.210 HD
ENDBRANCH   1  24
BRANCH   1  26
HETATM   26  C   UNL     1      38.529  46.004  65.328  1.00  0.00     0.269 C 
BRANCH  26  27
HETATM   27  N   UNL     1      37.196  45.391  64.880  1.00  0.00    -0.055 N 
HETATM   28  H   UNL     1      36.551  46.187  65.058  1.00  0.00     0.281 HD
HETATM   29  C   UNL     1      36.640  44.258  65.753  1.00  0.00     0.279 C 
HETATM   30  C   UNL     1      37.492  43.016  65.510  1.00  0.00     0.048 C 
HETATM   31  C   UNL     1      37.416  42.594  64.032  1.00  0.00    -0.006 C 
HETATM   32  C   UNL     1      37.741  43.730  63.042  1.00  0.00     0.016 C 
HETATM   33  C   UNL     1      38.271  41.360  63.731  1.00  0.00     0.005 C 
HETATM   34  C   UNL     1      37.095  45.074  63.418  1.00  0.00     0.241 C 
HETATM   35  C   UNL     1      39.235  43.824  62.662  1.00  0.00     0.007 C 
HETATM   36  C   UNL     1      40.189  43.055  63.569  1.00  0.00     0.000 C 
HETATM   37  C   UNL     1      39.774  41.609  63.814  1.00  0.00     0.000 C 
BRANCH  29  38
HETATM   38  C   UNL     1      36.450  44.700  67.226  1.00  0.00     0.249 C 
HETATM   39  N   UNL     1      35.662  45.809  67.441  1.00  0.00    -0.351 N 
HETATM   40  H   UNL     1      35.430  46.392  66.647  1.00  0.00     0.163 HD
HETATM   41  O   UNL     1      37.037  44.083  68.116  1.00  0.00    -0.271 OA
BRANCH  39  42
HETATM   42  C   UNL     1      35.456  46.468  68.749  1.00  0.00     0.022 C 
HETATM   43  C   UNL     1      36.810  46.721  69.426  1.00  0.00     0.037 C 
HETATM   44  C   UNL     1      34.772  47.823  68.485  1.00  0.00     0.037 C 
HETATM   45  C   UNL     1      34.544  45.646  69.672  1.00  0.00     0.037 C 
ENDBRANCH  39  42
ENDBRANCH  29  38
ENDBRANCH  26  27
ENDBRANCH   1  26
TORSDOF 12
ENDMDL
MODEL 5
REMARK VINA RESULT:      -8.0      5.072      8.686
REMARK  12 active torsions:
REMARK  status: ('A' for Active; 'I' for Inactive)
REMARK    1  A    between atoms: C_3  and  O_4 
REMARK    2  A    between atoms: C_8  and  C_9 
REMARK       I    between atoms: C_9  and  N_10 
REMARK    3  A    between atoms: N_10  and  C_11 
REMARK    4  A    between atoms: C_11  and  C_33 
REMARK    5  A    between atoms: C_11  and  C_12 
REMARK    6  A    between atoms: C_12  and  O_13 
REMARK    7  A    between atoms: C_12  and  C_14 
REMARK    8  A    between atoms: C_14  and  N_15 
REMARK    9  A    between atoms: C_17  and  C_18 
REMARK       I    between atoms: C_18  and  N_19 
REMARK   10  A    between atoms: N_19  and  C_20 
REMARK   11  A    between atoms: C_33  and  S_34 
REMARK   12  A    between atoms: S_34  and  C_35 
ROOT
HETATM    1  C   UNL     1      20.919  46.538  47.879  1.00  0.00     0.167 C 
ENDROOT
BRANCH   1   2
HETATM    2  C   UNL     1      21.277  48.047  47.674  1.00  0.00     0.124 C 
BRANCH   2   3
HETATM    3  N   UNL     1      20.053  48.869  47.664  1.00  0.00    -0.349 N 
HETATM    4  C   UNL     1      19.312  49.068  48.810  1.00  0.00     0.252 C 
HETATM    5  O   UNL     1      19.683  48.669  49.908  1.00  0.00    -0.268 OA
HETATM    6  H   UNL     1      19.625  49.111  46.774  1.00  0.00     0.163 HD
BRANCH   4   7
HETATM    7  C   UNL     1      18.029  49.799  48.633  1.00  0.00     0.040 A 
HETATM    8  C   UNL     1      17.959  51.202  48.782  1.00  0.00    -0.013 A 
HETATM    9  C   UNL     1      19.166  52.008  49.176  1.00  0.00     0.052 C 
HETATM   10  C   UNL     1      16.721  51.814  48.534  1.00  0.00     0.072 A 
HETATM   11  C   UNL     1      15.587  51.069  48.209  1.00  0.00     0.037 A 
HETATM   12  C   UNL     1      15.670  49.685  48.086  1.00  0.00     0.004 A 
HETATM   13  C   UNL     1      16.891  49.050  48.286  1.00  0.00     0.018 A 
BRANCH  10  14
HETATM   14  O   UNL     1      16.532  53.166  48.591  1.00  0.00    -0.360 OA
HETATM   15  H   UNL     1      15.599  53.365  48.772  1.00  0.00     0.217 HD
ENDBRANCH  10  14
ENDBRANCH   4   7
ENDBRANCH   2   3
BRANCH   2  16
HETATM   16  C   UNL     1      22.262  48.628  48.702  1.00  0.00     0.107 C 
BRANCH  16  17
HETATM   17  S   UNL     1      23.241  50.006  48.011  1.00  0.00    -0.128 SA
BRANCH  17  18
HETATM   18  C   UNL     1      24.854  49.479  48.562  1.00  0.00     0.000 A 
HETATM   19  C   UNL     1      24.973  48.374  49.410  1.00  0.00     0.018 A 
HETATM   20  C   UNL     1      26.231  47.971  49.863  1.00  0.00     0.001 A 
HETATM   21  C   UNL     1      27.373  48.666  49.467  1.00  0.00     0.000 A 
HETATM   22  C   UNL     1      27.261  49.759  48.610  1.00  0.00     0.001 A 
HETATM   23  C   UNL     1      26.004  50.163  48.155  1.00  0.00     0.018 A 
ENDBRANCH  17  18
ENDBRANCH  16  17
ENDBRANCH   2  16
ENDBRANCH   1   2
BRANCH   1  24
HETATM   24  O   UNL     1      20.767  46.117  49.246  1.00  0.00    -0.392 OA
HETATM   25  H   UNL     1      21.640  46.178  49.693  1.00  0.00     0.210 HD
ENDBRANCH   1  24
BRANCH   1  26
HETATM   26  C   UNL     1      21.947  45.592  47.217  1.00  0.00     0.269 C 
BRANCH  26  27
HETATM   27  N   UNL     1      21.455  44.148  47.390  1.00  0.00    -0.055 N 
HETATM   28  H   UNL     1      20.826  44.259  48.212  1.00  0.00     0.281 HD
HETATM   29  C   UNL     1      22.499  43.124  47.854  1.00  0.00     0.279 C 
HETATM   30  C   UNL     1      23.437  42.847  46.683  1.00  0.00     0.048 C 
HETATM   31  C   UNL     1      22.655  42.264  45.494  1.00  0.00    -0.006 C 
HETATM   32  C   UNL     1      21.433  43.106  45.077  1.00  0.00     0.016 C 
HETATM   33  C   UNL     1      23.551  41.985  44.283  1.00  0.00     0.005 C 
HETATM   34  C   UNL     1      20.609  43.621  46.270  1.00  0.00     0.241 C 
HETATM   35  C   UNL     1      21.741  44.174  44.006  1.00  0.00     0.007 C 
HETATM   36  C   UNL     1      23.221  44.482  43.798  1.00  0.00     0.000 C 
HETATM   37  C   UNL     1      24.085  43.241  43.602  1.00  0.00     0.000 C 
BRANCH  29  38
HETATM   38  C   UNL     1      23.155  43.530  49.197  1.00  0.00     0.249 C 
HETATM   39  N   UNL     1      24.518  43.722  49.185  1.00  0.00    -0.351 N 
HETATM   40  H   UNL     1      25.041  43.391  48.383  1.00  0.00     0.163 HD
HETATM   41  O   UNL     1      22.452  43.614  50.205  1.00  0.00    -0.271 OA
BRANCH  39  42
HETATM   42  C   UNL     1      25.353  43.986  50.377  1.00  0.00     0.022 C 
HETATM   43  C   UNL     1      24.657  45.006  51.288  1.00  0.00     0.037 C 
HETATM   44  C   UNL     1      25.506  42.658  51.143  1.00  0.00     0.037 C 
HETATM   45  C   UNL     1      26.758  44.481  49.998  1.00  0.00     0.037 C 
ENDBRANCH  39  42
ENDBRANCH  29  38
ENDBRANCH  26  27
ENDBRANCH   1  26
TORSDOF 12
ENDMDL
MODEL 6
REMARK VINA RESULT:      -7.7     14.764     19.379
REMARK  12 active torsions:
REMARK  status: ('A' for Active; 'I' for Inactive)
REMARK    1  A    between atoms: C_3  and  O_4 
REMARK    2  A    between atoms: C_8  and  C_9 
REMARK       I    between atoms: C_9  and  N_10 
REMARK    3  A    between atoms: N_10  and  C_11 
REMARK    4  A    between atoms: C_11  and  C_33 
REMARK    5  A    between atoms: C_11  and  C_12 
REMARK    6  A    between atoms: C_12  and  O_13 
REMARK    7  A    between atoms: C_12  and  C_14 
REMARK    8  A    between atoms: C_14  and  N_15 
REMARK    9  A    between atoms: C_17  and  C_18 
REMARK       I    between atoms: C_18  and  N_19 
REMARK   10  A    between atoms: N_19  and  C_20 
REMARK   11  A    between atoms: C_33  and  S_34 
REMARK   12  A    between atoms: S_34  and  C_35 
ROOT
HETATM    1  C   UNL     1      37.822  55.093  43.406  1.00  0.00     0.167 C 
ENDROOT
BRANCH   1   2
HETATM    2  C   UNL     1      37.685  53.917  42.384  1.00  0.00     0.124 C 
BRANCH   2   3
HETATM    3  N   UNL     1      36.345  53.307  42.478  1.00  0.00    -0.349 N 
HETATM    4  C   UNL     1      36.120  52.185  43.247  1.00  0.00     0.252 C 
HETATM    5  O   UNL     1      36.983  51.703  43.972  1.00  0.00    -0.268 OA
HETATM    6  H   UNL     1      35.631  53.573  41.806  1.00  0.00     0.163 HD
BRANCH   4   7
HETATM    7  C   UNL     1      34.761  51.591  43.143  1.00  0.00     0.040 A 
HETATM    8  C   UNL     1      34.444  50.659  42.130  1.00  0.00    -0.013 A 
HETATM    9  C   UNL     1      35.453  50.265  41.086  1.00  0.00     0.052 C 
HETATM   10  C   UNL     1      33.156  50.103  42.146  1.00  0.00     0.072 A 
HETATM   11  C   UNL     1      32.202  50.494  43.086  1.00  0.00     0.037 A 
HETATM   12  C   UNL     1      32.524  51.429  44.065  1.00  0.00     0.004 A 
HETATM   13  C   UNL     1      33.805  51.970  44.102  1.00  0.00     0.018 A 
BRANCH  10  14
HETATM   14  O   UNL     1      32.741  49.153  41.257  1.00  0.00    -0.360 OA
HETATM   15  H   UNL     1      33.017  49.393  40.358  1.00  0.00     0.217 HD
ENDBRANCH  10  14
ENDBRANCH   4   7
ENDBRANCH   2   3
BRANCH   2  16
HETATM   16  C   UNL     1      37.961  54.293  40.918  1.00  0.00     0.107 C 
BRANCH  16  17
HETATM   17  S   UNL     1      36.547  53.901  39.831  1.00  0.00    -0.128 SA
BRANCH  17  18
HETATM   18  C   UNL     1      36.297  55.525  39.136  1.00  0.00     0.000 A 
HETATM   19  C   UNL     1      35.140  56.244  39.446  1.00  0.00     0.018 A 
HETATM   20  C   UNL     1      34.927  57.505  38.886  1.00  0.00     0.001 A 
HETATM   21  C   UNL     1      35.872  58.055  38.021  1.00  0.00     0.000 A 
HETATM   22  C   UNL     1      37.035  57.348  37.720  1.00  0.00     0.001 A 
HETATM   23  C   UNL     1      37.249  56.087  38.279  1.00  0.00     0.018 A 
ENDBRANCH  17  18
ENDBRANCH  16  17
ENDBRANCH   2  16
ENDBRANCH   1   2
BRANCH   1  24
HETATM   24  O   UNL     1      37.749  56.416  42.843  1.00  0.00    -0.392 OA
HETATM   25  H   UNL     1      37.510  57.048  43.557  1.00  0.00     0.210 HD
ENDBRANCH   1  24
BRANCH   1  26
HETATM   26  C   UNL     1      39.129  55.014  44.226  1.00  0.00     0.269 C 
BRANCH  26  27
HETATM   27  N   UNL     1      38.854  55.576  45.628  1.00  0.00    -0.055 N 
HETATM   28  H   UNL     1      38.009  56.153  45.439  1.00  0.00     0.281 HD
HETATM   29  C   UNL     1      39.878  56.580  46.171  1.00  0.00     0.279 C 
HETATM   30  C   UNL     1      41.142  55.809  46.540  1.00  0.00     0.048 C 
HETATM   31  C   UNL     1      40.836  54.765  47.628  1.00  0.00    -0.006 C 
HETATM   32  C   UNL     1      39.661  53.830  47.282  1.00  0.00     0.016 C 
HETATM   33  C   UNL     1      42.072  53.950  48.021  1.00  0.00     0.005 C 
HETATM   34  C   UNL     1      38.459  54.561  46.659  1.00  0.00     0.241 C 
HETATM   35  C   UNL     1      40.079  52.543  46.540  1.00  0.00     0.007 C 
HETATM   36  C   UNL     1      41.485  52.557  45.948  1.00  0.00     0.000 C 
HETATM   37  C   UNL     1      42.562  53.000  46.933  1.00  0.00     0.000 C 
BRANCH  29  38
HETATM   38  C   UNL     1      40.050  57.801  45.233  1.00  0.00     0.249 C 
HETATM   39  N   UNL     1      39.998  59.044  45.822  1.00  0.00    -0.351 N 
HETATM   40  H   UNL     1      39.646  59.111  46.769  1.00  0.00     0.163 HD
HETATM   41  O   UNL     1      40.174  57.612  44.023  1.00  0.00    -0.271 OA
BRANCH  39  42
HETATM   42  C   UNL     1      40.012  60.333  45.097  1.00  0.00     0.022 C 
HETATM   43  C   UNL     1      40.160  61.492  46.092  1.00  0.00     0.037 C 
HETATM   44  C   UNL     1      41.231  60.326  44.156  1.00  0.00     0.037 C 
HETATM   45  C   UNL     1      38.751  60.526  44.240  1.00  0.00     0.037 C 
ENDBRANCH  39  42
ENDBRANCH  29  38
ENDBRANCH  26  27
ENDBRANCH   1  26
TORSDOF 12
ENDMDL
MODEL 7
REMARK VINA RESULT:      -7.5     14.750     19.400
REMARK  12 active torsions:
REMARK  status: ('A' for Active; 'I' for Inactive)
REMARK    1  A    between atoms: C_3  and  O_4 
REMARK    2  A    between atoms: C_8  and  C_9 
REMARK       I    between atoms: C_9  and  N_10 
REMARK    3  A    between atoms: N_10  and  C_11 
REMARK    4  A    between atoms: C_11  and  C_33 
REMARK    5  A    between atoms: C_11  and  C_12 
REMARK    6  A    between atoms: C_12  and  O_13 
REMARK    7  A    between atoms: C_12  and  C_14 
REMARK    8  A    between atoms: C_14  and  N_15 
REMARK    9  A    between atoms: C_17  and  C_18 
REMARK       I    between atoms: C_18  and  N_19 
REMARK   10  A    between atoms: N_19  and  C_20 
REMARK   11  A    between atoms: C_33  and  S_34 
REMARK   12  A    between atoms: S_34  and  C_35 
ROOT
HETATM    1  C   UNL     1      37.860  55.068  43.471  1.00  0.00     0.167 C 
ENDROOT
BRANCH   1   2
HETATM    2  C   UNL     1      37.739  53.823  42.531  1.00  0.00     0.124 C 
BRANCH   2   3
HETATM    3  N   UNL     1      36.378  53.259  42.596  1.00  0.00    -0.349 N 
HETATM    4  C   UNL     1      36.075  52.210  43.439  1.00  0.00     0.252 C 
HETATM    5  O   UNL     1      36.880  51.765  44.248  1.00  0.00    -0.268 OA
HETATM    6  H   UNL     1      35.711  53.489  41.865  1.00  0.00     0.163 HD
BRANCH   4   7
HETATM    7  C   UNL     1      34.705  51.647  43.304  1.00  0.00     0.040 A 
HETATM    8  C   UNL     1      34.391  50.720  42.285  1.00  0.00    -0.013 A 
HETATM    9  C   UNL     1      35.415  50.301  41.266  1.00  0.00     0.052 C 
HETATM   10  C   UNL     1      33.091  50.193  42.272  1.00  0.00     0.072 A 
HETATM   11  C   UNL     1      32.124  50.607  43.189  1.00  0.00     0.037 A 
HETATM   12  C   UNL     1      32.444  51.537  44.174  1.00  0.00     0.004 A 
HETATM   13  C   UNL     1      33.736  52.049  44.240  1.00  0.00     0.018 A 
BRANCH  10  14
HETATM   14  O   UNL     1      32.675  49.251  41.375  1.00  0.00    -0.360 OA
HETATM   15  H   UNL     1      33.441  48.834  40.950  1.00  0.00     0.217 HD
ENDBRANCH  10  14
ENDBRANCH   4   7
ENDBRANCH   2   3
BRANCH   2  16
HETATM   16  C   UNL     1      38.104  54.080  41.060  1.00  0.00     0.107 C 
BRANCH  16  17
HETATM   17  S   UNL     1      38.363  52.526  40.136  1.00  0.00    -0.128 SA
BRANCH  17  18
HETATM   18  C   UNL     1      39.561  51.774  41.223  1.00  0.00     0.000 A 
HETATM   19  C   UNL     1      39.215  50.639  41.961  1.00  0.00     0.018 A 
HETATM   20  C   UNL     1      40.140  50.060  42.832  1.00  0.00     0.001 A 
HETATM   21  C   UNL     1      41.415  50.608  42.963  1.00  0.00     0.000 A 
HETATM   22  C   UNL     1      41.770  51.732  42.219  1.00  0.00     0.001 A 
HETATM   23  C   UNL     1      40.845  52.312  41.348  1.00  0.00     0.018 A 
ENDBRANCH  17  18
ENDBRANCH  16  17
ENDBRANCH   2  16
ENDBRANCH   1   2
BRANCH   1  24
HETATM   24  O   UNL     1      37.728  56.347  42.825  1.00  0.00    -0.392 OA
HETATM   25  H   UNL     1      36.853  56.728  43.059  1.00  0.00     0.210 HD
ENDBRANCH   1  24
BRANCH   1  26
HETATM   26  C   UNL     1      39.188  55.085  44.261  1.00  0.00     0.269 C 
BRANCH  26  27
HETATM   27  N   UNL     1      38.907  55.640  45.664  1.00  0.00    -0.055 N 
HETATM   28  H   UNL     1      38.049  56.199  45.479  1.00  0.00     0.281 HD
HETATM   29  C   UNL     1      39.912  56.666  46.204  1.00  0.00     0.279 C 
HETATM   30  C   UNL     1      41.194  55.922  46.567  1.00  0.00     0.048 C 
HETATM   31  C   UNL     1      40.915  54.870  47.655  1.00  0.00    -0.006 C 
HETATM   32  C   UNL     1      39.759  53.910  47.314  1.00  0.00     0.016 C 
HETATM   33  C   UNL     1      42.170  54.082  48.042  1.00  0.00     0.005 C 
HETATM   34  C   UNL     1      38.539  54.616  46.696  1.00  0.00     0.241 C 
HETATM   35  C   UNL     1      40.201  52.633  46.568  1.00  0.00     0.007 C 
HETATM   36  C   UNL     1      41.604  52.678  45.971  1.00  0.00     0.000 C 
HETATM   37  C   UNL     1      42.675  53.143  46.951  1.00  0.00     0.000 C 
BRANCH  29  38
HETATM   38  C   UNL     1      40.053  57.891  45.266  1.00  0.00     0.249 C 
HETATM   39  N   UNL     1      40.025  59.131  45.863  1.00  0.00    -0.351 N 
HETATM   40  H   UNL     1      39.708  59.194  46.822  1.00  0.00     0.163 HD
HETATM   41  O   UNL     1      40.133  57.707  44.051  1.00  0.00    -0.271 OA
BRANCH  39  42
HETATM   42  C   UNL     1      40.016  60.423  45.143  1.00  0.00     0.022 C 
HETATM   43  C   UNL     1      40.133  61.580  46.145  1.00  0.00     0.037 C 
HETATM   44  C   UNL     1      41.242  60.447  44.211  1.00  0.00     0.037 C 
HETATM   45  C   UNL     1      38.757  60.593  44.279  1.00  0.00     0.037 C 
ENDBRANCH  39  42
ENDBRANCH  29  38
ENDBRANCH  26  27
ENDBRANCH   1  26
TORSDOF 12
ENDMDL
MODEL 8
REMARK VINA RESULT:      -7.4     17.819     21.154
REMARK  12 active torsions:
REMARK  status: ('A' for Active; 'I' for Inactive)
REMARK    1  A    between atoms: C_3  and  O_4 
REMARK    2  A    between atoms: C_8  and  C_9 
REMARK       I    between atoms: C_9  and  N_10 
REMARK    3  A    between atoms: N_10  and  C_11 
REMARK    4  A    between atoms: C_11  and  C_33 
REMARK    5  A    between atoms: C_11  and  C_12 
REMARK    6  A    between atoms: C_12  and  O_13 
REMARK    7  A    between atoms: C_12  and  C_14 
REMARK    8  A    between atoms: C_14  and  N_15 
REMARK    9  A    between atoms: C_17  and  C_18 
REMARK       I    between atoms: C_18  and  N_19 
REMARK   10  A    between atoms: N_19  and  C_20 
REMARK   11  A    between atoms: C_33  and  S_34 
REMARK   12  A    between atoms: S_34  and  C_35 
ROOT
HETATM    1  C   UNL     1      38.099  47.677  65.188  1.00  0.00     0.167 C 
ENDROOT
BRANCH   1   2
HETATM    2  C   UNL     1      38.981  48.475  66.203  1.00  0.00     0.124 C 
BRANCH   2   3
HETATM    3  N   UNL     1      38.155  49.431  66.964  1.00  0.00    -0.349 N 
HETATM    4  C   UNL     1      38.442  50.780  66.972  1.00  0.00     0.252 C 
HETATM    5  O   UNL     1      39.319  51.268  66.270  1.00  0.00    -0.268 OA
HETATM    6  H   UNL     1      37.508  49.079  67.664  1.00  0.00     0.163 HD
BRANCH   4   7
HETATM    7  C   UNL     1      37.617  51.610  67.890  1.00  0.00     0.040 A 
HETATM    8  C   UNL     1      37.469  53.000  67.687  1.00  0.00    -0.013 A 
HETATM    9  C   UNL     1      38.178  53.706  66.564  1.00  0.00     0.052 C 
HETATM   10  C   UNL     1      36.622  53.693  68.565  1.00  0.00     0.072 A 
HETATM   11  C   UNL     1      35.994  53.052  69.634  1.00  0.00     0.037 A 
HETATM   12  C   UNL     1      36.167  51.687  69.832  1.00  0.00     0.004 A 
HETATM   13  C   UNL     1      36.968  50.962  68.956  1.00  0.00     0.018 A 
BRANCH  10  14
HETATM   14  O   UNL     1      36.352  55.026  68.446  1.00  0.00    -0.360 OA
HETATM   15  H   UNL     1      35.849  55.194  67.633  1.00  0.00     0.217 HD
ENDBRANCH  10  14
ENDBRANCH   4   7
ENDBRANCH   2   3
BRANCH   2  16
HETATM   16  C   UNL     1      39.783  47.610  67.189  1.00  0.00     0.107 C 
BRANCH  16  17
HETATM   17  S   UNL     1      41.546  48.084  67.242  1.00  0.00    -0.128 SA
BRANCH  17  18
HETATM   18  C   UNL     1      42.210  46.717  66.306  1.00  0.00     0.000 A 
HETATM   19  C   UNL     1      42.704  45.593  66.972  1.00  0.00     0.018 A 
HETATM   20  C   UNL     1      43.246  44.531  66.247  1.00  0.00     0.001 A 
HETATM   21  C   UNL     1      43.291  44.585  64.854  1.00  0.00     0.000 A 
HETATM   22  C   UNL     1      42.787  45.699  64.184  1.00  0.00     0.001 A 
HETATM   23  C   UNL     1      42.244  46.762  64.909  1.00  0.00     0.018 A 
ENDBRANCH  17  18
ENDBRANCH  16  17
ENDBRANCH   2  16
ENDBRANCH   1   2
BRANCH   1  24
HETATM   24  O   UNL     1      36.680  47.893  65.297  1.00  0.00    -0.392 OA
HETATM   25  H   UNL     1      36.352  48.262  64.446  1.00  0.00     0.210 HD
ENDBRANCH   1  24
BRANCH   1  26
HETATM   26  C   UNL     1      38.340  46.153  65.265  1.00  0.00     0.269 C 
BRANCH  26  27
HETATM   27  N   UNL     1      37.041  45.438  64.871  1.00  0.00    -0.055 N 
HETATM   28  H   UNL     1      36.352  46.205  65.010  1.00  0.00     0.281 HD
HETATM   29  C   UNL     1      36.560  44.329  65.816  1.00  0.00     0.279 C 
HETATM   30  C   UNL     1      37.481  43.126  65.635  1.00  0.00     0.048 C 
HETATM   31  C   UNL     1      37.417  42.614  64.185  1.00  0.00    -0.006 C 
HETATM   32  C   UNL     1      37.666  43.705  63.126  1.00  0.00     0.016 C 
HETATM   33  C   UNL     1      38.339  41.415  63.946  1.00  0.00     0.005 C 
HETATM   34  C   UNL     1      36.945  45.030  63.431  1.00  0.00     0.241 C 
HETATM   35  C   UNL     1      39.148  43.863  62.723  1.00  0.00     0.007 C 
HETATM   36  C   UNL     1      40.154  43.205  63.662  1.00  0.00     0.000 C 
HETATM   37  C   UNL     1      39.826  41.755  63.996  1.00  0.00     0.000 C 
BRANCH  29  38
HETATM   38  C   UNL     1      36.357  44.845  67.262  1.00  0.00     0.249 C 
HETATM   39  N   UNL     1      35.633  46.007  67.407  1.00  0.00    -0.351 N 
HETATM   40  H   UNL     1      35.458  46.568  66.582  1.00  0.00     0.163 HD
HETATM   41  O   UNL     1      36.882  44.234  68.194  1.00  0.00    -0.271 OA
BRANCH  39  42
HETATM   42  C   UNL     1      35.433  46.735  68.679  1.00  0.00     0.022 C 
HETATM   43  C   UNL     1      36.791  47.087  69.300  1.00  0.00     0.037 C 
HETATM   44  C   UNL     1      34.680  48.040  68.357  1.00  0.00     0.037 C 
HETATM   45  C   UNL     1      34.584  45.930  69.676  1.00  0.00     0.037 C 
ENDBRANCH  39  42
ENDBRANCH  29  38
ENDBRANCH  26  27
ENDBRANCH   1  26
TORSDOF 12
ENDMDL
MODEL 9
REMARK VINA RESULT:      -7.4     14.056     17.109
REMARK  12 active torsions:
REMARK  status: ('A' for Active; 'I' for Inactive)
REMARK    1  A    between atoms: C_3  and  O_4 
REMARK    2  A    between atoms: C_8  and  C_9 
REMARK       I    between atoms: C_9  and  N_10 
REMARK    3  A    between atoms: N_10  and  C_11 
REMARK    4  A    between atoms: C_11  and  C_33 
REMARK    5  A    between atoms: C_11  and  C_12 
REMARK    6  A    between atoms: C_12  and  O_13 
REMARK    7  A    between atoms: C_12  and  C_14 
REMARK    8  A    between atoms: C_14  and  N_15 
REMARK    9  A    between atoms: C_17  and  C_18 
REMARK       I    between atoms: C_18  and  N_19 
REMARK   10  A    between atoms: N_19  and  C_20 
REMARK   11  A    between atoms: C_33  and  S_34 
REMARK   12  A    between atoms: S_34  and  C_35 
ROOT
HETATM    1  C   UNL     1      37.882  54.272  42.247  1.00  0.00     0.167 C 
ENDROOT
BRANCH   1   2
HETATM    2  C   UNL     1      38.649  54.319  43.609  1.00  0.00     0.124 C 
BRANCH   2   3
HETATM    3  N   UNL     1      39.457  53.098  43.788  1.00  0.00    -0.349 N 
HETATM    4  C   UNL     1      39.149  52.168  44.758  1.00  0.00     0.252 C 
HETATM    5  O   UNL     1      38.137  52.248  45.445  1.00  0.00    -0.268 OA
HETATM    6  H   UNL     1      40.372  53.041  43.349  1.00  0.00     0.163 HD
BRANCH   4   7
HETATM    7  C   UNL     1      40.124  51.058  44.923  1.00  0.00     0.040 A 
HETATM    8  C   UNL     1      39.884  49.783  44.364  1.00  0.00    -0.013 A 
HETATM    9  C   UNL     1      38.611  49.482  43.621  1.00  0.00     0.052 C 
HETATM   10  C   UNL     1      40.887  48.814  44.515  1.00  0.00     0.072 A 
HETATM   11  C   UNL     1      42.052  49.073  45.238  1.00  0.00     0.037 A 
HETATM   12  C   UNL     1      42.264  50.328  45.800  1.00  0.00     0.004 A 
HETATM   13  C   UNL     1      41.307  51.324  45.635  1.00  0.00     0.018 A 
BRANCH  10  14
HETATM   14  O   UNL     1      40.803  47.561  43.977  1.00  0.00    -0.360 OA
HETATM   15  H   UNL     1      41.181  46.910  44.588  1.00  0.00     0.217 HD
ENDBRANCH  10  14
ENDBRANCH   4   7
ENDBRANCH   2   3
BRANCH   2  16
HETATM   16  C   UNL     1      39.551  55.549  43.806  1.00  0.00     0.107 C 
BRANCH  16  17
HETATM   17  S   UNL     1      39.005  56.582  45.209  1.00  0.00    -0.128 SA
BRANCH  17  18
HETATM   18  C   UNL     1      39.384  55.445  46.531  1.00  0.00     0.000 A 
HETATM   19  C   UNL     1      38.348  54.878  47.279  1.00  0.00     0.018 A 
HETATM   20  C   UNL     1      38.639  54.006  48.330  1.00  0.00     0.001 A 
HETATM   21  C   UNL     1      39.964  53.693  48.633  1.00  0.00     0.000 A 
HETATM   22  C   UNL     1      41.000  54.246  47.882  1.00  0.00     0.001 A 
HETATM   23  C   UNL     1      40.710  55.118  46.830  1.00  0.00     0.018 A 
ENDBRANCH  17  18
ENDBRANCH  16  17
ENDBRANCH   2  16
ENDBRANCH   1   2
BRANCH   1  24
HETATM   24  O   UNL     1      36.930  55.331  42.034  1.00  0.00    -0.392 OA
HETATM   25  H   UNL     1      36.711  55.735  42.903  1.00  0.00     0.210 HD
ENDBRANCH   1  24
BRANCH   1  26
HETATM   26  C   UNL     1      37.138  52.934  42.034  1.00  0.00     0.269 C 
BRANCH  26  27
HETATM   27  N   UNL     1      36.229  53.078  40.805  1.00  0.00    -0.055 N 
HETATM   28  H   UNL     1      35.469  53.670  41.199  1.00  0.00     0.281 HD
HETATM   29  C   UNL     1      35.507  51.807  40.340  1.00  0.00     0.279 C 
HETATM   30  C   UNL     1      36.539  50.894  39.684  1.00  0.00     0.048 C 
HETATM   31  C   UNL     1      37.172  51.588  38.465  1.00  0.00    -0.006 C 
HETATM   32  C   UNL     1      37.739  52.989  38.769  1.00  0.00     0.016 C 
HETATM   33  C   UNL     1      38.231  50.719  37.780  1.00  0.00     0.005 C 
HETATM   34  C   UNL     1      36.818  53.842  39.658  1.00  0.00     0.241 C 
HETATM   35  C   UNL     1      39.221  52.987  39.201  1.00  0.00     0.007 C 
HETATM   36  C   UNL     1      39.780  51.628  39.611  1.00  0.00     0.000 C 
HETATM   37  C   UNL     1      39.499  50.519  38.605  1.00  0.00     0.000 C 
BRANCH  29  38
HETATM   38  C   UNL     1      34.637  51.188  41.462  1.00  0.00     0.249 C 
HETATM   39  N   UNL     1      33.458  51.835  41.757  1.00  0.00    -0.351 N 
HETATM   40  H   UNL     1      33.322  52.771  41.394  1.00  0.00     0.163 HD
HETATM   41  O   UNL     1      35.052  50.195  42.061  1.00  0.00    -0.271 OA
BRANCH  39  42
HETATM   42  C   UNL     1      32.550  51.488  42.871  1.00  0.00     0.022 C 
HETATM   43  C   UNL     1      33.202  51.853  44.212  1.00  0.00     0.037 C 
HETATM   44  C   UNL     1      31.264  52.319  42.701  1.00  0.00     0.037 C 
HETATM   45  C   UNL     1      32.161  50.001  42.856  1.00  0.00     0.037 C 
ENDBRANCH  39  42
ENDBRANCH  29  38
ENDBRANCH  26  27
ENDBRANCH   1  26
TORSDOF 12
ENDMDL
MODEL 10
REMARK VINA RESULT:      -7.4     14.121     17.794
REMARK  12 active torsions:
REMARK  status: ('A' for Active; 'I' for Inactive)
REMARK    1  A    between atoms: C_3  and  O_4 
REMARK    2  A    between atoms: C_8  and  C_9 
REMARK       I    between atoms: C_9  and  N_10 
REMARK    3  A    between atoms: N_10  and  C_11 
REMARK    4  A    between atoms: C_11  and  C_33 
REMARK    5  A    between atoms: C_11  and  C_12 
REMARK    6  A    between atoms: C_12  and  O_13 
REMARK    7  A    between atoms: C_12  and  C_14 
REMARK    8  A    between atoms: C_14  and  N_15 
REMARK    9  A    between atoms: C_17  and  C_18 
REMARK       I    between atoms: C_18  and  N_19 
REMARK   10  A    between atoms: N_19  and  C_20 
REMARK   11  A    between atoms: C_33  and  S_34 
REMARK   12  A    between atoms: S_34  and  C_35 
ROOT
HETATM    1  C   UNL     1      35.817  50.191  41.216  1.00  0.00     0.167 C 
ENDROOT
BRANCH   1   2
HETATM    2  C   UNL     1      37.048  50.921  41.848  1.00  0.00     0.124 C 
BRANCH   2   3
HETATM    3  N   UNL     1      37.660  51.838  40.869  1.00  0.00    -0.349 N 
HETATM    4  C   UNL     1      39.002  51.764  40.558  1.00  0.00     0.252 C 
HETATM    5  O   UNL     1      39.727  50.874  40.988  1.00  0.00    -0.268 OA
HETATM    6  H   UNL     1      37.153  52.671  40.584  1.00  0.00     0.163 HD
BRANCH   4   7
HETATM    7  C   UNL     1      39.519  52.835  39.664  1.00  0.00     0.040 A 
HETATM    8  C   UNL     1      39.455  52.710  38.259  1.00  0.00    -0.013 A 
HETATM    9  C   UNL     1      38.908  51.469  37.607  1.00  0.00     0.052 C 
HETATM   10  C   UNL     1      39.908  53.796  37.495  1.00  0.00     0.072 A 
HETATM   11  C   UNL     1      40.455  54.933  38.091  1.00  0.00     0.037 A 
HETATM   12  C   UNL     1      40.529  55.031  39.477  1.00  0.00     0.004 A 
HETATM   13  C   UNL     1      40.051  53.989  40.265  1.00  0.00     0.018 A 
BRANCH  10  14
HETATM   14  O   UNL     1      39.853  53.825  36.130  1.00  0.00    -0.360 OA
HETATM   15  H   UNL     1      38.933  53.744  35.832  1.00  0.00     0.217 HD
ENDBRANCH  10  14
ENDBRANCH   4   7
ENDBRANCH   2   3
BRANCH   2  16
HETATM   16  C   UNL     1      36.750  51.697  43.142  1.00  0.00     0.107 C 
BRANCH  16  17
HETATM   17  S   UNL     1      38.178  51.705  44.280  1.00  0.00    -0.128 SA
BRANCH  17  18
HETATM   18  C   UNL     1      38.256  53.461  44.586  1.00  0.00     0.000 A 
HETATM   19  C   UNL     1      38.355  54.350  43.512  1.00  0.00     0.018 A 
HETATM   20  C   UNL     1      38.440  55.724  43.745  1.00  0.00     0.001 A 
HETATM   21  C   UNL     1      38.420  56.215  45.051  1.00  0.00     0.000 A 
HETATM   22  C   UNL     1      38.308  55.333  46.124  1.00  0.00     0.001 A 
HETATM   23  C   UNL     1      38.222  53.959  45.892  1.00  0.00     0.018 A 
ENDBRANCH  17  18
ENDBRANCH  16  17
ENDBRANCH   2  16
ENDBRANCH   1   2
BRANCH   1  24
HETATM   24  O   UNL     1      35.958  49.824  39.831  1.00  0.00    -0.392 OA
HETATM   25  H   UNL     1      36.727  49.218  39.744  1.00  0.00     0.210 HD
ENDBRANCH   1  24
BRANCH   1  26
HETATM   26  C   UNL     1      34.513  51.009  41.346  1.00  0.00     0.269 C 
BRANCH  26  27
HETATM   27  N   UNL     1      33.785  50.974  39.996  1.00  0.00    -0.055 N 
HETATM   28  H   UNL     1      34.523  50.558  39.392  1.00  0.00     0.281 HD
HETATM   29  C   UNL     1      33.493  52.332  39.344  1.00  0.00     0.279 C 
HETATM   30  C   UNL     1      32.368  52.998  40.130  1.00  0.00     0.048 C 
HETATM   31  C   UNL     1      31.095  52.134  40.082  1.00  0.00    -0.006 C 
HETATM   32  C   UNL     1      31.319  50.670  40.508  1.00  0.00     0.016 C 
HETATM   33  C   UNL     1      29.938  52.751  40.873  1.00  0.00     0.005 C 
HETATM   34  C   UNL     1      32.604  50.053  39.928  1.00  0.00     0.241 C 
HETATM   35  C   UNL     1      31.113  50.415  42.016  1.00  0.00     0.007 C 
HETATM   36  C   UNL     1      31.088  51.664  42.892  1.00  0.00     0.000 C 
HETATM   37  C   UNL     1      30.149  52.752  42.384  1.00  0.00     0.000 C 
BRANCH  29  38
HETATM   38  C   UNL     1      34.783  53.163  39.128  1.00  0.00     0.249 C 
HETATM   39  N   UNL     1      34.705  54.508  39.410  1.00  0.00    -0.351 N 
HETATM   40  H   UNL     1      33.788  54.920  39.532  1.00  0.00     0.163 HD
HETATM   41  O   UNL     1      35.785  52.605  38.678  1.00  0.00    -0.271 OA
BRANCH  39  42
HETATM   42  C   UNL     1      35.775  55.497  39.153  1.00  0.00     0.022 C 
HETATM   43  C   UNL     1      35.179  56.910  39.096  1.00  0.00     0.037 C 
HETATM   44  C   UNL     1      36.770  55.423  40.327  1.00  0.00     0.037 C 
HETATM   45  C   UNL     1      36.544  55.191  37.858  1.00  0.00     0.037 C 
ENDBRANCH  39  42
ENDBRANCH  29  38
ENDBRANCH  26  27
ENDBRANCH   1  26
TORSDOF 12
ENDMDL
