MODEL 1
REMARK VINA RESULT:      -7.8      0.000      0.000
REMARK  3 active torsions:
REMARK  status: ('A' for Active; 'I' for Inactive)
REMARK       I    between atoms: C_2  and  N_3 
REMARK    1  A    between atoms: N_3  and  C_4 
REMARK    2  A    between atoms: C_6  and  N_7 
REMARK       I    between atoms: N_7  and  C_8 
REMARK    3  A    between atoms: C_8  and  C_9 
ROOT
HETATM    1  C   UNL     1      24.516  49.332  48.733  1.00  0.00     0.036 A 
HETATM    2  C   UNL     1      24.674  48.254  49.613  1.00  0.00     0.059 A 
HETATM    3  C   UNL     1      25.952  47.826  49.996  1.00  0.00     0.037 A 
HETATM    4  C   UNL     1      27.076  48.485  49.487  1.00  0.00     0.029 A 
HETATM    5  C   UNL     1      26.931  49.545  48.596  1.00  0.00     0.004 A 
HETATM    6  C   UNL     1      25.656  49.964  48.219  1.00  0.00     0.029 A 
ENDROOT
BRANCH   3   7
HETATM    7  N   UNL     1      26.192  46.769  50.894  1.00  0.00    -0.322 N 
HETATM    8  C   UNL     1      25.948  46.722  52.253  1.00  0.00     0.274 C 
HETATM    9  O   UNL     1      25.393  47.569  52.940  1.00  0.00    -0.266 OA
HETATM   10  H   UNL     1      26.600  45.915  50.520  1.00  0.00     0.169 HD
BRANCH   8  11
HETATM   11  C   UNL     1      26.431  45.453  52.888  1.00  0.00     0.126 A 
HETATM   12  N   UNL     1      26.029  45.234  54.175  1.00  0.00    -0.255 NA
HETATM   13  C   UNL     1      26.437  44.081  54.748  1.00  0.00     0.119 A 
HETATM   14  C   UNL     1      27.226  43.145  54.106  1.00  0.00     0.043 A 
HETATM   15  C   UNL     1      27.620  43.410  52.800  1.00  0.00     0.037 A 
HETATM   16 CL   UNL     1      28.604  42.273  51.962  1.00  0.00    -0.084 Cl
HETATM   17  C   UNL     1      27.225  44.577  52.165  1.00  0.00     0.061 A 
ENDBRANCH   8  11
ENDBRANCH   3   7
BRANCH   1  18
HETATM   18  N   UNL     1      23.268  49.842  48.315  1.00  0.00    -0.327 N 
HETATM   19  C   UNL     1      22.365  50.582  49.056  1.00  0.00     0.218 C 
HETATM   20  C   UNL     1      21.128  50.942  48.268  1.00  0.00     0.117 C 
HETATM   21  O   UNL     1      22.497  50.977  50.207  1.00  0.00    -0.274 OA
HETATM   22  H   UNL     1      23.032  49.683  47.344  1.00  0.00     0.169 HD
ENDBRANCH   1  18
TORSDOF 3
ENDMDL
MODEL 2
REMARK VINA RESULT:      -7.6      3.232      4.604
REMARK  3 active torsions:
REMARK  status: ('A' for Active; 'I' for Inactive)
REMARK       I    between atoms: C_2  and  N_3 
REMARK    1  A    between atoms: N_3  and  C_4 
REMARK    2  A    between atoms: C_6  and  N_7 
REMARK       I    between atoms: N_7  and  C_8 
REMARK    3  A    between atoms: C_8  and  C_9 
ROOT
HETATM    1  C   UNL     1      25.020  46.461  51.102  1.00  0.00     0.036 A 
HETATM    2  C   UNL     1      25.988  46.541  52.111  1.00  0.00     0.059 A 
HETATM    3  C   UNL     1      26.327  45.410  52.867  1.00  0.00     0.037 A 
HETATM    4  C   UNL     1      25.686  44.194  52.606  1.00  0.00     0.029 A 
HETATM    5  C   UNL     1      24.708  44.109  51.618  1.00  0.00     0.004 A 
HETATM    6  C   UNL     1      24.375  45.238  50.872  1.00  0.00     0.029 A 
ENDROOT
BRANCH   3   7
HETATM    7  N   UNL     1      27.305  45.404  53.879  1.00  0.00    -0.322 N 
HETATM    8  C   UNL     1      28.467  44.659  53.948  1.00  0.00     0.274 C 
HETATM    9  O   UNL     1      28.923  43.909  53.096  1.00  0.00    -0.266 OA
HETATM   10  H   UNL     1      27.163  46.019  54.677  1.00  0.00     0.169 HD
BRANCH   8  11
HETATM   11  C   UNL     1      29.208  44.856  55.237  1.00  0.00     0.126 A 
HETATM   12  N   UNL     1      28.744  45.849  56.051  1.00  0.00    -0.255 NA
HETATM   13  C   UNL     1      29.389  46.018  57.226  1.00  0.00     0.119 A 
HETATM   14  C   UNL     1      30.471  45.253  57.622  1.00  0.00     0.043 A 
HETATM   15  C   UNL     1      30.916  44.258  56.760  1.00  0.00     0.037 A 
HETATM   16 CL   UNL     1      32.260  43.283  57.211  1.00  0.00    -0.084 Cl
HETATM   17  C   UNL     1      30.286  44.042  55.544  1.00  0.00     0.061 A 
ENDBRANCH   8  11
ENDBRANCH   3   7
BRANCH   1  18
HETATM   18  N   UNL     1      24.636  47.542  50.280  1.00  0.00    -0.327 N 
HETATM   19  C   UNL     1      25.428  48.266  49.409  1.00  0.00     0.218 C 
HETATM   20  C   UNL     1      24.663  49.361  48.705  1.00  0.00     0.117 C 
HETATM   21  O   UNL     1      26.609  48.076  49.148  1.00  0.00    -0.274 OA
HETATM   22  H   UNL     1      23.653  47.781  50.302  1.00  0.00     0.169 HD
ENDBRANCH   1  18
TORSDOF 3
ENDMDL
MODEL 3
REMARK VINA RESULT:      -7.5      3.715      8.135
REMARK  3 active torsions:
REMARK  status: ('A' for Active; 'I' for Inactive)
REMARK       I    between atoms: C_2  and  N_3 
REMARK    1  A    between atoms: N_3  and  C_4 
REMARK    2  A    between atoms: C_6  and  N_7 
REMARK       I    between atoms: N_7  and  C_8 
REMARK    3  A    between atoms: C_8  and  C_9 
ROOT
HETATM    1  C   UNL     1      25.848  47.852  49.912  1.00  0.00     0.036 A 
HETATM    2  C   UNL     1      24.545  48.309  49.675  1.00  0.00     0.059 A 
HETATM    3  C   UNL     1      24.312  49.378  48.798  1.00  0.00     0.037 A 
HETATM    4  C   UNL     1      25.396  49.989  48.160  1.00  0.00     0.029 A 
HETATM    5  C   UNL     1      26.697  49.556  48.404  1.00  0.00     0.004 A 
HETATM    6  C   UNL     1      26.920  48.493  49.278  1.00  0.00     0.029 A 
ENDROOT
BRANCH   3   7
HETATM    7  N   UNL     1      23.033  49.877  48.490  1.00  0.00    -0.322 N 
HETATM    8  C   UNL     1      22.174  50.599  49.297  1.00  0.00     0.274 C 
HETATM    9  O   UNL     1      22.390  51.022  50.424  1.00  0.00    -0.266 OA
HETATM   10  H   UNL     1      22.667  49.698  47.558  1.00  0.00     0.169 HD
BRANCH   8  11
HETATM   11  C   UNL     1      20.852  50.871  48.644  1.00  0.00     0.126 A 
HETATM   12  N   UNL     1      20.663  50.307  47.414  1.00  0.00    -0.255 NA
HETATM   13  C   UNL     1      19.465  50.524  46.828  1.00  0.00     0.119 A 
HETATM   14  C   UNL     1      18.457  51.276  47.403  1.00  0.00     0.043 A 
HETATM   15  C   UNL     1      18.694  51.837  48.652  1.00  0.00     0.037 A 
HETATM   16 CL   UNL     1      17.467  52.782  49.404  1.00  0.00    -0.084 Cl
HETATM   17  C   UNL     1      19.904  51.642  49.297  1.00  0.00     0.061 A 
ENDBRANCH   8  11
ENDBRANCH   3   7
BRANCH   1  18
HETATM   18  N   UNL     1      26.169  46.769  50.759  1.00  0.00    -0.327 N 
HETATM   19  C   UNL     1      26.004  46.688  52.129  1.00  0.00     0.218 C 
HETATM   20  C   UNL     1      26.475  45.369  52.692  1.00  0.00     0.117 C 
HETATM   21  O   UNL     1      25.501  47.527  52.866  1.00  0.00    -0.274 OA
HETATM   22  H   UNL     1      26.519  45.940  50.297  1.00  0.00     0.169 HD
ENDBRANCH   1  18
TORSDOF 3
ENDMDL
MODEL 4
REMARK VINA RESULT:      -7.4      1.779      1.958
REMARK  3 active torsions:
REMARK  status: ('A' for Active; 'I' for Inactive)
REMARK       I    between atoms: C_2  and  N_3 
REMARK    1  A    between atoms: N_3  and  C_4 
REMARK    2  A    between atoms: C_6  and  N_7 
REMARK       I    between atoms: N_7  and  C_8 
REMARK    3  A    between atoms: C_8  and  C_9 
ROOT
HETATM    1  C   UNL     1      24.490  49.439  48.640  1.00  0.00     0.036 A 
HETATM    2  C   UNL     1      24.757  48.303  49.415  1.00  0.00     0.059 A 
HETATM    3  C   UNL     1      26.076  47.920  49.692  1.00  0.00     0.037 A 
HETATM    4  C   UNL     1      27.132  48.685  49.183  1.00  0.00     0.029 A 
HETATM    5  C   UNL     1      26.878  49.804  48.395  1.00  0.00     0.004 A 
HETATM    6  C   UNL     1      25.563  50.177  48.123  1.00  0.00     0.029 A 
ENDROOT
BRANCH   3   7
HETATM    7  N   UNL     1      26.424  46.809  50.481  1.00  0.00    -0.322 N 
HETATM    8  C   UNL     1      26.213  45.469  50.220  1.00  0.00     0.274 C 
HETATM    9  O   UNL     1      25.751  44.971  49.203  1.00  0.00    -0.266 OA
HETATM   10  H   UNL     1      26.893  46.986  51.367  1.00  0.00     0.169 HD
BRANCH   8  11
HETATM   11  C   UNL     1      26.638  44.581  51.352  1.00  0.00     0.126 A 
HETATM   12  N   UNL     1      26.828  43.264  51.043  1.00  0.00    -0.255 NA
HETATM   13  C   UNL     1      27.236  42.461  52.049  1.00  0.00     0.119 A 
HETATM   14  C   UNL     1      27.457  42.903  53.341  1.00  0.00     0.043 A 
HETATM   15  C   UNL     1      27.245  44.249  53.613  1.00  0.00     0.037 A 
HETATM   16 CL   UNL     1      27.506  44.844  55.207  1.00  0.00    -0.084 Cl
HETATM   17  C   UNL     1      26.830  45.116  52.615  1.00  0.00     0.061 A 
ENDBRANCH   8  11
ENDBRANCH   3   7
BRANCH   1  18
HETATM   18  N   UNL     1      23.194  49.907  48.334  1.00  0.00    -0.327 N 
HETATM   19  C   UNL     1      22.337  50.621  49.150  1.00  0.00     0.218 C 
HETATM   20  C   UNL     1      21.025  50.938  48.474  1.00  0.00     0.117 C 
HETATM   21  O   UNL     1      22.558  51.025  50.284  1.00  0.00    -0.274 OA
HETATM   22  H   UNL     1      22.879  49.737  47.388  1.00  0.00     0.169 HD
ENDBRANCH   1  18
TORSDOF 3
ENDMDL
MODEL 5
REMARK VINA RESULT:      -7.3      3.351      8.030
REMARK  3 active torsions:
REMARK  status: ('A' for Active; 'I' for Inactive)
REMARK       I    between atoms: C_2  and  N_3 
REMARK    1  A    between atoms: N_3  and  C_4 
REMARK    2  A    between atoms: C_6  and  N_7 
REMARK       I    between atoms: N_7  and  C_8 
REMARK    3  A    between atoms: C_8  and  C_9 
ROOT
HETATM    1  C   UNL     1      27.675  44.944  54.498  1.00  0.00     0.036 A 
HETATM    2  C   UNL     1      27.513  45.860  53.450  1.00  0.00     0.059 A 
HETATM    3  C   UNL     1      26.287  45.971  52.781  1.00  0.00     0.037 A 
HETATM    4  C   UNL     1      25.219  45.154  53.169  1.00  0.00     0.029 A 
HETATM    5  C   UNL     1      25.375  44.226  54.195  1.00  0.00     0.004 A 
HETATM    6  C   UNL     1      26.599  44.121  54.855  1.00  0.00     0.029 A 
ENDROOT
BRANCH   3   7
HETATM    7  N   UNL     1      26.039  46.881  51.737  1.00  0.00    -0.322 N 
HETATM    8  C   UNL     1      26.162  46.682  50.375  1.00  0.00     0.274 C 
HETATM    9  O   UNL     1      26.433  45.640  49.795  1.00  0.00    -0.266 OA
HETATM   10  H   UNL     1      25.729  47.817  51.990  1.00  0.00     0.169 HD
BRANCH   8  11
HETATM   11  C   UNL     1      25.902  47.927  49.580  1.00  0.00     0.126 A 
HETATM   12  N   UNL     1      27.005  48.621  49.173  1.00  0.00    -0.255 NA
HETATM   13  C   UNL     1      26.783  49.729  48.433  1.00  0.00     0.119 A 
HETATM   14  C   UNL     1      25.522  50.178  48.087  1.00  0.00     0.043 A 
HETATM   15  C   UNL     1      24.426  49.447  48.529  1.00  0.00     0.037 A 
HETATM   16 CL   UNL     1      22.837  49.970  48.124  1.00  0.00    -0.084 Cl
HETATM   17  C   UNL     1      24.600  48.300  49.287  1.00  0.00     0.061 A 
ENDBRANCH   8  11
ENDBRANCH   3   7
BRANCH   1  18
HETATM   18  N   UNL     1      28.866  44.784  55.238  1.00  0.00    -0.327 N 
HETATM   19  C   UNL     1      29.864  43.847  55.045  1.00  0.00     0.218 C 
HETATM   20  C   UNL     1      30.985  43.981  56.047  1.00  0.00     0.117 C 
HETATM   21  O   UNL     1      29.926  43.003  54.161  1.00  0.00    -0.274 OA
HETATM   22  H   UNL     1      29.024  45.468  55.966  1.00  0.00     0.169 HD
ENDBRANCH   1  18
TORSDOF 3
ENDMDL
MODEL 6
REMARK VINA RESULT:      -7.2      3.878      7.873
REMARK  3 active torsions:
REMARK  status: ('A' for Active; 'I' for Inactive)
REMARK       I    between atoms: C_2  and  N_3 
REMARK    1  A    between atoms: N_3  and  C_4 
REMARK    2  A    between atoms: C_6  and  N_7 
REMARK       I    between atoms: N_7  and  C_8 
REMARK    3  A    between atoms: C_8  and  C_9 
ROOT
HETATM    1  C   UNL     1      29.576  44.305  55.174  1.00  0.00     0.036 A 
HETATM    2  C   UNL     1      28.596  44.879  54.355  1.00  0.00     0.059 A 
HETATM    3  C   UNL     1      28.006  44.139  53.320  1.00  0.00     0.037 A 
HETATM    4  C   UNL     1      28.408  42.816  53.110  1.00  0.00     0.029 A 
HETATM    5  C   UNL     1      29.396  42.242  53.906  1.00  0.00     0.004 A 
HETATM    6  C   UNL     1      29.978  42.985  54.931  1.00  0.00     0.029 A 
ENDROOT
BRANCH   3   7
HETATM    7  N   UNL     1      27.000  44.637  52.472  1.00  0.00    -0.322 N 
HETATM    8  C   UNL     1      25.630  44.597  52.648  1.00  0.00     0.274 C 
HETATM    9  O   UNL     1      25.015  44.192  53.624  1.00  0.00    -0.266 OA
HETATM   10  H   UNL     1      27.290  45.089  51.608  1.00  0.00     0.169 HD
BRANCH   8  11
HETATM   11  C   UNL     1      24.876  45.146  51.473  1.00  0.00     0.126 A 
HETATM   12  N   UNL     1      23.943  44.318  50.917  1.00  0.00    -0.255 NA
HETATM   13  C   UNL     1      23.241  44.812  49.875  1.00  0.00     0.119 A 
HETATM   14  C   UNL     1      23.426  46.082  49.360  1.00  0.00     0.043 A 
HETATM   15  C   UNL     1      24.391  46.890  49.950  1.00  0.00     0.037 A 
HETATM   16 CL   UNL     1      24.658  48.477  49.341  1.00  0.00    -0.084 Cl
HETATM   17  C   UNL     1      25.137  46.431  51.025  1.00  0.00     0.061 A 
ENDBRANCH   8  11
ENDBRANCH   3   7
BRANCH   1  18
HETATM   18  N   UNL     1      30.203  44.969  56.250  1.00  0.00    -0.327 N 
HETATM   19  C   UNL     1      29.615  45.782  57.202  1.00  0.00     0.218 C 
HETATM   20  C   UNL     1      30.614  46.325  58.195  1.00  0.00     0.117 C 
HETATM   21  O   UNL     1      28.425  46.043  57.320  1.00  0.00    -0.274 OA
HETATM   22  H   UNL     1      31.192  44.789  56.360  1.00  0.00     0.169 HD
ENDBRANCH   1  18
TORSDOF 3
ENDMDL
MODEL 7
REMARK VINA RESULT:      -7.2      4.995      7.645
REMARK  3 active torsions:
REMARK  status: ('A' for Active; 'I' for Inactive)
REMARK       I    between atoms: C_2  and  N_3 
REMARK    1  A    between atoms: N_3  and  C_4 
REMARK    2  A    between atoms: C_6  and  N_7 
REMARK       I    between atoms: N_7  and  C_8 
REMARK    3  A    between atoms: C_8  and  C_9 
ROOT
HETATM    1  C   UNL     1      29.029  45.372  55.472  1.00  0.00     0.036 A 
HETATM    2  C   UNL     1      28.343  44.671  54.472  1.00  0.00     0.059 A 
HETATM    3  C   UNL     1      27.351  45.303  53.709  1.00  0.00     0.037 A 
HETATM    4  C   UNL     1      27.048  46.646  53.958  1.00  0.00     0.029 A 
HETATM    5  C   UNL     1      27.710  47.346  54.963  1.00  0.00     0.004 A 
HETATM    6  C   UNL     1      28.694  46.710  55.718  1.00  0.00     0.029 A 
ENDROOT
BRANCH   3   7
HETATM    7  N   UNL     1      26.637  44.675  52.672  1.00  0.00    -0.322 N 
HETATM    8  C   UNL     1      25.380  44.103  52.718  1.00  0.00     0.274 C 
HETATM    9  O   UNL     1      24.595  44.101  53.657  1.00  0.00    -0.266 OA
HETATM   10  H   UNL     1      27.080  44.620  51.758  1.00  0.00     0.169 HD
BRANCH   8  11
HETATM   11  C   UNL     1      24.994  43.442  51.429  1.00  0.00     0.126 A 
HETATM   12  N   UNL     1      23.663  43.455  51.122  1.00  0.00    -0.255 NA
HETATM   13  C   UNL     1      23.308  42.885  49.949  1.00  0.00     0.119 A 
HETATM   14  C   UNL     1      24.209  42.302  49.078  1.00  0.00     0.043 A 
HETATM   15  C   UNL     1      25.553  42.303  49.433  1.00  0.00     0.037 A 
HETATM   16 CL   UNL     1      26.709  41.586  48.379  1.00  0.00    -0.084 Cl
HETATM   17  C   UNL     1      25.970  42.878  50.623  1.00  0.00     0.061 A 
ENDBRANCH   8  11
ENDBRANCH   3   7
BRANCH   1  18
HETATM   18  N   UNL     1      30.056  44.820  56.269  1.00  0.00    -0.327 N 
HETATM   19  C   UNL     1      30.879  43.751  55.968  1.00  0.00     0.218 C 
HETATM   20  C   UNL     1      31.857  43.444  57.076  1.00  0.00     0.117 C 
HETATM   21  O   UNL     1      30.906  43.106  54.928  1.00  0.00    -0.274 OA
HETATM   22  H   UNL     1      30.236  45.297  57.142  1.00  0.00     0.169 HD
ENDBRANCH   1  18
TORSDOF 3
ENDMDL
MODEL 8
REMARK VINA RESULT:      -7.1      4.122      5.419
REMARK  3 active torsions:
REMARK  status: ('A' for Active; 'I' for Inactive)
REMARK       I    between atoms: C_2  and  N_3 
REMARK    1  A    between atoms: N_3  and  C_4 
REMARK    2  A    between atoms: C_6  and  N_7 
REMARK       I    between atoms: N_7  and  C_8 
REMARK    3  A    between atoms: C_8  and  C_9 
ROOT
HETATM    1  C   UNL     1      25.250  44.555  50.788  1.00  0.00     0.036 A 
HETATM    2  C   UNL     1      26.192  44.429  51.818  1.00  0.00     0.059 A 
HETATM    3  C   UNL     1      26.533  45.532  52.612  1.00  0.00     0.037 A 
HETATM    4  C   UNL     1      25.924  46.768  52.366  1.00  0.00     0.029 A 
HETATM    5  C   UNL     1      25.002  46.908  51.332  1.00  0.00     0.004 A 
HETATM    6  C   UNL     1      24.670  45.806  50.545  1.00  0.00     0.029 A 
ENDROOT
BRANCH   3   7
HETATM    7  N   UNL     1      27.448  45.481  53.679  1.00  0.00    -0.322 N 
HETATM    8  C   UNL     1      28.526  44.633  53.847  1.00  0.00     0.274 C 
HETATM    9  O   UNL     1      28.953  43.804  53.054  1.00  0.00    -0.266 OA
HETATM   10  H   UNL     1      27.324  46.142  54.442  1.00  0.00     0.169 HD
BRANCH   8  11
HETATM   11  C   UNL     1      29.213  44.818  55.167  1.00  0.00     0.126 A 
HETATM   12  N   UNL     1      28.723  45.813  55.964  1.00  0.00    -0.255 NA
HETATM   13  C   UNL     1      29.318  45.971  57.167  1.00  0.00     0.119 A 
HETATM   14  C   UNL     1      30.373  45.194  57.607  1.00  0.00     0.043 A 
HETATM   15  C   UNL     1      30.846  44.197  56.761  1.00  0.00     0.037 A 
HETATM   16 CL   UNL     1      32.159  43.207  57.268  1.00  0.00    -0.084 Cl
HETATM   17  C   UNL     1      30.268  43.991  55.519  1.00  0.00     0.061 A 
ENDBRANCH   8  11
ENDBRANCH   3   7
BRANCH   1  18
HETATM   18  N   UNL     1      24.833  43.492  49.958  1.00  0.00    -0.327 N 
HETATM   19  C   UNL     1      23.624  42.822  49.985  1.00  0.00     0.218 C 
HETATM   20  C   UNL     1      23.544  41.731  48.944  1.00  0.00     0.117 C 
HETATM   21  O   UNL     1      22.664  43.054  50.707  1.00  0.00    -0.274 OA
HETATM   22  H   UNL     1      25.481  43.225  49.229  1.00  0.00     0.169 HD
ENDBRANCH   1  18
TORSDOF 3
ENDMDL
MODEL 9
REMARK VINA RESULT:      -7.1      4.016      7.883
REMARK  3 active torsions:
REMARK  status: ('A' for Active; 'I' for Inactive)
REMARK       I    between atoms: C_2  and  N_3 
REMARK    1  A    between atoms: N_3  and  C_4 
REMARK    2  A    between atoms: C_6  and  N_7 
REMARK       I    between atoms: N_7  and  C_8 
REMARK    3  A    between atoms: C_8  and  C_9 
ROOT
HETATM    1  C   UNL     1      26.099  47.051  50.354  1.00  0.00     0.036 A 
HETATM    2  C   UNL     1      24.728  47.337  50.338  1.00  0.00     0.059 A 
HETATM    3  C   UNL     1      24.234  48.423  49.603  1.00  0.00     0.037 A 
HETATM    4  C   UNL     1      25.125  49.225  48.882  1.00  0.00     0.029 A 
HETATM    5  C   UNL     1      26.492  48.961  48.907  1.00  0.00     0.004 A 
HETATM    6  C   UNL     1      26.976  47.880  49.642  1.00  0.00     0.029 A 
ENDROOT
BRANCH   3   7
HETATM    7  N   UNL     1      22.870  48.760  49.518  1.00  0.00    -0.322 N 
HETATM    8  C   UNL     1      21.988  48.521  48.481  1.00  0.00     0.274 C 
HETATM    9  O   UNL     1      22.198  47.889  47.455  1.00  0.00    -0.266 OA
HETATM   10  H   UNL     1      22.453  49.246  50.308  1.00  0.00     0.169 HD
BRANCH   8  11
HETATM   11  C   UNL     1      20.634  49.120  48.719  1.00  0.00     0.126 A 
HETATM   12  N   UNL     1      19.683  48.276  49.218  1.00  0.00    -0.255 NA
HETATM   13  C   UNL     1      18.467  48.812  49.461  1.00  0.00     0.119 A 
HETATM   14  C   UNL     1      18.155  50.138  49.226  1.00  0.00     0.043 A 
HETATM   15  C   UNL     1      19.149  50.961  48.710  1.00  0.00     0.037 A 
HETATM   16 CL   UNL     1      18.804  52.618  48.400  1.00  0.00    -0.084 Cl
HETATM   17  C   UNL     1      20.415  50.461  48.447  1.00  0.00     0.061 A 
ENDBRANCH   8  11
ENDBRANCH   3   7
BRANCH   1  18
HETATM   18  N   UNL     1      26.678  45.966  51.047  1.00  0.00    -0.327 N 
HETATM   19  C   UNL     1      27.020  44.725  50.542  1.00  0.00     0.218 C 
HETATM   20  C   UNL     1      27.610  43.816  51.594  1.00  0.00     0.117 C 
HETATM   21  O   UNL     1      26.929  44.345  49.382  1.00  0.00    -0.274 OA
HETATM   22  H   UNL     1      26.909  46.138  52.016  1.00  0.00     0.169 HD
ENDBRANCH   1  18
TORSDOF 3
ENDMDL
MODEL 10
REMARK VINA RESULT:      -7.0      5.518      7.342
REMARK  3 active torsions:
REMARK  status: ('A' for Active; 'I' for Inactive)
REMARK       I    between atoms: C_2  and  N_3 
REMARK    1  A    between atoms: N_3  and  C_4 
REMARK    2  A    between atoms: C_6  and  N_7 
REMARK       I    between atoms: N_7  and  C_8 
REMARK    3  A    between atoms: C_8  and  C_9 
ROOT
HETATM    1  C   UNL     1      28.796  45.389  55.217  1.00  0.00     0.036 A 
HETATM    2  C   UNL     1      28.520  44.574  54.112  1.00  0.00     0.059 A 
HETATM    3  C   UNL     1      29.323  43.460  53.828  1.00  0.00     0.037 A 
HETATM    4  C   UNL     1      30.410  43.170  54.660  1.00  0.00     0.029 A 
HETATM    5  C   UNL     1      30.704  43.986  55.749  1.00  0.00     0.004 A 
HETATM    6  C   UNL     1      29.902  45.092  56.024  1.00  0.00     0.029 A 
ENDROOT
BRANCH   3   7
HETATM    7  N   UNL     1      29.097  42.581  52.754  1.00  0.00    -0.322 N 
HETATM    8  C   UNL     1      28.514  41.328  52.776  1.00  0.00     0.274 C 
HETATM    9  O   UNL     1      27.998  40.762  53.730  1.00  0.00    -0.266 OA
HETATM   10  H   UNL     1      29.393  42.880  51.827  1.00  0.00     0.169 HD
BRANCH   8  11
HETATM   11  C   UNL     1      28.538  40.651  51.438  1.00  0.00     0.126 A 
HETATM   12  N   UNL     1      29.141  39.427  51.395  1.00  0.00    -0.255 NA
HETATM   13  C   UNL     1      29.145  38.797  50.200  1.00  0.00     0.119 A 
HETATM   14  C   UNL     1      28.585  39.328  49.053  1.00  0.00     0.043 A 
HETATM   15  C   UNL     1      27.988  40.580  49.139  1.00  0.00     0.037 A 
HETATM   16 CL   UNL     1      27.279  41.281  47.735  1.00  0.00    -0.084 Cl
HETATM   17  C   UNL     1      27.954  41.266  50.343  1.00  0.00     0.061 A 
ENDBRANCH   8  11
ENDBRANCH   3   7
BRANCH   1  18
HETATM   18  N   UNL     1      28.026  46.513  55.588  1.00  0.00    -0.327 N 
HETATM   19  C   UNL     1      27.153  47.239  54.800  1.00  0.00     0.218 C 
HETATM   20  C   UNL     1      26.516  48.386  55.547  1.00  0.00     0.117 C 
HETATM   21  O   UNL     1      26.843  47.015  53.637  1.00  0.00    -0.274 OA
HETATM   22  H   UNL     1      28.092  46.788  56.559  1.00  0.00     0.169 HD
ENDBRANCH   1  18
TORSDOF 3
ENDMDL
