MODEL 1
REMARK VINA RESULT:     -10.1      0.000      0.000
REMARK  10 active torsions:
REMARK  status: ('A' for Active; 'I' for Inactive)
REMARK    1  A    between atoms: C_6  and  C_7 
REMARK    2  A    between atoms: C_7  and  O_8 
REMARK    3  A    between atoms: O_8  and  C_9 
REMARK    4  A    between atoms: C_12  and  C_13 
REMARK    5  A    between atoms: N_14  and  N_15 
REMARK       I    between atoms: N_15  and  C_16 
REMARK    6  A    between atoms: C_16  and  C_17 
REMARK    7  A    between atoms: N_20  and  C_21 
REMARK    8  A    between atoms: C_25  and  N_26 
REMARK    9  A    between atoms: C_27  and  C_28 
REMARK   10  A    between atoms: C_28  and  N_29 
ROOT
HETATM    1  C   UNL     1      21.616  47.640  48.227  1.00  0.00     0.170 C 
HETATM    2  N   UNL     1      21.597  47.202  46.938  1.00  0.00    -0.152 NA
HETATM    3  N   UNL     1      20.349  47.250  46.506  1.00  0.00     0.012 NA
HETATM    4  N   UNL     1      19.544  47.698  47.505  1.00  0.00    -0.215 N 
HETATM    5  C   UNL     1      20.346  48.086  48.578  1.00  0.00     0.096 C 
ENDROOT
BRANCH   1   6
HETATM    6  C   UNL     1      22.834  47.752  49.017  1.00  0.00     0.293 C 
HETATM    7  N   UNL     1      23.341  46.580  49.553  1.00  0.00    -0.242 N 
HETATM    8  H   UNL     1      24.166  46.677  50.135  1.00  0.00     0.192 HD
HETATM    9  O   UNL     1      23.313  48.841  49.321  1.00  0.00    -0.264 OA
BRANCH   7  10
HETATM   10  N   UNL     1      22.886  45.353  49.178  1.00  0.00    -0.184 NA
HETATM   11  C   UNL     1      23.562  44.284  49.488  1.00  0.00     0.150 C 
BRANCH  11  12
HETATM   12  C   UNL     1      24.796  44.149  50.280  1.00  0.00    -0.017 A 
HETATM   13  C   UNL     1      25.997  44.107  49.567  1.00  0.00     0.016 A 
HETATM   14  C   UNL     1      27.203  44.004  50.259  1.00  0.00     0.037 A 
HETATM   15  C   UNL     1      27.219  43.971  51.654  1.00  0.00     0.069 A 
HETATM   16  C   UNL     1      26.016  44.014  52.362  1.00  0.00     0.037 A 
HETATM   17  C   UNL     1      24.800  44.120  51.675  1.00  0.00     0.016 A 
BRANCH  15  18
HETATM   18  O   UNL     1      28.464  43.880  52.205  1.00  0.00    -0.347 OA
BRANCH  18  19
HETATM   19  C   UNL     1      28.618  42.999  53.319  1.00  0.00     0.214 C 
BRANCH  19  20
HETATM   20  C   UNL     1      29.221  43.787  54.456  1.00  0.00    -0.033 A 
HETATM   21  C   UNL     1      30.293  43.248  55.186  1.00  0.00     0.033 A 
HETATM   22  C   UNL     1      30.874  43.973  56.226  1.00  0.00     0.034 A 
HETATM   23  C   UNL     1      30.403  45.242  56.549  1.00  0.00     0.024 A 
HETATM   24 CL   UNL     1      32.186  43.294  57.109  1.00  0.00    -0.084 Cl
HETATM   25  C   UNL     1      29.339  45.787  55.830  1.00  0.00     0.002 A 
HETATM   26  C   UNL     1      28.750  45.065  54.788  1.00  0.00     0.009 A 
ENDBRANCH  19  20
ENDBRANCH  18  19
ENDBRANCH  15  18
ENDBRANCH  11  12
ENDBRANCH   7  10
ENDBRANCH   1   6
BRANCH   5  27
HETATM   27  C   UNL     1      19.917  48.784  49.806  1.00  0.00     0.296 C 
BRANCH  27  28
HETATM   28  N   UNL     1      19.490  50.236  49.624  1.00  0.00    -0.066 N 
HETATM   29  H   UNL     1      19.987  50.739  50.370  1.00  0.00     0.280 HD
HETATM   30  C   UNL     1      19.953  50.864  48.324  1.00  0.00     0.235 C 
HETATM   31  C   UNL     1      19.672  52.360  48.348  1.00  0.00     0.028 C 
HETATM   32  C   UNL     1      18.204  52.653  48.631  1.00  0.00     0.003 C 
HETATM   33  C   UNL     1      17.749  51.974  49.916  1.00  0.00     0.028 C 
HETATM   34  C   UNL     1      18.023  50.476  49.889  1.00  0.00     0.235 C 
ENDBRANCH  27  28
ENDBRANCH   5  27
BRANCH   4  35
HETATM   35  C   UNL     1      18.138  47.764  47.360  1.00  0.00     0.225 A 
HETATM   36  N   UNL     1      17.573  48.771  46.693  1.00  0.00    -0.081 NA
HETATM   37  O   UNL     1      16.205  48.507  46.777  1.00  0.00    -0.103 OA
HETATM   38  N   UNL     1      15.967  47.321  47.456  1.00  0.00    -0.083 NA
HETATM   39  C   UNL     1      17.163  46.865  47.826  1.00  0.00     0.201 A 
BRANCH  39  40
HETATM   40  N   UNL     1      17.364  45.719  48.496  1.00  0.00    -0.379 N 
HETATM   41  H   UNL     1      18.288  45.295  48.507  1.00  0.00     0.158 HD
HETATM   42  H   UNL     1      16.608  45.074  48.725  1.00  0.00     0.158 HD
ENDBRANCH  39  40
ENDBRANCH   4  35
TORSDOF 10
ENDMDL
MODEL 2
REMARK VINA RESULT:      -9.4      4.672     11.742
REMARK  10 active torsions:
REMARK  status: ('A' for Active; 'I' for Inactive)
REMARK    1  A    between atoms: C_6  and  C_7 
REMARK    2  A    between atoms: C_7  and  O_8 
REMARK    3  A    between atoms: O_8  and  C_9 
REMARK    4  A    between atoms: C_12  and  C_13 
REMARK    5  A    between atoms: N_14  and  N_15 
REMARK       I    between atoms: N_15  and  C_16 
REMARK    6  A    between atoms: C_16  and  C_17 
REMARK    7  A    between atoms: N_20  and  C_21 
REMARK    8  A    between atoms: C_25  and  N_26 
REMARK    9  A    between atoms: C_27  and  C_28 
REMARK   10  A    between atoms: C_28  and  N_29 
ROOT
HETATM    1  C   UNL     1      25.133  44.015  51.159  1.00  0.00     0.170 C 
HETATM    2  N   UNL     1      24.246  43.007  50.931  1.00  0.00    -0.152 NA
HETATM    3  N   UNL     1      24.930  41.930  50.584  1.00  0.00     0.012 NA
HETATM    4  N   UNL     1      26.255  42.227  50.564  1.00  0.00    -0.215 N 
HETATM    5  C   UNL     1      26.428  43.518  51.059  1.00  0.00     0.096 C 
ENDROOT
BRANCH   1   6
HETATM    6  C   UNL     1      24.735  45.348  51.592  1.00  0.00     0.293 C 
HETATM    7  N   UNL     1      24.285  46.215  50.612  1.00  0.00    -0.242 N 
HETATM    8  H   UNL     1      24.050  47.152  50.920  1.00  0.00     0.192 HD
HETATM    9  O   UNL     1      24.925  45.740  52.741  1.00  0.00    -0.264 OA
BRANCH   7  10
HETATM   10  N   UNL     1      23.988  45.796  49.351  1.00  0.00    -0.184 NA
HETATM   11  C   UNL     1      23.200  46.505  48.596  1.00  0.00     0.150 C 
BRANCH  11  12
HETATM   12  C   UNL     1      22.564  47.806  48.861  1.00  0.00    -0.017 A 
HETATM   13  C   UNL     1      21.175  47.808  49.006  1.00  0.00     0.016 A 
HETATM   14  C   UNL     1      20.515  49.004  49.282  1.00  0.00     0.037 A 
HETATM   15  C   UNL     1      21.233  50.190  49.442  1.00  0.00     0.069 A 
HETATM   16  C   UNL     1      22.622  50.183  49.297  1.00  0.00     0.037 A 
HETATM   17  C   UNL     1      23.294  48.986  49.021  1.00  0.00     0.016 A 
BRANCH  15  18
HETATM   18  O   UNL     1      20.468  51.285  49.720  1.00  0.00    -0.347 OA
BRANCH  18  19
HETATM   19  C   UNL     1      19.859  51.949  48.611  1.00  0.00     0.214 C 
BRANCH  19  20
HETATM   20  C   UNL     1      18.363  51.879  48.791  1.00  0.00    -0.033 A 
HETATM   21  C   UNL     1      17.609  50.981  48.018  1.00  0.00     0.033 A 
HETATM   22  C   UNL     1      16.227  50.890  48.188  1.00  0.00     0.034 A 
HETATM   23  C   UNL     1      15.580  51.685  49.129  1.00  0.00     0.024 A 
HETATM   24 CL   UNL     1      15.322  49.784  47.231  1.00  0.00    -0.084 Cl
HETATM   25  C   UNL     1      16.319  52.581  49.903  1.00  0.00     0.002 A 
HETATM   26  C   UNL     1      17.704  52.678  49.736  1.00  0.00     0.009 A 
ENDBRANCH  19  20
ENDBRANCH  18  19
ENDBRANCH  15  18
ENDBRANCH  11  12
ENDBRANCH   7  10
ENDBRANCH   1   6
BRANCH   5  27
HETATM   27  C   UNL     1      27.704  44.191  51.374  1.00  0.00     0.296 C 
BRANCH  27  28
HETATM   28  N   UNL     1      28.281  43.898  52.754  1.00  0.00    -0.066 N 
HETATM   29  H   UNL     1      27.691  43.138  53.115  1.00  0.00     0.280 HD
HETATM   30  C   UNL     1      29.695  43.351  52.736  1.00  0.00     0.235 C 
HETATM   31  C   UNL     1      30.083  42.885  54.132  1.00  0.00     0.028 C 
HETATM   32  C   UNL     1      29.914  43.994  55.163  1.00  0.00     0.003 C 
HETATM   33  C   UNL     1      28.501  44.561  55.130  1.00  0.00     0.028 C 
HETATM   34  C   UNL     1      28.115  45.033  53.735  1.00  0.00     0.235 C 
ENDBRANCH  27  28
ENDBRANCH   5  27
BRANCH   4  35
HETATM   35  C   UNL     1      27.225  41.288  50.135  1.00  0.00     0.225 A 
HETATM   36  N   UNL     1      27.482  41.126  48.836  1.00  0.00    -0.081 NA
HETATM   37  O   UNL     1      28.457  40.128  48.807  1.00  0.00    -0.103 OA
HETATM   38  N   UNL     1      28.805  39.734  50.090  1.00  0.00    -0.083 NA
HETATM   39  C   UNL     1      28.036  40.445  50.913  1.00  0.00     0.201 A 
BRANCH  39  40
HETATM   40  N   UNL     1      28.084  40.368  52.253  1.00  0.00    -0.379 N 
HETATM   41  H   UNL     1      28.969  40.504  52.735  1.00  0.00     0.158 HD
HETATM   42  H   UNL     1      27.382  39.875  52.803  1.00  0.00     0.158 HD
ENDBRANCH  39  40
ENDBRANCH   4  35
TORSDOF 10
ENDMDL
MODEL 3
REMARK VINA RESULT:      -9.4      3.091      5.137
REMARK  10 active torsions:
REMARK  status: ('A' for Active; 'I' for Inactive)
REMARK    1  A    between atoms: C_6  and  C_7 
REMARK    2  A    between atoms: C_7  and  O_8 
REMARK    3  A    between atoms: O_8  and  C_9 
REMARK    4  A    between atoms: C_12  and  C_13 
REMARK    5  A    between atoms: N_14  and  N_15 
REMARK       I    between atoms: N_15  and  C_16 
REMARK    6  A    between atoms: C_16  and  C_17 
REMARK    7  A    between atoms: N_20  and  C_21 
REMARK    8  A    between atoms: C_25  and  N_26 
REMARK    9  A    between atoms: C_27  and  C_28 
REMARK   10  A    between atoms: C_28  and  N_29 
ROOT
HETATM    1  C   UNL     1      24.459  45.800  50.573  1.00  0.00     0.170 C 
HETATM    2  N   UNL     1      25.161  46.618  51.405  1.00  0.00    -0.152 NA
HETATM    3  N   UNL     1      25.311  47.786  50.802  1.00  0.00     0.012 NA
HETATM    4  N   UNL     1      24.730  47.736  49.575  1.00  0.00    -0.215 N 
HETATM    5  C   UNL     1      24.058  46.521  49.453  1.00  0.00     0.096 C 
ENDROOT
BRANCH   1   6
HETATM    6  C   UNL     1      24.080  44.438  50.923  1.00  0.00     0.293 C 
HETATM    7  N   UNL     1      24.557  43.428  50.105  1.00  0.00    -0.242 N 
HETATM    8  H   UNL     1      24.253  42.488  50.335  1.00  0.00     0.192 HD
HETATM    9  O   UNL     1      23.261  44.199  51.806  1.00  0.00    -0.264 OA
BRANCH   7  10
HETATM   10  N   UNL     1      25.523  43.644  49.170  1.00  0.00    -0.184 NA
HETATM   11  C   UNL     1      26.777  43.668  49.522  1.00  0.00     0.150 C 
BRANCH  11  12
HETATM   12  C   UNL     1      27.388  43.431  50.840  1.00  0.00    -0.017 A 
HETATM   13  C   UNL     1      27.845  42.136  51.096  1.00  0.00     0.016 A 
HETATM   14  C   UNL     1      28.455  41.852  52.317  1.00  0.00     0.037 A 
HETATM   15  C   UNL     1      28.637  42.856  53.269  1.00  0.00     0.069 A 
HETATM   16  C   UNL     1      28.179  44.149  53.009  1.00  0.00     0.037 A 
HETATM   17  C   UNL     1      27.566  44.444  51.784  1.00  0.00     0.016 A 
BRANCH  15  18
HETATM   18  O   UNL     1      29.257  42.446  54.414  1.00  0.00    -0.347 OA
BRANCH  18  19
HETATM   19  C   UNL     1      30.612  42.858  54.601  1.00  0.00     0.214 C 
BRANCH  19  20
HETATM   20  C   UNL     1      30.677  43.686  55.860  1.00  0.00    -0.033 A 
HETATM   21  C   UNL     1      29.714  44.682  56.091  1.00  0.00     0.033 A 
HETATM   22  C   UNL     1      29.750  45.441  57.261  1.00  0.00     0.034 A 
HETATM   23  C   UNL     1      30.737  45.217  58.216  1.00  0.00     0.024 A 
HETATM   24 CL   UNL     1      28.561  46.656  57.524  1.00  0.00    -0.084 Cl
HETATM   25  C   UNL     1      31.698  44.230  57.997  1.00  0.00     0.002 A 
HETATM   26  C   UNL     1      31.670  43.467  56.825  1.00  0.00     0.009 A 
ENDBRANCH  19  20
ENDBRANCH  18  19
ENDBRANCH  15  18
ENDBRANCH  11  12
ENDBRANCH   7  10
ENDBRANCH   1   6
BRANCH   5  27
HETATM   27  C   UNL     1      23.152  46.107  48.362  1.00  0.00     0.296 C 
BRANCH  27  28
HETATM   28  N   UNL     1      21.663  46.187  48.676  1.00  0.00    -0.066 N 
HETATM   29  H   UNL     1      21.607  45.971  49.680  1.00  0.00     0.280 HD
HETATM   30  C   UNL     1      21.065  47.571  48.516  1.00  0.00     0.235 C 
HETATM   31  C   UNL     1      19.646  47.583  49.068  1.00  0.00     0.028 C 
HETATM   32  C   UNL     1      18.780  46.510  48.419  1.00  0.00     0.003 C 
HETATM   33  C   UNL     1      19.424  45.136  48.551  1.00  0.00     0.028 C 
HETATM   34  C   UNL     1      20.840  45.121  47.993  1.00  0.00     0.235 C 
ENDBRANCH  27  28
ENDBRANCH   5  27
BRANCH   4  35
HETATM   35  C   UNL     1      24.815  48.815  48.663  1.00  0.00     0.225 A 
HETATM   36  N   UNL     1      23.714  49.306  48.091  1.00  0.00    -0.081 NA
HETATM   37  O   UNL     1      24.190  50.323  47.262  1.00  0.00    -0.103 OA
HETATM   38  N   UNL     1      25.565  50.461  47.379  1.00  0.00    -0.083 NA
HETATM   39  C   UNL     1      25.954  49.520  48.239  1.00  0.00     0.201 A 
BRANCH  39  40
HETATM   40  N   UNL     1      27.223  49.335  48.637  1.00  0.00    -0.379 N 
HETATM   41  H   UNL     1      27.420  48.738  49.437  1.00  0.00     0.158 HD
HETATM   42  H   UNL     1      27.974  49.987  48.410  1.00  0.00     0.158 HD
ENDBRANCH  39  40
ENDBRANCH   4  35
TORSDOF 10
ENDMDL
MODEL 4
REMARK VINA RESULT:      -9.3      1.918      2.454
REMARK  10 active torsions:
REMARK  status: ('A' for Active; 'I' for Inactive)
REMARK    1  A    between atoms: C_6  and  C_7 
REMARK    2  A    between atoms: C_7  and  O_8 
REMARK    3  A    between atoms: O_8  and  C_9 
REMARK    4  A    between atoms: C_12  and  C_13 
REMARK    5  A    between atoms: N_14  and  N_15 
REMARK       I    between atoms: N_15  and  C_16 
REMARK    6  A    between atoms: C_16  and  C_17 
REMARK    7  A    between atoms: N_20  and  C_21 
REMARK    8  A    between atoms: C_25  and  N_26 
REMARK    9  A    between atoms: C_27  and  C_28 
REMARK   10  A    between atoms: C_28  and  N_29 
ROOT
HETATM    1  C   UNL     1      21.448  45.809  47.812  1.00  0.00     0.170 C 
HETATM    2  N   UNL     1      21.940  45.932  46.548  1.00  0.00    -0.152 NA
HETATM    3  N   UNL     1      21.166  46.776  45.887  1.00  0.00     0.012 NA
HETATM    4  N   UNL     1      20.160  47.194  46.699  1.00  0.00    -0.215 N 
HETATM    5  C   UNL     1      20.391  46.698  47.981  1.00  0.00     0.096 C 
ENDROOT
BRANCH   1   6
HETATM    6  C   UNL     1      22.069  44.979  48.835  1.00  0.00     0.293 C 
HETATM    7  N   UNL     1      23.199  45.489  49.452  1.00  0.00    -0.242 N 
HETATM    8  H   UNL     1      23.645  44.885  50.133  1.00  0.00     0.192 HD
HETATM    9  O   UNL     1      21.705  43.825  49.044  1.00  0.00    -0.264 OA
BRANCH   7  10
HETATM   10  N   UNL     1      23.585  46.786  49.305  1.00  0.00    -0.184 NA
HETATM   11  C   UNL     1      24.555  47.264  50.030  1.00  0.00     0.150 C 
BRANCH  11  12
HETATM   12  C   UNL     1      25.412  46.588  51.017  1.00  0.00    -0.017 A 
HETATM   13  C   UNL     1      25.375  47.082  52.323  1.00  0.00     0.016 A 
HETATM   14  C   UNL     1      26.146  46.470  53.311  1.00  0.00     0.037 A 
HETATM   15  C   UNL     1      26.929  45.355  53.010  1.00  0.00     0.069 A 
HETATM   16  C   UNL     1      26.962  44.864  51.703  1.00  0.00     0.037 A 
HETATM   17  C   UNL     1      26.190  45.471  50.705  1.00  0.00     0.016 A 
BRANCH  15  18
HETATM   18  O   UNL     1      27.624  44.847  54.069  1.00  0.00    -0.347 OA
BRANCH  18  19
HETATM   19  C   UNL     1      28.817  44.120  53.773  1.00  0.00     0.214 C 
BRANCH  19  20
HETATM   20  C   UNL     1      29.683  44.125  55.009  1.00  0.00    -0.033 A 
HETATM   21  C   UNL     1      29.549  45.158  55.951  1.00  0.00     0.033 A 
HETATM   22  C   UNL     1      30.328  45.165  57.107  1.00  0.00     0.034 A 
HETATM   23  C   UNL     1      31.244  44.144  57.345  1.00  0.00     0.024 A 
HETATM   24 CL   UNL     1      30.148  46.440  58.248  1.00  0.00    -0.084 Cl
HETATM   25  C   UNL     1      31.386  43.113  56.416  1.00  0.00     0.002 A 
HETATM   26  C   UNL     1      30.610  43.102  55.253  1.00  0.00     0.009 A 
ENDBRANCH  19  20
ENDBRANCH  18  19
ENDBRANCH  15  18
ENDBRANCH  11  12
ENDBRANCH   7  10
ENDBRANCH   1   6
BRANCH   5  27
HETATM   27  C   UNL     1      19.653  47.033  49.215  1.00  0.00     0.296 C 
BRANCH  27  28
HETATM   28  N   UNL     1      19.816  48.465  49.712  1.00  0.00    -0.066 N 
HETATM   29  H   UNL     1      19.931  48.364  50.729  1.00  0.00     0.280 HD
HETATM   30  C   UNL     1      21.072  49.156  49.221  1.00  0.00     0.235 C 
HETATM   31  C   UNL     1      21.248  50.480  49.952  1.00  0.00     0.028 C 
HETATM   32  C   UNL     1      20.017  51.368  49.813  1.00  0.00     0.003 C 
HETATM   33  C   UNL     1      18.762  50.635  50.268  1.00  0.00     0.028 C 
HETATM   34  C   UNL     1      18.582  49.315  49.532  1.00  0.00     0.235 C 
ENDBRANCH  27  28
ENDBRANCH   5  27
BRANCH   4  35
HETATM   35  C   UNL     1      19.121  48.034  46.231  1.00  0.00     0.225 A 
HETATM   36  N   UNL     1      19.282  49.358  46.204  1.00  0.00    -0.081 NA
HETATM   37  O   UNL     1      18.067  49.835  45.709  1.00  0.00    -0.103 OA
HETATM   38  N   UNL     1      17.207  48.790  45.405  1.00  0.00    -0.083 NA
HETATM   39  C   UNL     1      17.856  47.674  45.736  1.00  0.00     0.201 A 
BRANCH  39  40
HETATM   40  N   UNL     1      17.365  46.435  45.574  1.00  0.00    -0.379 N 
HETATM   41  H   UNL     1      16.599  46.276  44.925  1.00  0.00     0.158 HD
HETATM   42  H   UNL     1      17.478  45.701  46.273  1.00  0.00     0.158 HD
ENDBRANCH  39  40
ENDBRANCH   4  35
TORSDOF 10
ENDMDL
MODEL 5
REMARK VINA RESULT:      -9.1     13.230     14.742
REMARK  10 active torsions:
REMARK  status: ('A' for Active; 'I' for Inactive)
REMARK    1  A    between atoms: C_6  and  C_7 
REMARK    2  A    between atoms: C_7  and  O_8 
REMARK    3  A    between atoms: O_8  and  C_9 
REMARK    4  A    between atoms: C_12  and  C_13 
REMARK    5  A    between atoms: N_14  and  N_15 
REMARK       I    between atoms: N_15  and  C_16 
REMARK    6  A    between atoms: C_16  and  C_17 
REMARK    7  A    between atoms: N_20  and  C_21 
REMARK    8  A    between atoms: C_25  and  N_26 
REMARK    9  A    between atoms: C_27  and  C_28 
REMARK   10  A    between atoms: C_28  and  N_29 
ROOT
HETATM    1  C   UNL     1      31.634  51.615  42.303  1.00  0.00     0.170 C 
HETATM    2  N   UNL     1      31.496  52.881  41.821  1.00  0.00    -0.152 NA
HETATM    3  N   UNL     1      30.541  52.870  40.906  1.00  0.00     0.012 NA
HETATM    4  N   UNL     1      30.064  51.605  40.769  1.00  0.00    -0.215 N 
HETATM    5  C   UNL     1      30.650  50.804  41.747  1.00  0.00     0.096 C 
ENDROOT
BRANCH   1   6
HETATM    6  C   UNL     1      32.578  51.257  43.352  1.00  0.00     0.293 C 
HETATM    7  N   UNL     1      33.692  50.529  42.969  1.00  0.00    -0.242 N 
HETATM    8  H   UNL     1      34.320  50.251  43.715  1.00  0.00     0.192 HD
HETATM    9  O   UNL     1      32.335  51.457  44.539  1.00  0.00    -0.264 OA
BRANCH   7  10
HETATM   10  N   UNL     1      34.033  50.357  41.662  1.00  0.00    -0.184 NA
HETATM   11  C   UNL     1      35.216  50.708  41.246  1.00  0.00     0.150 C 
BRANCH  11  12
HETATM   12  C   UNL     1      36.357  51.248  42.003  1.00  0.00    -0.017 A 
HETATM   13  C   UNL     1      36.456  52.639  42.082  1.00  0.00     0.016 A 
HETATM   14  C   UNL     1      37.500  53.214  42.804  1.00  0.00     0.037 A 
HETATM   15  C   UNL     1      38.428  52.411  43.469  1.00  0.00     0.069 A 
HETATM   16  C   UNL     1      38.325  51.021  43.388  1.00  0.00     0.037 A 
HETATM   17  C   UNL     1      37.278  50.435  42.666  1.00  0.00     0.016 A 
BRANCH  15  18
HETATM   18  O   UNL     1      39.392  53.100  44.147  1.00  0.00    -0.347 OA
BRANCH  18  19
HETATM   19  C   UNL     1      38.985  54.295  44.816  1.00  0.00     0.214 C 
BRANCH  19  20
HETATM   20  C   UNL     1      39.299  54.136  46.283  1.00  0.00    -0.033 A 
HETATM   21  C   UNL     1      40.634  54.158  46.718  1.00  0.00     0.033 A 
HETATM   22  C   UNL     1      40.937  54.033  48.073  1.00  0.00     0.034 A 
HETATM   23  C   UNL     1      39.920  53.890  49.012  1.00  0.00     0.024 A 
HETATM   24 CL   UNL     1      42.580  54.063  48.585  1.00  0.00    -0.084 Cl
HETATM   25  C   UNL     1      38.590  53.867  48.592  1.00  0.00     0.002 A 
HETATM   26  C   UNL     1      38.279  53.989  47.234  1.00  0.00     0.009 A 
ENDBRANCH  19  20
ENDBRANCH  18  19
ENDBRANCH  15  18
ENDBRANCH  11  12
ENDBRANCH   7  10
ENDBRANCH   1   6
BRANCH   5  27
HETATM   27  C   UNL     1      30.307  49.407  42.081  1.00  0.00     0.296 C 
BRANCH  27  28
HETATM   28  N   UNL     1      29.773  48.566  40.927  1.00  0.00    -0.066 N 
HETATM   29  H   UNL     1      29.443  49.260  40.243  1.00  0.00     0.280 HD
HETATM   30  C   UNL     1      30.829  47.749  40.209  1.00  0.00     0.235 C 
HETATM   31  C   UNL     1      30.235  47.135  38.949  1.00  0.00     0.028 C 
HETATM   32  C   UNL     1      28.991  46.312  39.257  1.00  0.00     0.003 C 
HETATM   33  C   UNL     1      27.964  47.139  40.019  1.00  0.00     0.028 C 
HETATM   34  C   UNL     1      28.556  47.747  41.283  1.00  0.00     0.235 C 
ENDBRANCH  27  28
ENDBRANCH   5  27
BRANCH   4  35
HETATM   35  C   UNL     1      29.096  51.273  39.791  1.00  0.00     0.225 A 
HETATM   36  N   UNL     1      29.473  50.867  38.577  1.00  0.00    -0.081 NA
HETATM   37  O   UNL     1      28.268  50.655  37.905  1.00  0.00    -0.103 OA
HETATM   38  N   UNL     1      27.184  50.893  38.735  1.00  0.00    -0.083 NA
HETATM   39  C   UNL     1      27.696  51.285  39.901  1.00  0.00     0.201 A 
BRANCH  39  40
HETATM   40  N   UNL     1      26.965  51.594  40.985  1.00  0.00    -0.379 N 
HETATM   41  H   UNL     1      26.569  50.852  41.556  1.00  0.00     0.158 HD
HETATM   42  H   UNL     1      26.509  52.498  41.103  1.00  0.00     0.158 HD
ENDBRANCH  39  40
ENDBRANCH   4  35
TORSDOF 10
ENDMDL
MODEL 6
REMARK VINA RESULT:      -9.1      4.961     10.791
REMARK  10 active torsions:
REMARK  status: ('A' for Active; 'I' for Inactive)
REMARK    1  A    between atoms: C_6  and  C_7 
REMARK    2  A    between atoms: C_7  and  O_8 
REMARK    3  A    between atoms: O_8  and  C_9 
REMARK    4  A    between atoms: C_12  and  C_13 
REMARK    5  A    between atoms: N_14  and  N_15 
REMARK       I    between atoms: N_15  and  C_16 
REMARK    6  A    between atoms: C_16  and  C_17 
REMARK    7  A    between atoms: N_20  and  C_21 
REMARK    8  A    between atoms: C_25  and  N_26 
REMARK    9  A    between atoms: C_27  and  C_28 
REMARK   10  A    between atoms: C_28  and  N_29 
ROOT
HETATM    1  C   UNL     1      23.975  48.642  49.028  1.00  0.00     0.170 C 
HETATM    2  N   UNL     1      25.011  48.644  49.912  1.00  0.00    -0.152 NA
HETATM    3  N   UNL     1      25.108  47.432  50.433  1.00  0.00     0.012 NA
HETATM    4  N   UNL     1      24.134  46.640  49.913  1.00  0.00    -0.215 N 
HETATM    5  C   UNL     1      23.477  47.349  48.909  1.00  0.00     0.096 C 
ENDROOT
BRANCH   1   6
HETATM    6  C   UNL     1      23.594  49.806  48.240  1.00  0.00     0.293 C 
HETATM    7  N   UNL     1      22.710  50.695  48.828  1.00  0.00    -0.242 N 
HETATM    8  H   UNL     1      22.421  51.480  48.254  1.00  0.00     0.192 HD
HETATM    9  O   UNL     1      23.917  49.925  47.061  1.00  0.00    -0.264 OA
BRANCH   7  10
HETATM   10  N   UNL     1      22.394  50.639  50.150  1.00  0.00    -0.184 NA
HETATM   11  C   UNL     1      21.186  50.921  50.544  1.00  0.00     0.150 C 
BRANCH  11  12
HETATM   12  C   UNL     1      19.994  51.266  49.751  1.00  0.00    -0.017 A 
HETATM   13  C   UNL     1      18.770  50.774  50.210  1.00  0.00     0.016 A 
HETATM   14  C   UNL     1      17.601  51.084  49.517  1.00  0.00     0.037 A 
HETATM   15  C   UNL     1      17.643  51.902  48.386  1.00  0.00     0.069 A 
HETATM   16  C   UNL     1      18.869  52.391  47.931  1.00  0.00     0.037 A 
HETATM   17  C   UNL     1      20.048  52.087  48.622  1.00  0.00     0.016 A 
BRANCH  15  18
HETATM   18  O   UNL     1      16.429  52.136  47.810  1.00  0.00    -0.347 OA
BRANCH  18  19
HETATM   19  C   UNL     1      15.425  51.135  47.984  1.00  0.00     0.214 C 
BRANCH  19  20
HETATM   20  C   UNL     1      15.490  50.199  46.802  1.00  0.00    -0.033 A 
HETATM   21  C   UNL     1      16.265  50.543  45.682  1.00  0.00     0.033 A 
HETATM   22  C   UNL     1      16.351  49.679  44.591  1.00  0.00     0.034 A 
HETATM   23  C   UNL     1      15.674  48.463  44.601  1.00  0.00     0.024 A 
HETATM   24 CL   UNL     1      17.305  50.119  43.229  1.00  0.00    -0.084 Cl
HETATM   25  C   UNL     1      14.901  48.111  45.709  1.00  0.00     0.002 A 
HETATM   26  C   UNL     1      14.809  48.974  46.805  1.00  0.00     0.009 A 
ENDBRANCH  19  20
ENDBRANCH  18  19
ENDBRANCH  15  18
ENDBRANCH  11  12
ENDBRANCH   7  10
ENDBRANCH   1   6
BRANCH   5  27
HETATM   27  C   UNL     1      22.467  46.830  47.964  1.00  0.00     0.296 C 
BRANCH  27  28
HETATM   28  N   UNL     1      21.076  47.442  48.085  1.00  0.00    -0.066 N 
HETATM   29  H   UNL     1      21.211  48.245  48.713  1.00  0.00     0.280 HD
HETATM   30  C   UNL     1      20.533  48.016  46.791  1.00  0.00     0.235 C 
HETATM   31  C   UNL     1      19.255  48.794  47.072  1.00  0.00     0.028 C 
HETATM   32  C   UNL     1      18.222  47.939  47.794  1.00  0.00     0.003 C 
HETATM   33  C   UNL     1      18.805  47.335  49.065  1.00  0.00     0.028 C 
HETATM   34  C   UNL     1      20.079  46.550  48.783  1.00  0.00     0.235 C 
ENDBRANCH  27  28
ENDBRANCH   5  27
BRANCH   4  35
HETATM   35  C   UNL     1      23.935  45.310  50.357  1.00  0.00     0.225 A 
HETATM   36  N   UNL     1      23.053  44.518  49.747  1.00  0.00    -0.081 NA
HETATM   37  O   UNL     1      23.123  43.321  50.461  1.00  0.00    -0.103 OA
HETATM   38  N   UNL     1      24.078  43.395  51.464  1.00  0.00    -0.083 NA
HETATM   39  C   UNL     1      24.575  44.630  51.406  1.00  0.00     0.201 A 
BRANCH  39  40
HETATM   40  N   UNL     1      25.547  45.094  52.208  1.00  0.00    -0.379 N 
HETATM   41  H   UNL     1      26.486  45.224  51.840  1.00  0.00     0.158 HD
HETATM   42  H   UNL     1      25.504  45.026  53.224  1.00  0.00     0.158 HD
ENDBRANCH  39  40
ENDBRANCH   4  35
TORSDOF 10
ENDMDL
MODEL 7
REMARK VINA RESULT:      -9.1      2.481      4.676
REMARK  10 active torsions:
REMARK  status: ('A' for Active; 'I' for Inactive)
REMARK    1  A    between atoms: C_6  and  C_7 
REMARK    2  A    between atoms: C_7  and  O_8 
REMARK    3  A    between atoms: O_8  and  C_9 
REMARK    4  A    between atoms: C_12  and  C_13 
REMARK    5  A    between atoms: N_14  and  N_15 
REMARK       I    between atoms: N_15  and  C_16 
REMARK    6  A    between atoms: C_16  and  C_17 
REMARK    7  A    between atoms: N_20  and  C_21 
REMARK    8  A    between atoms: C_25  and  N_26 
REMARK    9  A    between atoms: C_27  and  C_28 
REMARK   10  A    between atoms: C_28  and  N_29 
ROOT
HETATM    1  C   UNL     1      18.063  49.924  49.677  1.00  0.00     0.170 C 
HETATM    2  N   UNL     1      17.858  51.268  49.763  1.00  0.00    -0.152 NA
HETATM    3  N   UNL     1      16.954  51.603  48.858  1.00  0.00     0.012 NA
HETATM    4  N   UNL     1      16.578  50.496  48.167  1.00  0.00    -0.215 N 
HETATM    5  C   UNL     1      17.170  49.382  48.759  1.00  0.00     0.096 C 
ENDROOT
BRANCH   1   6
HETATM    6  C   UNL     1      18.976  49.197  50.548  1.00  0.00     0.293 C 
HETATM    7  N   UNL     1      20.125  48.689  49.964  1.00  0.00    -0.242 N 
HETATM    8  H   UNL     1      20.732  48.151  50.572  1.00  0.00     0.192 HD
HETATM    9  O   UNL     1      18.683  48.917  51.707  1.00  0.00    -0.264 OA
BRANCH   7  10
HETATM   10  N   UNL     1      20.520  49.043  48.711  1.00  0.00    -0.184 NA
HETATM   11  C   UNL     1      21.656  48.615  48.240  1.00  0.00     0.150 C 
BRANCH  11  12
HETATM   12  C   UNL     1      22.640  47.703  48.846  1.00  0.00    -0.017 A 
HETATM   13  C   UNL     1      23.644  48.288  49.621  1.00  0.00     0.016 A 
HETATM   14  C   UNL     1      24.593  47.477  50.241  1.00  0.00     0.037 A 
HETATM   15  C   UNL     1      24.530  46.088  50.116  1.00  0.00     0.069 A 
HETATM   16  C   UNL     1      23.525  45.508  49.340  1.00  0.00     0.037 A 
HETATM   17  C   UNL     1      22.566  46.315  48.715  1.00  0.00     0.016 A 
BRANCH  15  18
HETATM   18  O   UNL     1      25.512  45.413  50.781  1.00  0.00    -0.347 OA
BRANCH  18  19
HETATM   19  C   UNL     1      25.176  44.876  52.062  1.00  0.00     0.214 C 
BRANCH  19  20
HETATM   20  C   UNL     1      26.123  45.469  53.077  1.00  0.00    -0.033 A 
HETATM   21  C   UNL     1      27.222  44.718  53.526  1.00  0.00     0.033 A 
HETATM   22  C   UNL     1      28.116  45.260  54.449  1.00  0.00     0.034 A 
HETATM   23  C   UNL     1      27.934  46.553  54.931  1.00  0.00     0.024 A 
HETATM   24 CL   UNL     1      29.456  44.325  54.987  1.00  0.00    -0.084 Cl
HETATM   25  C   UNL     1      26.845  47.307  54.491  1.00  0.00     0.002 A 
HETATM   26  C   UNL     1      25.943  46.769  53.568  1.00  0.00     0.009 A 
ENDBRANCH  19  20
ENDBRANCH  18  19
ENDBRANCH  15  18
ENDBRANCH  11  12
ENDBRANCH   7  10
ENDBRANCH   1   6
BRANCH   5  27
HETATM   27  C   UNL     1      16.913  47.962  48.447  1.00  0.00     0.296 C 
BRANCH  27  28
HETATM   28  N   UNL     1      18.038  47.231  47.724  1.00  0.00    -0.066 N 
HETATM   29  H   UNL     1      18.892  47.566  48.188  1.00  0.00     0.280 HD
HETATM   30  C   UNL     1      18.028  45.727  47.912  1.00  0.00     0.235 C 
HETATM   31  C   UNL     1      19.308  45.130  47.345  1.00  0.00     0.028 C 
HETATM   32  C   UNL     1      19.513  45.520  45.886  1.00  0.00     0.003 C 
HETATM   33  C   UNL     1      19.472  47.033  45.714  1.00  0.00     0.028 C 
HETATM   34  C   UNL     1      18.188  47.629  46.275  1.00  0.00     0.235 C 
ENDBRANCH  27  28
ENDBRANCH   5  27
BRANCH   4  35
HETATM   35  C   UNL     1      15.687  50.567  47.068  1.00  0.00     0.225 A 
HETATM   36  N   UNL     1      14.920  49.523  46.751  1.00  0.00    -0.081 NA
HETATM   37  O   UNL     1      14.209  49.956  45.631  1.00  0.00    -0.103 OA
HETATM   38  N   UNL     1      14.525  51.269  45.315  1.00  0.00    -0.083 NA
HETATM   39  C   UNL     1      15.448  51.645  46.199  1.00  0.00     0.201 A 
BRANCH  39  40
HETATM   40  N   UNL     1      16.003  52.867  46.243  1.00  0.00    -0.379 N 
HETATM   41  H   UNL     1      16.997  52.977  46.063  1.00  0.00     0.158 HD
HETATM   42  H   UNL     1      15.583  53.646  46.749  1.00  0.00     0.158 HD
ENDBRANCH  39  40
ENDBRANCH   4  35
TORSDOF 10
ENDMDL
MODEL 8
REMARK VINA RESULT:      -9.0      4.533     11.377
REMARK  10 active torsions:
REMARK  status: ('A' for Active; 'I' for Inactive)
REMARK    1  A    between atoms: C_6  and  C_7 
REMARK    2  A    between atoms: C_7  and  O_8 
REMARK    3  A    between atoms: O_8  and  C_9 
REMARK    4  A    between atoms: C_12  and  C_13 
REMARK    5  A    between atoms: N_14  and  N_15 
REMARK       I    between atoms: N_15  and  C_16 
REMARK    6  A    between atoms: C_16  and  C_17 
REMARK    7  A    between atoms: N_20  and  C_21 
REMARK    8  A    between atoms: C_25  and  N_26 
REMARK    9  A    between atoms: C_27  and  C_28 
REMARK   10  A    between atoms: C_28  and  N_29 
ROOT
HETATM    1  C   UNL     1      24.996  43.909  50.499  1.00  0.00     0.170 C 
HETATM    2  N   UNL     1      25.581  43.173  49.514  1.00  0.00    -0.152 NA
HETATM    3  N   UNL     1      26.713  42.679  49.987  1.00  0.00     0.012 NA
HETATM    4  N   UNL     1      26.886  43.100  51.267  1.00  0.00    -0.215 N 
HETATM    5  C   UNL     1      25.737  43.779  51.669  1.00  0.00     0.096 C 
ENDROOT
BRANCH   1   6
HETATM    6  C   UNL     1      23.713  44.580  50.342  1.00  0.00     0.293 C 
HETATM    7  N   UNL     1      23.733  45.964  50.299  1.00  0.00    -0.242 N 
HETATM    8  H   UNL     1      22.830  46.420  50.230  1.00  0.00     0.192 HD
HETATM    9  O   UNL     1      22.650  43.967  50.393  1.00  0.00    -0.264 OA
BRANCH   7  10
HETATM   10  N   UNL     1      24.889  46.670  50.161  1.00  0.00    -0.184 NA
HETATM   11  C   UNL     1      24.888  47.803  49.519  1.00  0.00     0.150 C 
BRANCH  11  12
HETATM   12  C   UNL     1      23.767  48.541  48.915  1.00  0.00    -0.017 A 
HETATM   13  C   UNL     1      22.736  47.775  48.365  1.00  0.00     0.016 A 
HETATM   14  C   UNL     1      21.633  48.413  47.798  1.00  0.00     0.037 A 
HETATM   15  C   UNL     1      21.541  49.806  47.802  1.00  0.00     0.069 A 
HETATM   16  C   UNL     1      22.573  50.567  48.354  1.00  0.00     0.037 A 
HETATM   17  C   UNL     1      23.684  49.934  48.927  1.00  0.00     0.016 A 
BRANCH  15  18
HETATM   18  O   UNL     1      20.407  50.301  47.227  1.00  0.00    -0.347 OA
BRANCH  18  19
HETATM   19  C   UNL     1      19.368  49.365  46.931  1.00  0.00     0.214 C 
BRANCH  19  20
HETATM   20  C   UNL     1      18.073  49.925  47.467  1.00  0.00    -0.033 A 
HETATM   21  C   UNL     1      18.099  50.984  48.389  1.00  0.00     0.033 A 
HETATM   22  C   UNL     1      16.910  51.524  48.877  1.00  0.00     0.034 A 
HETATM   23  C   UNL     1      15.682  51.024  48.452  1.00  0.00     0.024 A 
HETATM   24 CL   UNL     1      16.963  52.821  50.006  1.00  0.00    -0.084 Cl
HETATM   25  C   UNL     1      15.645  49.972  47.536  1.00  0.00     0.002 A 
HETATM   26  C   UNL     1      16.834  49.424  47.045  1.00  0.00     0.009 A 
ENDBRANCH  19  20
ENDBRANCH  18  19
ENDBRANCH  15  18
ENDBRANCH  11  12
ENDBRANCH   7  10
ENDBRANCH   1   6
BRANCH   5  27
HETATM   27  C   UNL     1      25.414  44.262  53.027  1.00  0.00     0.296 C 
BRANCH  27  28
HETATM   28  N   UNL     1      26.455  45.171  53.668  1.00  0.00    -0.066 N 
HETATM   29  H   UNL     1      27.199  45.237  52.960  1.00  0.00     0.280 HD
HETATM   30  C   UNL     1      25.983  46.592  53.903  1.00  0.00     0.235 C 
HETATM   31  C   UNL     1      27.158  47.460  54.328  1.00  0.00     0.028 C 
HETATM   32  C   UNL     1      27.869  46.887  55.548  1.00  0.00     0.003 C 
HETATM   33  C   UNL     1      28.293  45.444  55.306  1.00  0.00     0.028 C 
HETATM   34  C   UNL     1      27.116  44.574  54.887  1.00  0.00     0.235 C 
ENDBRANCH  27  28
ENDBRANCH   5  27
BRANCH   4  35
HETATM   35  C   UNL     1      28.061  42.803  51.999  1.00  0.00     0.225 A 
HETATM   36  N   UNL     1      29.084  43.659  52.013  1.00  0.00    -0.081 NA
HETATM   37  O   UNL     1      30.041  43.026  52.807  1.00  0.00    -0.103 OA
HETATM   38  N   UNL     1      29.566  41.818  53.295  1.00  0.00    -0.083 NA
HETATM   39  C   UNL     1      28.342  41.675  52.788  1.00  0.00     0.201 A 
BRANCH  39  40
HETATM   40  N   UNL     1      27.534  40.633  53.041  1.00  0.00    -0.379 N 
HETATM   41  H   UNL     1      27.556  40.187  53.955  1.00  0.00     0.158 HD
HETATM   42  H   UNL     1      27.133  40.054  52.305  1.00  0.00     0.158 HD
ENDBRANCH  39  40
ENDBRANCH   4  35
TORSDOF 10
ENDMDL
MODEL 9
REMARK VINA RESULT:      -8.9      2.329      3.131
REMARK  10 active torsions:
REMARK  status: ('A' for Active; 'I' for Inactive)
REMARK    1  A    between atoms: C_6  and  C_7 
REMARK    2  A    between atoms: C_7  and  O_8 
REMARK    3  A    between atoms: O_8  and  C_9 
REMARK    4  A    between atoms: C_12  and  C_13 
REMARK    5  A    between atoms: N_14  and  N_15 
REMARK       I    between atoms: N_15  and  C_16 
REMARK    6  A    between atoms: C_16  and  C_17 
REMARK    7  A    between atoms: N_20  and  C_21 
REMARK    8  A    between atoms: C_25  and  N_26 
REMARK    9  A    between atoms: C_27  and  C_28 
REMARK   10  A    between atoms: C_28  and  N_29 
ROOT
HETATM    1  C   UNL     1      18.692  46.740  48.178  1.00  0.00     0.170 C 
HETATM    2  N   UNL     1      18.281  45.444  48.253  1.00  0.00    -0.152 NA
HETATM    3  N   UNL     1      17.595  45.168  47.157  1.00  0.00     0.012 NA
HETATM    4  N   UNL     1      17.535  46.276  46.373  1.00  0.00    -0.215 N 
HETATM    5  C   UNL     1      18.344  47.261  46.936  1.00  0.00     0.096 C 
ENDROOT
BRANCH   1   6
HETATM    6  C   UNL     1      19.504  47.383  49.203  1.00  0.00     0.293 C 
HETATM    7  N   UNL     1      20.865  47.130  49.171  1.00  0.00    -0.242 N 
HETATM    8  H   UNL     1      21.413  47.550  49.914  1.00  0.00     0.192 HD
HETATM    9  O   UNL     1      19.000  48.000  50.137  1.00  0.00    -0.264 OA
BRANCH   7  10
HETATM   10  N   UNL     1      21.466  46.519  48.113  1.00  0.00    -0.184 NA
HETATM   11  C   UNL     1      22.670  46.038  48.236  1.00  0.00     0.150 C 
BRANCH  11  12
HETATM   12  C   UNL     1      23.544  45.983  49.420  1.00  0.00    -0.017 A 
HETATM   13  C   UNL     1      24.221  47.158  49.755  1.00  0.00     0.016 A 
HETATM   14  C   UNL     1      25.046  47.179  50.879  1.00  0.00     0.037 A 
HETATM   15  C   UNL     1      25.177  46.045  51.683  1.00  0.00     0.069 A 
HETATM   16  C   UNL     1      24.498  44.873  51.344  1.00  0.00     0.037 A 
HETATM   17  C   UNL     1      23.666  44.844  50.218  1.00  0.00     0.016 A 
BRANCH  15  18
HETATM   18  O   UNL     1      26.005  46.204  52.755  1.00  0.00    -0.347 OA
BRANCH  18  19
HETATM   19  C   UNL     1      25.779  45.353  53.881  1.00  0.00     0.214 C 
BRANCH  19  20
HETATM   20  C   UNL     1      27.053  44.593  54.153  1.00  0.00    -0.033 A 
HETATM   21  C   UNL     1      27.164  43.251  53.752  1.00  0.00     0.033 A 
HETATM   22  C   UNL     1      28.343  42.542  53.979  1.00  0.00     0.034 A 
HETATM   23  C   UNL     1      29.426  43.156  54.601  1.00  0.00     0.024 A 
HETATM   24 CL   UNL     1      28.459  40.900  53.479  1.00  0.00    -0.084 Cl
HETATM   25  C   UNL     1      29.327  44.489  55.004  1.00  0.00     0.002 A 
HETATM   26  C   UNL     1      28.147  45.205  54.782  1.00  0.00     0.009 A 
ENDBRANCH  19  20
ENDBRANCH  18  19
ENDBRANCH  15  18
ENDBRANCH  11  12
ENDBRANCH   7  10
ENDBRANCH   1   6
BRANCH   5  27
HETATM   27  C   UNL     1      18.711  48.562  46.342  1.00  0.00     0.296 C 
BRANCH  27  28
HETATM   28  N   UNL     1      18.828  49.724  47.322  1.00  0.00    -0.066 N 
HETATM   29  H   UNL     1      18.755  49.279  48.247  1.00  0.00     0.280 HD
HETATM   30  C   UNL     1      20.174  50.422  47.305  1.00  0.00     0.235 C 
HETATM   31  C   UNL     1      20.258  51.403  48.465  1.00  0.00     0.028 C 
HETATM   32  C   UNL     1      19.101  52.395  48.449  1.00  0.00     0.003 C 
HETATM   33  C   UNL     1      17.762  51.672  48.419  1.00  0.00     0.028 C 
HETATM   34  C   UNL     1      17.674  50.695  47.254  1.00  0.00     0.235 C 
ENDBRANCH  27  28
ENDBRANCH   5  27
BRANCH   4  35
HETATM   35  C   UNL     1      16.782  46.303  45.174  1.00  0.00     0.225 A 
HETATM   36  N   UNL     1      17.211  45.656  44.090  1.00  0.00    -0.081 NA
HETATM   37  O   UNL     1      16.236  45.924  43.128  1.00  0.00    -0.103 OA
HETATM   38  N   UNL     1      15.211  46.693  43.659  1.00  0.00    -0.083 NA
HETATM   39  C   UNL     1      15.553  46.937  44.923  1.00  0.00     0.201 A 
BRANCH  39  40
HETATM   40  N   UNL     1      14.805  47.640  45.789  1.00  0.00    -0.379 N 
HETATM   41  H   UNL     1      15.131  47.777  46.743  1.00  0.00     0.158 HD
HETATM   42  H   UNL     1      13.802  47.775  45.669  1.00  0.00     0.158 HD
ENDBRANCH  39  40
ENDBRANCH   4  35
TORSDOF 10
ENDMDL
MODEL 10
REMARK VINA RESULT:      -8.8     13.768     15.282
REMARK  10 active torsions:
REMARK  status: ('A' for Active; 'I' for Inactive)
REMARK    1  A    between atoms: C_6  and  C_7 
REMARK    2  A    between atoms: C_7  and  O_8 
REMARK    3  A    between atoms: O_8  and  C_9 
REMARK    4  A    between atoms: C_12  and  C_13 
REMARK    5  A    between atoms: N_14  and  N_15 
REMARK       I    between atoms: N_15  and  C_16 
REMARK    6  A    between atoms: C_16  and  C_17 
REMARK    7  A    between atoms: N_20  and  C_21 
REMARK    8  A    between atoms: C_25  and  N_26 
REMARK    9  A    between atoms: C_27  and  C_28 
REMARK   10  A    between atoms: C_28  and  N_29 
ROOT
HETATM    1  C   UNL     1      32.864  51.871  40.591  1.00  0.00     0.170 C 
HETATM    2  N   UNL     1      32.794  52.292  41.884  1.00  0.00    -0.152 NA
HETATM    3  N   UNL     1      31.616  51.934  42.369  1.00  0.00     0.012 NA
HETATM    4  N   UNL     1      30.906  51.299  41.400  1.00  0.00    -0.215 N 
HETATM    5  C   UNL     1      31.731  51.123  40.290  1.00  0.00     0.096 C 
ENDROOT
BRANCH   1   6
HETATM    6  C   UNL     1      34.036  52.066  39.749  1.00  0.00     0.293 C 
HETATM    7  N   UNL     1      35.140  51.276  40.021  1.00  0.00    -0.242 N 
HETATM    8  H   UNL     1      35.962  51.450  39.455  1.00  0.00     0.192 HD
HETATM    9  O   UNL     1      34.104  52.982  38.933  1.00  0.00    -0.264 OA
BRANCH   7  10
HETATM   10  N   UNL     1      35.078  50.205  40.859  1.00  0.00    -0.184 NA
HETATM   11  C   UNL     1      35.723  50.223  41.990  1.00  0.00     0.150 C 
BRANCH  11  12
HETATM   12  C   UNL     1      36.525  51.297  42.597  1.00  0.00    -0.017 A 
HETATM   13  C   UNL     1      37.862  51.382  42.201  1.00  0.00     0.016 A 
HETATM   14  C   UNL     1      38.670  52.393  42.721  1.00  0.00     0.037 A 
HETATM   15  C   UNL     1      38.146  53.332  43.610  1.00  0.00     0.069 A 
HETATM   16  C   UNL     1      36.809  53.243  44.003  1.00  0.00     0.037 A 
HETATM   17  C   UNL     1      35.989  52.233  43.484  1.00  0.00     0.016 A 
BRANCH  15  18
HETATM   18  O   UNL     1      39.039  54.272  44.034  1.00  0.00    -0.347 OA
BRANCH  18  19
HETATM   19  C   UNL     1      38.584  55.202  45.019  1.00  0.00     0.214 C 
BRANCH  19  20
HETATM   20  C   UNL     1      39.079  54.733  46.365  1.00  0.00    -0.033 A 
HETATM   21  C   UNL     1      40.453  54.772  46.656  1.00  0.00     0.033 A 
HETATM   22  C   UNL     1      40.922  54.361  47.903  1.00  0.00     0.034 A 
HETATM   23  C   UNL     1      40.034  53.913  48.877  1.00  0.00     0.024 A 
HETATM   24 CL   UNL     1      42.608  54.416  48.239  1.00  0.00    -0.084 Cl
HETATM   25  C   UNL     1      38.667  53.870  48.599  1.00  0.00     0.002 A 
HETATM   26  C   UNL     1      38.191  54.278  47.349  1.00  0.00     0.009 A 
ENDBRANCH  19  20
ENDBRANCH  18  19
ENDBRANCH  15  18
ENDBRANCH  11  12
ENDBRANCH   7  10
ENDBRANCH   1   6
BRANCH   5  27
HETATM   27  C   UNL     1      31.436  50.339  39.073  1.00  0.00     0.296 C 
BRANCH  27  28
HETATM   28  N   UNL     1      30.396  49.236  39.236  1.00  0.00    -0.066 N 
HETATM   29  H   UNL     1      30.112  49.305  40.222  1.00  0.00     0.280 HD
HETATM   30  C   UNL     1      29.132  49.446  38.426  1.00  0.00     0.235 C 
HETATM   31  C   UNL     1      28.085  48.420  38.834  1.00  0.00     0.028 C 
HETATM   32  C   UNL     1      28.613  46.996  38.708  1.00  0.00     0.003 C 
HETATM   33  C   UNL     1      29.908  46.822  39.491  1.00  0.00     0.028 C 
HETATM   34  C   UNL     1      30.958  47.844  39.078  1.00  0.00     0.235 C 
ENDBRANCH  27  28
ENDBRANCH   5  27
BRANCH   4  35
HETATM   35  C   UNL     1      29.568  50.885  41.604  1.00  0.00     0.225 A 
HETATM   36  N   UNL     1      29.301  49.667  42.076  1.00  0.00    -0.081 NA
HETATM   37  O   UNL     1      27.907  49.621  42.124  1.00  0.00    -0.103 OA
HETATM   38  N   UNL     1      27.354  50.827  41.720  1.00  0.00    -0.083 NA
HETATM   39  C   UNL     1      28.382  51.607  41.389  1.00  0.00     0.201 A 
BRANCH  39  40
HETATM   40  N   UNL     1      28.264  52.875  40.963  1.00  0.00    -0.379 N 
HETATM   41  H   UNL     1      28.552  53.120  40.018  1.00  0.00     0.158 HD
HETATM   42  H   UNL     1      28.212  53.669  41.600  1.00  0.00     0.158 HD
ENDBRANCH  39  40
ENDBRANCH   4  35
TORSDOF 10
ENDMDL
