MODEL 1
REMARK VINA RESULT:      -9.4      0.000      0.000
REMARK  6 active torsions:
REMARK  status: ('A' for Active; 'I' for Inactive)
REMARK    1  A    between atoms: C_3  and  N_4 
REMARK       I    between atoms: N_4  and  C_5 
REMARK       I    between atoms: C_5  and  N_6 
REMARK    2  A    between atoms: N_6  and  C_7 
REMARK    3  A    between atoms: C_7  and  C_8 
REMARK    4  A    between atoms: C_10  and  C_11 
REMARK       I    between atoms: C_11  and  N_12 
REMARK    5  A    between atoms: N_12  and  C_13 
REMARK    6  A    between atoms: C_13  and  C_14 
ROOT
HETATM    1  C   UNL     1      24.904  46.684  50.933  1.00  0.00    -0.040 A 
HETATM    2  C   UNL     1      25.524  47.092  52.125  1.00  0.00     0.026 A 
HETATM    3  C   UNL     1      25.833  46.163  53.126  1.00  0.00     0.032 A 
HETATM    4  C   UNL     1      25.480  44.822  52.955  1.00  0.00     0.017 A 
HETATM    5  C   UNL     1      24.862  44.407  51.773  1.00  0.00     0.002 A 
HETATM    6  C   UNL     1      24.587  45.330  50.763  1.00  0.00     0.009 A 
ENDROOT
BRANCH   1   7
HETATM    7  C   UNL     1      24.627  47.695  49.849  1.00  0.00     0.162 C 
BRANCH   7   8
HETATM    8  N   UNL     1      23.209  47.874  49.611  1.00  0.00    -0.339 N 
HETATM    9  C   UNL     1      22.656  49.142  49.580  1.00  0.00     0.321 C 
HETATM   10  N   UNL     1      21.294  49.057  49.405  1.00  0.00    -0.307 N 
HETATM   11  O   UNL     1      23.325  50.161  49.663  1.00  0.00    -0.247 OA
HETATM   12  H   UNL     1      21.025  48.213  48.919  1.00  0.00     0.170 HD
HETATM   13  H   UNL     1      22.607  47.170  50.011  1.00  0.00     0.164 HD
BRANCH  10  14
HETATM   14  C   UNL     1      20.331  50.094  49.407  1.00  0.00     0.059 A 
HETATM   15  C   UNL     1      19.144  50.156  50.152  1.00  0.00    -0.032 A 
HETATM   16  C   UNL     1      18.637  49.085  51.073  1.00  0.00     0.050 C 
HETATM   17  C   UNL     1      18.338  51.306  50.024  1.00  0.00     0.028 A 
HETATM   18  C   UNL     1      18.696  52.306  49.137  1.00  0.00     0.117 A 
HETATM   19  N   UNL     1      19.796  52.253  48.367  1.00  0.00    -0.271 NA
HETATM   20  C   UNL     1      20.575  51.158  48.525  1.00  0.00     0.146 A 
ENDBRANCH  10  14
ENDBRANCH   7   8
ENDBRANCH   1   7
BRANCH   3  21
HETATM   21  C   UNL     1      26.517  46.572  54.383  1.00  0.00     0.252 C 
HETATM   22  N   UNL     1      27.666  45.888  54.700  1.00  0.00    -0.351 N 
HETATM   23  H   UNL     1      28.006  45.130  54.120  1.00  0.00     0.163 HD
HETATM   24  O   UNL     1      26.046  47.462  55.083  1.00  0.00    -0.268 OA
BRANCH  22  25
HETATM   25  C   UNL     1      28.472  46.262  55.836  1.00  0.00     0.187 C 
BRANCH  25  26
HETATM   26  C   UNL     1      29.558  45.266  56.020  1.00  0.00     0.070 A 
HETATM   27  O   UNL     1      29.616  44.235  55.124  1.00  0.00    -0.325 OA
HETATM   28  C   UNL     1      30.662  43.451  55.486  1.00  0.00     0.142 A 
HETATM   29  C   UNL     1      31.290  43.966  56.595  1.00  0.00     0.027 A 
HETATM   30  C   UNL     1      30.578  45.140  56.941  1.00  0.00     0.036 A 
ENDBRANCH  25  26
ENDBRANCH  22  25
ENDBRANCH   3  21
TORSDOF 6
ENDMDL
MODEL 2
REMARK VINA RESULT:      -9.1      1.846     10.722
REMARK  6 active torsions:
REMARK  status: ('A' for Active; 'I' for Inactive)
REMARK    1  A    between atoms: C_3  and  N_4 
REMARK       I    between atoms: N_4  and  C_5 
REMARK       I    between atoms: C_5  and  N_6 
REMARK    2  A    between atoms: N_6  and  C_7 
REMARK    3  A    between atoms: C_7  and  C_8 
REMARK    4  A    between atoms: C_10  and  C_11 
REMARK       I    between atoms: C_11  and  N_12 
REMARK    5  A    between atoms: N_12  and  C_13 
REMARK    6  A    between atoms: C_13  and  C_14 
ROOT
HETATM    1  C   UNL     1      25.675  46.357  52.350  1.00  0.00    -0.040 A 
HETATM    2  C   UNL     1      24.939  47.266  51.574  1.00  0.00     0.026 A 
HETATM    3  C   UNL     1      24.752  47.051  50.204  1.00  0.00     0.032 A 
HETATM    4  C   UNL     1      25.342  45.941  49.593  1.00  0.00     0.017 A 
HETATM    5  C   UNL     1      26.077  45.031  50.356  1.00  0.00     0.002 A 
HETATM    6  C   UNL     1      26.233  45.231  51.729  1.00  0.00     0.009 A 
ENDROOT
BRANCH   1   7
HETATM    7  C   UNL     1      25.822  46.584  53.834  1.00  0.00     0.162 C 
BRANCH   7   8
HETATM    8  N   UNL     1      27.208  46.637  54.251  1.00  0.00    -0.339 N 
HETATM    9  C   UNL     1      27.775  45.580  54.943  1.00  0.00     0.321 C 
HETATM   10  N   UNL     1      29.072  45.885  55.286  1.00  0.00    -0.307 N 
HETATM   11  O   UNL     1      27.182  44.535  55.160  1.00  0.00    -0.247 OA
HETATM   12  H   UNL     1      29.488  46.549  54.648  1.00  0.00     0.170 HD
HETATM   13  H   UNL     1      27.544  47.544  54.535  1.00  0.00     0.164 HD
BRANCH  10  14
HETATM   14  C   UNL     1      29.983  45.138  56.070  1.00  0.00     0.059 A 
HETATM   15  C   UNL     1      30.626  43.940  55.723  1.00  0.00    -0.032 A 
HETATM   16  C   UNL     1      30.427  43.185  54.441  1.00  0.00     0.050 C 
HETATM   17  C   UNL     1      31.526  43.376  56.650  1.00  0.00     0.028 A 
HETATM   18  C   UNL     1      31.708  43.971  57.887  1.00  0.00     0.117 A 
HETATM   19  N   UNL     1      31.065  45.086  58.273  1.00  0.00    -0.271 NA
HETATM   20  C   UNL     1      30.229  45.632  57.360  1.00  0.00     0.146 A 
ENDBRANCH  10  14
ENDBRANCH   7   8
ENDBRANCH   1   7
BRANCH   3  21
HETATM   21  C   UNL     1      23.949  47.988  49.372  1.00  0.00     0.252 C 
HETATM   22  N   UNL     1      22.598  47.746  49.315  1.00  0.00    -0.351 N 
HETATM   23  H   UNL     1      22.183  46.955  49.794  1.00  0.00     0.163 HD
HETATM   24  O   UNL     1      24.497  48.904  48.767  1.00  0.00    -0.268 OA
BRANCH  22  25
HETATM   25  C   UNL     1      21.703  48.644  48.626  1.00  0.00     0.187 C 
BRANCH  25  26
HETATM   26  C   UNL     1      20.411  48.708  49.355  1.00  0.00     0.070 A 
HETATM   27  O   UNL     1      20.173  49.826  50.104  1.00  0.00    -0.325 OA
HETATM   28  C   UNL     1      18.957  49.667  50.684  1.00  0.00     0.142 A 
HETATM   29  C   UNL     1      18.398  48.468  50.311  1.00  0.00     0.027 A 
HETATM   30  C   UNL     1      19.337  47.846  49.451  1.00  0.00     0.036 A 
ENDBRANCH  25  26
ENDBRANCH  22  25
ENDBRANCH   3  21
TORSDOF 6
ENDMDL
MODEL 3
REMARK VINA RESULT:      -9.0      4.823      9.965
REMARK  6 active torsions:
REMARK  status: ('A' for Active; 'I' for Inactive)
REMARK    1  A    between atoms: C_3  and  N_4 
REMARK       I    between atoms: N_4  and  C_5 
REMARK       I    between atoms: C_5  and  N_6 
REMARK    2  A    between atoms: N_6  and  C_7 
REMARK    3  A    between atoms: C_7  and  C_8 
REMARK    4  A    between atoms: C_10  and  C_11 
REMARK       I    between atoms: C_11  and  N_12 
REMARK    5  A    between atoms: N_12  and  C_13 
REMARK    6  A    between atoms: C_13  and  C_14 
ROOT
HETATM    1  C   UNL     1      27.771  43.555  53.889  1.00  0.00    -0.040 A 
HETATM    2  C   UNL     1      26.888  44.386  53.181  1.00  0.00     0.026 A 
HETATM    3  C   UNL     1      26.873  45.768  53.400  1.00  0.00     0.032 A 
HETATM    4  C   UNL     1      27.716  46.322  54.368  1.00  0.00     0.017 A 
HETATM    5  C   UNL     1      28.597  45.504  55.078  1.00  0.00     0.002 A 
HETATM    6  C   UNL     1      28.633  44.131  54.832  1.00  0.00     0.009 A 
ENDROOT
BRANCH   1   7
HETATM    7  C   UNL     1      27.803  42.076  53.599  1.00  0.00     0.162 C 
BRANCH   7   8
HETATM    8  N   UNL     1      28.507  41.769  52.370  1.00  0.00    -0.339 N 
HETATM    9  C   UNL     1      27.901  41.011  51.383  1.00  0.00     0.321 C 
HETATM   10  N   UNL     1      28.782  40.798  50.348  1.00  0.00    -0.307 N 
HETATM   11  O   UNL     1      26.740  40.641  51.450  1.00  0.00    -0.247 OA
HETATM   12  H   UNL     1      29.473  41.531  50.279  1.00  0.00     0.170 HD
HETATM   13  H   UNL     1      29.499  41.609  52.465  1.00  0.00     0.164 HD
BRANCH  10  14
HETATM   14  C   UNL     1      28.613  40.007  49.186  1.00  0.00     0.059 A 
HETATM   15  C   UNL     1      29.016  38.677  48.993  1.00  0.00    -0.032 A 
HETATM   16  C   UNL     1      29.763  37.840  49.989  1.00  0.00     0.050 C 
HETATM   17  C   UNL     1      28.719  38.065  47.758  1.00  0.00     0.028 A 
HETATM   18  C   UNL     1      28.099  38.793  46.757  1.00  0.00     0.117 A 
HETATM   19  N   UNL     1      27.751  40.085  46.889  1.00  0.00    -0.271 NA
HETATM   20  C   UNL     1      28.015  40.647  48.090  1.00  0.00     0.146 A 
ENDBRANCH  10  14
ENDBRANCH   7   8
ENDBRANCH   1   7
BRANCH   3  21
HETATM   21  C   UNL     1      25.965  46.668  52.637  1.00  0.00     0.252 C 
HETATM   22  N   UNL     1      25.817  46.390  51.300  1.00  0.00    -0.351 N 
HETATM   23  H   UNL     1      26.322  45.629  50.859  1.00  0.00     0.163 HD
HETATM   24  O   UNL     1      25.410  47.607  53.197  1.00  0.00    -0.268 OA
BRANCH  22  25
HETATM   25  C   UNL     1      24.886  47.125  50.479  1.00  0.00     0.187 C 
BRANCH  25  26
HETATM   26  C   UNL     1      25.623  48.142  49.687  1.00  0.00     0.070 A 
HETATM   27  O   UNL     1      24.879  48.990  48.914  1.00  0.00    -0.325 OA
HETATM   28  C   UNL     1      25.747  49.815  48.277  1.00  0.00     0.142 A 
HETATM   29  C   UNL     1      27.042  49.523  48.637  1.00  0.00     0.027 A 
HETATM   30  C   UNL     1      26.964  48.443  49.549  1.00  0.00     0.036 A 
ENDBRANCH  25  26
ENDBRANCH  22  25
ENDBRANCH   3  21
TORSDOF 6
ENDMDL
MODEL 4
REMARK VINA RESULT:      -8.8      1.820      2.503
REMARK  6 active torsions:
REMARK  status: ('A' for Active; 'I' for Inactive)
REMARK    1  A    between atoms: C_3  and  N_4 
REMARK       I    between atoms: N_4  and  C_5 
REMARK       I    between atoms: C_5  and  N_6 
REMARK    2  A    between atoms: N_6  and  C_7 
REMARK    3  A    between atoms: C_7  and  C_8 
REMARK    4  A    between atoms: C_10  and  C_11 
REMARK       I    between atoms: C_11  and  N_12 
REMARK    5  A    between atoms: N_12  and  C_13 
REMARK    6  A    between atoms: C_13  and  C_14 
ROOT
HETATM    1  C   UNL     1      24.426  44.545  49.517  1.00  0.00    -0.040 A 
HETATM    2  C   UNL     1      24.732  44.894  50.841  1.00  0.00     0.026 A 
HETATM    3  C   UNL     1      25.352  43.978  51.699  1.00  0.00     0.032 A 
HETATM    4  C   UNL     1      25.631  42.687  51.243  1.00  0.00     0.017 A 
HETATM    5  C   UNL     1      25.330  42.329  49.927  1.00  0.00     0.002 A 
HETATM    6  C   UNL     1      24.742  43.257  49.065  1.00  0.00     0.009 A 
ENDROOT
BRANCH   1   7
HETATM    7  C   UNL     1      23.803  45.565  48.597  1.00  0.00     0.162 C 
BRANCH   7   8
HETATM    8  N   UNL     1      22.986  46.526  49.311  1.00  0.00    -0.339 N 
HETATM    9  C   UNL     1      22.247  47.471  48.621  1.00  0.00     0.321 C 
HETATM   10  N   UNL     1      21.610  48.308  49.507  1.00  0.00    -0.307 N 
HETATM   11  O   UNL     1      22.174  47.496  47.402  1.00  0.00    -0.247 OA
HETATM   12  H   UNL     1      21.433  47.859  50.395  1.00  0.00     0.170 HD
HETATM   13  H   UNL     1      23.365  46.855  50.186  1.00  0.00     0.164 HD
BRANCH  10  14
HETATM   14  C   UNL     1      20.831  49.459  49.240  1.00  0.00     0.059 A 
HETATM   15  C   UNL     1      21.285  50.720  48.824  1.00  0.00    -0.032 A 
HETATM   16  C   UNL     1      22.722  51.106  48.626  1.00  0.00     0.050 C 
HETATM   17  C   UNL     1      20.327  51.726  48.583  1.00  0.00     0.028 A 
HETATM   18  C   UNL     1      18.986  51.473  48.816  1.00  0.00     0.117 A 
HETATM   19  N   UNL     1      18.523  50.296  49.269  1.00  0.00    -0.271 NA
HETATM   20  C   UNL     1      19.452  49.332  49.465  1.00  0.00     0.146 A 
ENDBRANCH  10  14
ENDBRANCH   7   8
ENDBRANCH   1   7
BRANCH   3  21
HETATM   21  C   UNL     1      25.711  44.341  53.097  1.00  0.00     0.252 C 
HETATM   22  N   UNL     1      26.991  44.800  53.297  1.00  0.00    -0.351 N 
HETATM   23  H   UNL     1      27.656  44.859  52.534  1.00  0.00     0.163 HD
HETATM   24  O   UNL     1      24.893  44.208  54.001  1.00  0.00    -0.268 OA
BRANCH  22  25
HETATM   25  C   UNL     1      27.423  45.279  54.587  1.00  0.00     0.187 C 
BRANCH  25  26
HETATM   26  C   UNL     1      28.718  44.644  54.941  1.00  0.00     0.070 A 
HETATM   27  O   UNL     1      29.471  45.257  55.903  1.00  0.00    -0.325 OA
HETATM   28  C   UNL     1      30.601  44.523  56.055  1.00  0.00     0.142 A 
HETATM   29  C   UNL     1      30.585  43.434  55.215  1.00  0.00     0.027 A 
HETATM   30  C   UNL     1      29.368  43.511  54.494  1.00  0.00     0.036 A 
ENDBRANCH  25  26
ENDBRANCH  22  25
ENDBRANCH   3  21
TORSDOF 6
ENDMDL
MODEL 5
REMARK VINA RESULT:      -8.7      4.782      9.739
REMARK  6 active torsions:
REMARK  status: ('A' for Active; 'I' for Inactive)
REMARK    1  A    between atoms: C_3  and  N_4 
REMARK       I    between atoms: N_4  and  C_5 
REMARK       I    between atoms: C_5  and  N_6 
REMARK    2  A    between atoms: N_6  and  C_7 
REMARK    3  A    between atoms: C_7  and  C_8 
REMARK    4  A    between atoms: C_10  and  C_11 
REMARK       I    between atoms: C_11  and  N_12 
REMARK    5  A    between atoms: N_12  and  C_13 
REMARK    6  A    between atoms: C_13  and  C_14 
ROOT
HETATM    1  C   UNL     1      28.812  42.397  54.058  1.00  0.00    -0.040 A 
HETATM    2  C   UNL     1      27.960  43.501  53.897  1.00  0.00     0.026 A 
HETATM    3  C   UNL     1      28.301  44.752  54.424  1.00  0.00     0.032 A 
HETATM    4  C   UNL     1      29.484  44.893  55.155  1.00  0.00     0.017 A 
HETATM    5  C   UNL     1      30.338  43.801  55.321  1.00  0.00     0.002 A 
HETATM    6  C   UNL     1      30.010  42.563  54.765  1.00  0.00     0.009 A 
ENDROOT
BRANCH   1   7
HETATM    7  C   UNL     1      28.446  41.072  53.439  1.00  0.00     0.162 C 
BRANCH   7   8
HETATM    8  N   UNL     1      28.985  40.918  52.102  1.00  0.00    -0.339 N 
HETATM    9  C   UNL     1      28.148  40.648  51.033  1.00  0.00     0.321 C 
HETATM   10  N   UNL     1      28.890  40.481  49.887  1.00  0.00    -0.307 N 
HETATM   11  O   UNL     1      26.932  40.609  51.136  1.00  0.00    -0.247 OA
HETATM   12  H   UNL     1      29.765  40.985  49.923  1.00  0.00     0.170 HD
HETATM   13  H   UNL     1      29.887  40.471  52.046  1.00  0.00     0.164 HD
BRANCH  10  14
HETATM   14  C   UNL     1      28.455  40.104  48.594  1.00  0.00     0.059 A 
HETATM   15  C   UNL     1      28.150  38.813  48.138  1.00  0.00    -0.032 A 
HETATM   16  C   UNL     1      28.277  37.552  48.943  1.00  0.00     0.050 C 
HETATM   17  C   UNL     1      27.701  38.665  46.810  1.00  0.00     0.028 A 
HETATM   18  C   UNL     1      27.629  39.769  45.978  1.00  0.00     0.117 A 
HETATM   19  N   UNL     1      27.967  41.011  46.365  1.00  0.00    -0.271 NA
HETATM   20  C   UNL     1      28.366  41.140  47.652  1.00  0.00     0.146 A 
ENDBRANCH  10  14
ENDBRANCH   7   8
ENDBRANCH   1   7
BRANCH   3  21
HETATM   21  C   UNL     1      27.425  45.941  54.238  1.00  0.00     0.252 C 
HETATM   22  N   UNL     1      26.622  45.936  53.123  1.00  0.00    -0.351 N 
HETATM   23  H   UNL     1      26.651  45.174  52.455  1.00  0.00     0.163 HD
HETATM   24  O   UNL     1      27.455  46.865  55.044  1.00  0.00    -0.268 OA
BRANCH  22  25
HETATM   25  C   UNL     1      25.656  46.981  52.890  1.00  0.00     0.187 C 
BRANCH  25  26
HETATM   26  C   UNL     1      25.029  46.786  51.558  1.00  0.00     0.070 A 
HETATM   27  O   UNL     1      24.681  47.910  50.862  1.00  0.00    -0.325 OA
HETATM   28  C   UNL     1      24.122  47.500  49.695  1.00  0.00     0.142 A 
HETATM   29  C   UNL     1      24.116  46.127  49.620  1.00  0.00     0.027 A 
HETATM   30  C   UNL     1      24.703  45.664  50.823  1.00  0.00     0.036 A 
ENDBRANCH  25  26
ENDBRANCH  22  25
ENDBRANCH   3  21
TORSDOF 6
ENDMDL
MODEL 6
REMARK VINA RESULT:      -8.6      2.331      3.036
REMARK  6 active torsions:
REMARK  status: ('A' for Active; 'I' for Inactive)
REMARK    1  A    between atoms: C_3  and  N_4 
REMARK       I    between atoms: N_4  and  C_5 
REMARK       I    between atoms: C_5  and  N_6 
REMARK    2  A    between atoms: N_6  and  C_7 
REMARK    3  A    between atoms: C_7  and  C_8 
REMARK    4  A    between atoms: C_10  and  C_11 
REMARK       I    between atoms: C_11  and  N_12 
REMARK    5  A    between atoms: N_12  and  C_13 
REMARK    6  A    between atoms: C_13  and  C_14 
ROOT
HETATM    1  C   UNL     1      23.186  44.426  49.176  1.00  0.00    -0.040 A 
HETATM    2  C   UNL     1      23.802  44.810  50.377  1.00  0.00     0.026 A 
HETATM    3  C   UNL     1      24.614  43.916  51.084  1.00  0.00     0.032 A 
HETATM    4  C   UNL     1      24.778  42.611  50.609  1.00  0.00     0.017 A 
HETATM    5  C   UNL     1      24.169  42.219  49.416  1.00  0.00     0.002 A 
HETATM    6  C   UNL     1      23.387  43.125  48.696  1.00  0.00     0.009 A 
ENDROOT
BRANCH   1   7
HETATM    7  C   UNL     1      22.355  45.423  48.407  1.00  0.00     0.162 C 
BRANCH   7   8
HETATM    8  N   UNL     1      22.018  46.589  49.199  1.00  0.00    -0.339 N 
HETATM    9  C   UNL     1      21.086  47.504  48.742  1.00  0.00     0.321 C 
HETATM   10  N   UNL     1      20.982  48.551  49.628  1.00  0.00    -0.307 N 
HETATM   11  O   UNL     1      20.447  47.343  47.713  1.00  0.00    -0.247 OA
HETATM   12  H   UNL     1      21.224  48.278  50.570  1.00  0.00     0.170 HD
HETATM   13  H   UNL     1      22.780  46.998  49.718  1.00  0.00     0.164 HD
BRANCH  10  14
HETATM   14  C   UNL     1      20.224  49.741  49.513  1.00  0.00     0.059 A 
HETATM   15  C   UNL     1      20.582  50.920  48.843  1.00  0.00    -0.032 A 
HETATM   16  C   UNL     1      21.889  51.164  48.147  1.00  0.00     0.050 C 
HETATM   17  C   UNL     1      19.656  51.983  48.827  1.00  0.00     0.028 A 
HETATM   18  C   UNL     1      18.458  51.867  49.511  1.00  0.00     0.117 A 
HETATM   19  N   UNL     1      18.108  50.774  50.209  1.00  0.00    -0.271 NA
HETATM   20  C   UNL     1      18.994  49.751  50.188  1.00  0.00     0.146 A 
ENDBRANCH  10  14
ENDBRANCH   7   8
ENDBRANCH   1   7
BRANCH   3  21
HETATM   21  C   UNL     1      25.299  44.315  52.343  1.00  0.00     0.252 C 
HETATM   22  N   UNL     1      25.832  43.296  53.095  1.00  0.00    -0.351 N 
HETATM   23  H   UNL     1      25.736  42.327  52.814  1.00  0.00     0.163 HD
HETATM   24  O   UNL     1      25.352  45.495  52.673  1.00  0.00    -0.268 OA
BRANCH  22  25
HETATM   25  C   UNL     1      26.609  43.565  54.280  1.00  0.00     0.187 C 
BRANCH  25  26
HETATM   26  C   UNL     1      28.041  43.285  54.006  1.00  0.00     0.070 A 
HETATM   27  O   UNL     1      28.327  42.503  52.923  1.00  0.00    -0.325 OA
HETATM   28  C   UNL     1      29.676  42.369  52.871  1.00  0.00     0.142 A 
HETATM   29  C   UNL     1      30.269  43.067  53.898  1.00  0.00     0.027 A 
HETATM   30  C   UNL     1      29.213  43.660  54.632  1.00  0.00     0.036 A 
ENDBRANCH  25  26
ENDBRANCH  22  25
ENDBRANCH   3  21
TORSDOF 6
ENDMDL
MODEL 7
REMARK VINA RESULT:      -8.5      2.638     10.842
REMARK  6 active torsions:
REMARK  status: ('A' for Active; 'I' for Inactive)
REMARK    1  A    between atoms: C_3  and  N_4 
REMARK       I    between atoms: N_4  and  C_5 
REMARK       I    between atoms: C_5  and  N_6 
REMARK    2  A    between atoms: N_6  and  C_7 
REMARK    3  A    between atoms: C_7  and  C_8 
REMARK    4  A    between atoms: C_10  and  C_11 
REMARK       I    between atoms: C_11  and  N_12 
REMARK    5  A    between atoms: N_12  and  C_13 
REMARK    6  A    between atoms: C_13  and  C_14 
ROOT
HETATM    1  C   UNL     1      23.196  48.721  49.051  1.00  0.00    -0.040 A 
HETATM    2  C   UNL     1      21.810  48.498  49.077  1.00  0.00     0.026 A 
HETATM    3  C   UNL     1      20.911  49.548  48.860  1.00  0.00     0.032 A 
HETATM    4  C   UNL     1      21.398  50.843  48.659  1.00  0.00     0.017 A 
HETATM    5  C   UNL     1      22.775  51.075  48.633  1.00  0.00     0.002 A 
HETATM    6  C   UNL     1      23.669  50.019  48.816  1.00  0.00     0.009 A 
ENDROOT
BRANCH   1   7
HETATM    7  C   UNL     1      24.145  47.564  49.238  1.00  0.00     0.162 C 
BRANCH   7   8
HETATM    8  N   UNL     1      24.230  47.137  50.621  1.00  0.00    -0.339 N 
HETATM    9  C   UNL     1      25.404  47.298  51.336  1.00  0.00     0.321 C 
HETATM   10  N   UNL     1      25.264  46.761  52.595  1.00  0.00    -0.307 N 
HETATM   11  O   UNL     1      26.383  47.872  50.884  1.00  0.00    -0.247 OA
HETATM   12  H   UNL     1      24.303  46.764  52.904  1.00  0.00     0.170 HD
HETATM   13  H   UNL     1      23.717  46.299  50.849  1.00  0.00     0.164 HD
BRANCH  10  14
HETATM   14  C   UNL     1      26.235  46.626  53.615  1.00  0.00     0.059 A 
HETATM   15  C   UNL     1      27.149  45.577  53.791  1.00  0.00    -0.032 A 
HETATM   16  C   UNL     1      27.239  44.348  52.934  1.00  0.00     0.050 C 
HETATM   17  C   UNL     1      28.057  45.658  54.867  1.00  0.00     0.028 A 
HETATM   18  C   UNL     1      27.989  46.723  55.749  1.00  0.00     0.117 A 
HETATM   19  N   UNL     1      27.089  47.715  55.644  1.00  0.00    -0.271 NA
HETATM   20  C   UNL     1      26.247  47.638  54.588  1.00  0.00     0.146 A 
ENDBRANCH  10  14
ENDBRANCH   7   8
ENDBRANCH   1   7
BRANCH   3  21
HETATM   21  C   UNL     1      19.439  49.325  48.853  1.00  0.00     0.252 C 
HETATM   22  N   UNL     1      18.654  50.449  48.780  1.00  0.00    -0.351 N 
HETATM   23  H   UNL     1      19.061  51.377  48.759  1.00  0.00     0.163 HD
HETATM   24  O   UNL     1      18.985  48.188  48.930  1.00  0.00    -0.268 OA
BRANCH  22  25
HETATM   25  C   UNL     1      17.219  50.356  48.662  1.00  0.00     0.187 C 
BRANCH  25  26
HETATM   26  C   UNL     1      16.595  51.566  49.256  1.00  0.00     0.070 A 
HETATM   27  O   UNL     1      15.230  51.638  49.234  1.00  0.00    -0.325 OA
HETATM   28  C   UNL     1      14.883  52.816  49.809  1.00  0.00     0.142 A 
HETATM   29  C   UNL     1      16.003  53.502  50.216  1.00  0.00     0.027 A 
HETATM   30  C   UNL     1      17.111  52.695  49.860  1.00  0.00     0.036 A 
ENDBRANCH  25  26
ENDBRANCH  22  25
ENDBRANCH   3  21
TORSDOF 6
ENDMDL
MODEL 8
REMARK VINA RESULT:      -8.4      2.228     10.640
REMARK  6 active torsions:
REMARK  status: ('A' for Active; 'I' for Inactive)
REMARK    1  A    between atoms: C_3  and  N_4 
REMARK       I    between atoms: N_4  and  C_5 
REMARK       I    between atoms: C_5  and  N_6 
REMARK    2  A    between atoms: N_6  and  C_7 
REMARK    3  A    between atoms: C_7  and  C_8 
REMARK    4  A    between atoms: C_10  and  C_11 
REMARK       I    between atoms: C_11  and  N_12 
REMARK    5  A    between atoms: N_12  and  C_13 
REMARK    6  A    between atoms: C_13  and  C_14 
ROOT
HETATM    1  C   UNL     1      24.695  46.521  49.772  1.00  0.00    -0.040 A 
HETATM    2  C   UNL     1      23.430  46.874  49.276  1.00  0.00     0.026 A 
HETATM    3  C   UNL     1      23.201  48.147  48.741  1.00  0.00     0.032 A 
HETATM    4  C   UNL     1      24.232  49.091  48.740  1.00  0.00     0.017 A 
HETATM    5  C   UNL     1      25.493  48.749  49.231  1.00  0.00     0.002 A 
HETATM    6  C   UNL     1      25.727  47.468  49.733  1.00  0.00     0.009 A 
ENDROOT
BRANCH   1   7
HETATM    7  C   UNL     1      24.931  45.128  50.299  1.00  0.00     0.162 C 
BRANCH   7   8
HETATM    8  N   UNL     1      25.408  45.127  51.667  1.00  0.00    -0.339 N 
HETATM    9  C   UNL     1      26.723  44.801  51.954  1.00  0.00     0.321 C 
HETATM   10  N   UNL     1      26.921  44.806  53.315  1.00  0.00    -0.307 N 
HETATM   11  O   UNL     1      27.557  44.585  51.089  1.00  0.00    -0.247 OA
HETATM   12  H   UNL     1      26.281  45.426  53.790  1.00  0.00     0.170 HD
HETATM   13  H   UNL     1      24.744  44.816  52.359  1.00  0.00     0.164 HD
BRANCH  10  14
HETATM   14  C   UNL     1      28.079  44.445  54.045  1.00  0.00     0.059 A 
HETATM   15  C   UNL     1      28.693  43.185  54.104  1.00  0.00    -0.032 A 
HETATM   16  C   UNL     1      28.197  41.942  53.424  1.00  0.00     0.050 C 
HETATM   17  C   UNL     1      29.865  43.052  54.876  1.00  0.00     0.028 A 
HETATM   18  C   UNL     1      30.346  44.133  55.596  1.00  0.00     0.117 A 
HETATM   19  N   UNL     1      29.750  45.337  55.607  1.00  0.00    -0.271 NA
HETATM   20  C   UNL     1      28.644  45.456  54.837  1.00  0.00     0.146 A 
ENDBRANCH  10  14
ENDBRANCH   7   8
ENDBRANCH   1   7
BRANCH   3  21
HETATM   21  C   UNL     1      21.875  48.529  48.184  1.00  0.00     0.252 C 
HETATM   22  N   UNL     1      21.688  49.864  47.919  1.00  0.00    -0.351 N 
HETATM   23  H   UNL     1      22.409  50.548  48.120  1.00  0.00     0.163 HD
HETATM   24  O   UNL     1      21.011  47.678  48.000  1.00  0.00    -0.268 OA
BRANCH  22  25
HETATM   25  C   UNL     1      20.486  50.342  47.281  1.00  0.00     0.187 C 
BRANCH  25  26
HETATM   26  C   UNL     1      19.595  50.952  48.302  1.00  0.00     0.070 A 
HETATM   27  O   UNL     1      18.835  50.101  49.054  1.00  0.00    -0.325 OA
HETATM   28  C   UNL     1      18.100  50.865  49.900  1.00  0.00     0.142 A 
HETATM   29  C   UNL     1      18.383  52.197  49.716  1.00  0.00     0.027 A 
HETATM   30  C   UNL     1      19.350  52.256  48.684  1.00  0.00     0.036 A 
ENDBRANCH  25  26
ENDBRANCH  22  25
ENDBRANCH   3  21
TORSDOF 6
ENDMDL
MODEL 9
REMARK VINA RESULT:      -8.3      2.547     10.205
REMARK  6 active torsions:
REMARK  status: ('A' for Active; 'I' for Inactive)
REMARK    1  A    between atoms: C_3  and  N_4 
REMARK       I    between atoms: N_4  and  C_5 
REMARK       I    between atoms: C_5  and  N_6 
REMARK    2  A    between atoms: N_6  and  C_7 
REMARK    3  A    between atoms: C_7  and  C_8 
REMARK    4  A    between atoms: C_10  and  C_11 
REMARK       I    between atoms: C_11  and  N_12 
REMARK    5  A    between atoms: N_12  and  C_13 
REMARK    6  A    between atoms: C_13  and  C_14 
ROOT
HETATM    1  C   UNL     1      24.674  44.068  51.218  1.00  0.00    -0.040 A 
HETATM    2  C   UNL     1      23.851  44.935  50.483  1.00  0.00     0.026 A 
HETATM    3  C   UNL     1      23.622  44.721  49.119  1.00  0.00     0.032 A 
HETATM    4  C   UNL     1      24.255  43.656  48.472  1.00  0.00     0.017 A 
HETATM    5  C   UNL     1      25.077  42.788  49.195  1.00  0.00     0.002 A 
HETATM    6  C   UNL     1      25.275  42.986  50.562  1.00  0.00     0.009 A 
ENDROOT
BRANCH   1   7
HETATM    7  C   UNL     1      24.866  44.291  52.697  1.00  0.00     0.162 C 
BRANCH   7   8
HETATM    8  N   UNL     1      26.174  44.830  53.010  1.00  0.00    -0.339 N 
HETATM    9  C   UNL     1      26.877  44.376  54.112  1.00  0.00     0.321 C 
HETATM   10  N   UNL     1      28.054  45.076  54.240  1.00  0.00    -0.307 N 
HETATM   11  O   UNL     1      26.486  43.459  54.817  1.00  0.00    -0.247 OA
HETATM   12  H   UNL     1      28.383  45.431  53.354  1.00  0.00     0.170 HD
HETATM   13  H   UNL     1      26.298  45.812  52.816  1.00  0.00     0.164 HD
BRANCH  10  14
HETATM   14  C   UNL     1      29.024  45.004  55.268  1.00  0.00     0.059 A 
HETATM   15  C   UNL     1      30.108  44.118  55.359  1.00  0.00    -0.032 A 
HETATM   16  C   UNL     1      30.422  43.024  54.381  1.00  0.00     0.050 C 
HETATM   17  C   UNL     1      30.977  44.240  56.462  1.00  0.00     0.028 A 
HETATM   18  C   UNL     1      30.714  45.175  57.449  1.00  0.00     0.117 A 
HETATM   19  N   UNL     1      29.653  46.000  57.423  1.00  0.00    -0.271 NA
HETATM   20  C   UNL     1      28.847  45.891  56.341  1.00  0.00     0.146 A 
ENDBRANCH  10  14
ENDBRANCH   7   8
ENDBRANCH   1   7
BRANCH   3  21
HETATM   21  C   UNL     1      22.728  45.612  48.330  1.00  0.00     0.252 C 
HETATM   22  N   UNL     1      22.129  46.639  49.020  1.00  0.00    -0.351 N 
HETATM   23  H   UNL     1      22.272  46.759  50.017  1.00  0.00     0.163 HD
HETATM   24  O   UNL     1      22.542  45.404  47.136  1.00  0.00    -0.268 OA
BRANCH  22  25
HETATM   25  C   UNL     1      21.326  47.628  48.346  1.00  0.00     0.187 C 
BRANCH  25  26
HETATM   26  C   UNL     1      22.013  48.943  48.400  1.00  0.00     0.070 A 
HETATM   27  O   UNL     1      23.081  49.123  47.566  1.00  0.00    -0.325 OA
HETATM   28  C   UNL     1      23.557  50.374  47.790  1.00  0.00     0.142 A 
HETATM   29  C   UNL     1      22.803  51.011  48.747  1.00  0.00     0.027 A 
HETATM   30  C   UNL     1      21.804  50.088  49.142  1.00  0.00     0.036 A 
ENDBRANCH  25  26
ENDBRANCH  22  25
ENDBRANCH   3  21
TORSDOF 6
ENDMDL
MODEL 10
REMARK VINA RESULT:      -8.3      2.907     10.184
REMARK  6 active torsions:
REMARK  status: ('A' for Active; 'I' for Inactive)
REMARK    1  A    between atoms: C_3  and  N_4 
REMARK       I    between atoms: N_4  and  C_5 
REMARK       I    between atoms: C_5  and  N_6 
REMARK    2  A    between atoms: N_6  and  C_7 
REMARK    3  A    between atoms: C_7  and  C_8 
REMARK    4  A    between atoms: C_10  and  C_11 
REMARK       I    between atoms: C_11  and  N_12 
REMARK    5  A    between atoms: N_12  and  C_13 
REMARK    6  A    between atoms: C_13  and  C_14 
ROOT
HETATM    1  C   UNL     1      24.793  49.015  48.890  1.00  0.00    -0.040 A 
HETATM    2  C   UNL     1      23.600  48.328  49.163  1.00  0.00     0.026 A 
HETATM    3  C   UNL     1      22.368  48.829  48.726  1.00  0.00     0.032 A 
HETATM    4  C   UNL     1      22.323  50.051  48.047  1.00  0.00     0.017 A 
HETATM    5  C   UNL     1      23.504  50.742  47.772  1.00  0.00     0.002 A 
HETATM    6  C   UNL     1      24.733  50.221  48.180  1.00  0.00     0.009 A 
ENDROOT
BRANCH   1   7
HETATM    7  C   UNL     1      26.112  48.429  49.328  1.00  0.00     0.162 C 
BRANCH   7   8
HETATM    8  N   UNL     1      25.979  47.069  49.811  1.00  0.00    -0.339 N 
HETATM    9  C   UNL     1      26.079  46.790  51.163  1.00  0.00     0.321 C 
HETATM   10  N   UNL     1      25.987  45.434  51.371  1.00  0.00    -0.307 N 
HETATM   11  O   UNL     1      26.195  47.659  52.014  1.00  0.00    -0.247 OA
HETATM   12  H   UNL     1      25.458  44.973  50.644  1.00  0.00     0.170 HD
HETATM   13  H   UNL     1      26.364  46.355  49.212  1.00  0.00     0.164 HD
BRANCH  10  14
HETATM   14  C   UNL     1      26.129  44.708  52.578  1.00  0.00     0.059 A 
HETATM   15  C   UNL     1      27.223  43.929  52.983  1.00  0.00    -0.032 A 
HETATM   16  C   UNL     1      28.458  43.675  52.170  1.00  0.00     0.050 C 
HETATM   17  C   UNL     1      27.167  43.311  54.249  1.00  0.00     0.028 A 
HETATM   18  C   UNL     1      26.029  43.433  55.028  1.00  0.00     0.117 A 
HETATM   19  N   UNL     1      24.942  44.124  54.647  1.00  0.00    -0.271 NA
HETATM   20  C   UNL     1      25.024  44.737  53.443  1.00  0.00     0.146 A 
ENDBRANCH  10  14
ENDBRANCH   7   8
ENDBRANCH   1   7
BRANCH   3  21
HETATM   21  C   UNL     1      21.096  48.100  48.980  1.00  0.00     0.252 C 
HETATM   22  N   UNL     1      20.208  48.705  49.836  1.00  0.00    -0.351 N 
HETATM   23  H   UNL     1      20.426  49.586  50.287  1.00  0.00     0.163 HD
HETATM   24  O   UNL     1      20.891  47.011  48.453  1.00  0.00    -0.268 OA
BRANCH  22  25
HETATM   25  C   UNL     1      18.901  48.146  50.078  1.00  0.00     0.187 C 
BRANCH  25  26
HETATM   26  C   UNL     1      17.898  48.853  49.241  1.00  0.00     0.070 A 
HETATM   27  O   UNL     1      18.028  50.209  49.125  1.00  0.00    -0.325 OA
HETATM   28  C   UNL     1      17.013  50.642  48.337  1.00  0.00     0.142 A 
HETATM   29  C   UNL     1      16.235  49.584  47.929  1.00  0.00     0.027 A 
HETATM   30  C   UNL     1      16.807  48.427  48.512  1.00  0.00     0.036 A 
ENDBRANCH  25  26
ENDBRANCH  22  25
ENDBRANCH   3  21
TORSDOF 6
ENDMDL
