MODEL 1
REMARK VINA RESULT:      -9.9      0.000      0.000
REMARK  8 active torsions:
REMARK  status: ('A' for Active; 'I' for Inactive)
REMARK    1  A    between atoms: C_4  and  S_5 
REMARK    2  A    between atoms: S_5  and  C_6 
REMARK    3  A    between atoms: C_6  and  C_7 
REMARK       I    between atoms: C_7  and  N_8 
REMARK    4  A    between atoms: N_8  and  C_9 
REMARK    5  A    between atoms: C_20  and  C_21 
REMARK    6  A    between atoms: C_27  and  C_28 
REMARK       I    between atoms: C_28  and  N_29 
REMARK    7  A    between atoms: N_29  and  C_30 
REMARK    8  A    between atoms: C_31  and  O_32 
ROOT
HETATM    1  C   UNL     1      20.459  44.883  48.021  1.00  0.00     0.069 C 
HETATM    2  C   UNL     1      21.160  46.207  48.188  1.00  0.00     0.019 C 
HETATM    3  N   UNL     1      22.168  46.249  49.142  1.00  0.00    -0.353 N 
HETATM    4  C   UNL     1      23.142  47.236  49.188  1.00  0.00     0.088 C 
HETATM    5  C   UNL     1      22.965  48.376  48.474  1.00  0.00     0.069 C 
HETATM    6  C   UNL     1      23.973  49.376  48.345  1.00  0.00     0.099 C 
HETATM    7  N   UNL     1      24.794  50.190  48.237  1.00  0.00    -0.192 NA
HETATM    8  C   UNL     1      21.650  48.611  47.723  1.00  0.00     0.106 C 
HETATM    9  C   UNL     1      20.884  47.322  47.473  1.00  0.00     0.046 C 
HETATM   10  H   UNL     1      22.465  45.357  49.532  1.00  0.00     0.166 HD
ENDROOT
BRANCH   4  11
HETATM   11  S   UNL     1      24.610  46.939  50.103  1.00  0.00    -0.102 SA
BRANCH  11  12
HETATM   12  C   UNL     1      24.474  45.131  50.341  1.00  0.00     0.184 C 
BRANCH  12  13
HETATM   13  C   UNL     1      25.193  44.667  51.602  1.00  0.00     0.231 C 
HETATM   14  N   UNL     1      26.573  44.734  51.521  1.00  0.00    -0.327 N 
HETATM   15  H   UNL     1      26.944  44.964  50.604  1.00  0.00     0.169 HD
HETATM   16  O   UNL     1      24.544  44.346  52.595  1.00  0.00    -0.272 OA
BRANCH  14  17
HETATM   17  C   UNL     1      27.518  44.420  52.517  1.00  0.00     0.034 A 
HETATM   18  C   UNL     1      27.556  45.025  53.775  1.00  0.00     0.031 A 
HETATM   19  C   UNL     1      28.523  44.651  54.714  1.00  0.00     0.026 A 
HETATM   20  C   UNL     1      29.456  43.668  54.397  1.00  0.00     0.034 A 
HETATM   21 CL   UNL     1      30.640  43.203  55.555  1.00  0.00    -0.084 Cl
HETATM   22  C   UNL     1      29.434  43.059  53.146  1.00  0.00     0.026 A 
HETATM   23  C   UNL     1      28.469  43.438  52.207  1.00  0.00     0.031 A 
ENDBRANCH  14  17
ENDBRANCH  12  13
ENDBRANCH  11  12
ENDBRANCH   4  11
BRANCH   8  24
HETATM   24  C   UNL     1      20.829  49.678  48.463  1.00  0.00    -0.044 A 
HETATM   25  C   UNL     1      20.147  49.339  49.644  1.00  0.00     0.008 A 
HETATM   26  C   UNL     1      19.378  50.286  50.323  1.00  0.00     0.001 A 
HETATM   27  C   UNL     1      19.275  51.584  49.833  1.00  0.00     0.000 A 
HETATM   28  C   UNL     1      19.929  51.934  48.656  1.00  0.00     0.001 A 
HETATM   29  C   UNL     1      20.690  50.986  47.968  1.00  0.00     0.008 A 
ENDBRANCH   8  24
BRANCH   9  30
HETATM   30  C   UNL     1      19.945  47.265  46.322  1.00  0.00     0.255 C 
HETATM   31  N   UNL     1      18.704  47.765  46.601  1.00  0.00    -0.321 N 
HETATM   32  H   UNL     1      17.953  47.082  46.560  1.00  0.00     0.169 HD
HETATM   33  O   UNL     1      20.229  46.663  45.294  1.00  0.00    -0.268 OA
BRANCH  31  34
HETATM   34  C   UNL     1      18.242  49.015  46.109  1.00  0.00     0.068 A 
HETATM   35  C   UNL     1      17.358  49.750  46.915  1.00  0.00     0.095 A 
HETATM   36  C   UNL     1      16.977  51.042  46.539  1.00  0.00     0.039 A 
HETATM   37  C   UNL     1      17.427  51.577  45.332  1.00  0.00     0.003 A 
HETATM   38  C   UNL     1      18.241  50.820  44.494  1.00  0.00     0.002 A 
HETATM   39  C   UNL     1      18.645  49.540  44.878  1.00  0.00     0.032 A 
BRANCH  35  40
HETATM   40  O   UNL     1      16.944  49.164  48.087  1.00  0.00    -0.354 OA
HETATM   41  C   UNL     1      15.578  48.750  48.055  1.00  0.00     0.210 C 
ENDBRANCH  35  40
ENDBRANCH  31  34
ENDBRANCH   9  30
TORSDOF 8
ENDMDL
MODEL 2
REMARK VINA RESULT:      -9.4      1.541      1.997
REMARK  8 active torsions:
REMARK  status: ('A' for Active; 'I' for Inactive)
REMARK    1  A    between atoms: C_4  and  S_5 
REMARK    2  A    between atoms: S_5  and  C_6 
REMARK    3  A    between atoms: C_6  and  C_7 
REMARK       I    between atoms: C_7  and  N_8 
REMARK    4  A    between atoms: N_8  and  C_9 
REMARK    5  A    between atoms: C_20  and  C_21 
REMARK    6  A    between atoms: C_27  and  C_28 
REMARK       I    between atoms: C_28  and  N_29 
REMARK    7  A    between atoms: N_29  and  C_30 
REMARK    8  A    between atoms: C_31  and  O_32 
ROOT
HETATM    1  C   UNL     1      20.720  45.005  48.561  1.00  0.00     0.069 C 
HETATM    2  C   UNL     1      21.235  46.418  48.463  1.00  0.00     0.019 C 
HETATM    3  N   UNL     1      22.345  46.719  49.243  1.00  0.00    -0.353 N 
HETATM    4  C   UNL     1      23.162  47.820  49.024  1.00  0.00     0.088 C 
HETATM    5  C   UNL     1      22.726  48.819  48.216  1.00  0.00     0.069 C 
HETATM    6  C   UNL     1      23.551  49.912  47.819  1.00  0.00     0.099 C 
HETATM    7  N   UNL     1      24.222  50.801  47.493  1.00  0.00    -0.192 NA
HETATM    8  C   UNL     1      21.303  48.778  47.649  1.00  0.00     0.106 C 
HETATM    9  C   UNL     1      20.707  47.380  47.672  1.00  0.00     0.046 C 
HETATM   10  H   UNL     1      22.818  45.935  49.686  1.00  0.00     0.166 HD
ENDROOT
BRANCH   4  11
HETATM   11  S   UNL     1      24.765  47.842  49.736  1.00  0.00    -0.102 SA
BRANCH  11  12
HETATM   12  C   UNL     1      24.709  46.282  50.689  1.00  0.00     0.184 C 
BRANCH  12  13
HETATM   13  C   UNL     1      25.838  46.198  51.711  1.00  0.00     0.231 C 
HETATM   14  N   UNL     1      26.253  44.907  51.987  1.00  0.00    -0.327 N 
HETATM   15  H   UNL     1      25.687  44.171  51.576  1.00  0.00     0.169 HD
HETATM   16  O   UNL     1      26.339  47.229  52.155  1.00  0.00    -0.272 OA
BRANCH  14  17
HETATM   17  C   UNL     1      27.291  44.495  52.845  1.00  0.00     0.034 A 
HETATM   18  C   UNL     1      27.295  44.711  54.224  1.00  0.00     0.031 A 
HETATM   19  C   UNL     1      28.363  44.262  55.010  1.00  0.00     0.026 A 
HETATM   20  C   UNL     1      29.429  43.593  54.417  1.00  0.00     0.034 A 
HETATM   21 CL   UNL     1      30.737  43.035  55.385  1.00  0.00    -0.084 Cl
HETATM   22  C   UNL     1      29.441  43.375  53.042  1.00  0.00     0.026 A 
HETATM   23  C   UNL     1      28.376  43.828  52.259  1.00  0.00     0.031 A 
ENDBRANCH  14  17
ENDBRANCH  12  13
ENDBRANCH  11  12
ENDBRANCH   4  11
BRANCH   8  24
HETATM   24  C   UNL     1      20.441  49.823  48.373  1.00  0.00    -0.044 A 
HETATM   25  C   UNL     1      20.007  50.970  47.683  1.00  0.00     0.008 A 
HETATM   26  C   UNL     1      19.240  51.943  48.326  1.00  0.00     0.001 A 
HETATM   27  C   UNL     1      18.897  51.791  49.666  1.00  0.00     0.000 A 
HETATM   28  C   UNL     1      19.331  50.672  50.369  1.00  0.00     0.001 A 
HETATM   29  C   UNL     1      20.107  49.701  49.733  1.00  0.00     0.008 A 
ENDBRANCH   8  24
BRANCH   9  30
HETATM   30  C   UNL     1      19.642  47.045  46.690  1.00  0.00     0.255 C 
HETATM   31  N   UNL     1      18.430  46.781  47.265  1.00  0.00    -0.321 N 
HETATM   32  H   UNL     1      18.101  45.829  47.141  1.00  0.00     0.169 HD
HETATM   33  O   UNL     1      19.898  46.859  45.507  1.00  0.00    -0.268 OA
BRANCH  31  34
HETATM   34  C   UNL     1      17.331  47.680  47.205  1.00  0.00     0.068 A 
HETATM   35  C   UNL     1      16.404  47.513  46.163  1.00  0.00     0.095 A 
HETATM   36  C   UNL     1      15.238  48.283  46.133  1.00  0.00     0.039 A 
HETATM   37  C   UNL     1      15.024  49.262  47.103  1.00  0.00     0.003 A 
HETATM   38  C   UNL     1      15.980  49.483  48.093  1.00  0.00     0.002 A 
HETATM   39  C   UNL     1      17.133  48.698  48.142  1.00  0.00     0.032 A 
BRANCH  35  40
HETATM   40  O   UNL     1      16.675  46.538  45.233  1.00  0.00    -0.354 OA
HETATM   41  C   UNL     1      15.579  46.280  44.356  1.00  0.00     0.210 C 
ENDBRANCH  35  40
ENDBRANCH  31  34
ENDBRANCH   9  30
TORSDOF 8
ENDMDL
MODEL 3
REMARK VINA RESULT:      -8.6      2.226      2.822
REMARK  8 active torsions:
REMARK  status: ('A' for Active; 'I' for Inactive)
REMARK    1  A    between atoms: C_4  and  S_5 
REMARK    2  A    between atoms: S_5  and  C_6 
REMARK    3  A    between atoms: C_6  and  C_7 
REMARK       I    between atoms: C_7  and  N_8 
REMARK    4  A    between atoms: N_8  and  C_9 
REMARK    5  A    between atoms: C_20  and  C_21 
REMARK    6  A    between atoms: C_27  and  C_28 
REMARK       I    between atoms: C_28  and  N_29 
REMARK    7  A    between atoms: N_29  and  C_30 
REMARK    8  A    between atoms: C_31  and  O_32 
ROOT
HETATM    1  C   UNL     1      20.683  44.962  48.449  1.00  0.00     0.069 C 
HETATM    2  C   UNL     1      21.231  46.365  48.394  1.00  0.00     0.019 C 
HETATM    3  N   UNL     1      22.334  46.622  49.199  1.00  0.00    -0.353 N 
HETATM    4  C   UNL     1      23.178  47.709  49.021  1.00  0.00     0.088 C 
HETATM    5  C   UNL     1      22.777  48.738  48.232  1.00  0.00     0.069 C 
HETATM    6  C   UNL     1      23.632  49.821  47.875  1.00  0.00     0.099 C 
HETATM    7  N   UNL     1      24.327  50.704  47.583  1.00  0.00    -0.192 NA
HETATM    8  C   UNL     1      21.363  48.743  47.642  1.00  0.00     0.106 C 
HETATM    9  C   UNL     1      20.737  47.358  47.620  1.00  0.00     0.046 C 
HETATM   10  H   UNL     1      22.783  45.817  49.629  1.00  0.00     0.166 HD
ENDROOT
BRANCH   4  11
HETATM   11  S   UNL     1      24.770  47.678  49.759  1.00  0.00    -0.102 SA
BRANCH  11  12
HETATM   12  C   UNL     1      24.633  46.141  50.740  1.00  0.00     0.184 C 
BRANCH  12  13
HETATM   13  C   UNL     1      25.659  45.099  50.311  1.00  0.00     0.231 C 
HETATM   14  N   UNL     1      25.673  43.964  51.103  1.00  0.00    -0.327 N 
HETATM   15  H   UNL     1      25.094  44.007  51.936  1.00  0.00     0.169 HD
HETATM   16  O   UNL     1      26.330  45.281  49.298  1.00  0.00    -0.272 OA
BRANCH  14  17
HETATM   17  C   UNL     1      26.466  42.810  50.951  1.00  0.00     0.034 A 
HETATM   18  C   UNL     1      27.652  42.580  51.652  1.00  0.00     0.031 A 
HETATM   19  C   UNL     1      28.380  41.402  51.450  1.00  0.00     0.026 A 
HETATM   20  C   UNL     1      27.922  40.449  50.545  1.00  0.00     0.034 A 
HETATM   21 CL   UNL     1      28.814  38.998  50.302  1.00  0.00    -0.084 Cl
HETATM   22  C   UNL     1      26.745  40.667  49.835  1.00  0.00     0.026 A 
HETATM   23  C   UNL     1      26.022  41.846  50.036  1.00  0.00     0.031 A 
ENDBRANCH  14  17
ENDBRANCH  12  13
ENDBRANCH  11  12
ENDBRANCH   4  11
BRANCH   8  24
HETATM   24  C   UNL     1      20.512  49.788  48.378  1.00  0.00    -0.044 A 
HETATM   25  C   UNL     1      20.115  50.961  47.711  1.00  0.00     0.008 A 
HETATM   26  C   UNL     1      19.359  51.935  48.365  1.00  0.00     0.001 A 
HETATM   27  C   UNL     1      18.990  51.757  49.695  1.00  0.00     0.000 A 
HETATM   28  C   UNL     1      19.388  50.612  50.378  1.00  0.00     0.001 A 
HETATM   29  C   UNL     1      20.154  49.640  49.729  1.00  0.00     0.008 A 
ENDBRANCH   8  24
BRANCH   9  30
HETATM   30  C   UNL     1      19.680  47.071  46.613  1.00  0.00     0.255 C 
HETATM   31  N   UNL     1      18.464  46.777  47.164  1.00  0.00    -0.321 N 
HETATM   32  H   UNL     1      18.138  45.831  46.989  1.00  0.00     0.169 HD
HETATM   33  O   UNL     1      19.946  46.945  45.425  1.00  0.00    -0.268 OA
BRANCH  31  34
HETATM   34  C   UNL     1      17.364  47.676  47.139  1.00  0.00     0.068 A 
HETATM   35  C   UNL     1      16.426  47.537  46.103  1.00  0.00     0.095 A 
HETATM   36  C   UNL     1      15.259  48.307  46.105  1.00  0.00     0.039 A 
HETATM   37  C   UNL     1      15.055  49.258  47.105  1.00  0.00     0.003 A 
HETATM   38  C   UNL     1      16.020  49.453  48.090  1.00  0.00     0.002 A 
HETATM   39  C   UNL     1      17.174  48.668  48.106  1.00  0.00     0.032 A 
BRANCH  35  40
HETATM   40  O   UNL     1      16.689  46.588  45.143  1.00  0.00    -0.354 OA
HETATM   41  C   UNL     1      15.567  46.315  44.305  1.00  0.00     0.210 C 
ENDBRANCH  35  40
ENDBRANCH  31  34
ENDBRANCH   9  30
TORSDOF 8
ENDMDL
MODEL 4
REMARK VINA RESULT:      -8.2      4.747      9.734
REMARK  8 active torsions:
REMARK  status: ('A' for Active; 'I' for Inactive)
REMARK    1  A    between atoms: C_4  and  S_5 
REMARK    2  A    between atoms: S_5  and  C_6 
REMARK    3  A    between atoms: C_6  and  C_7 
REMARK       I    between atoms: C_7  and  N_8 
REMARK    4  A    between atoms: N_8  and  C_9 
REMARK    5  A    between atoms: C_20  and  C_21 
REMARK    6  A    between atoms: C_27  and  C_28 
REMARK       I    between atoms: C_28  and  N_29 
REMARK    7  A    between atoms: N_29  and  C_30 
REMARK    8  A    between atoms: C_31  and  O_32 
ROOT
HETATM    1  C   UNL     1      20.713  45.730  44.889  1.00  0.00     0.069 C 
HETATM    2  C   UNL     1      19.720  46.516  45.707  1.00  0.00     0.019 C 
HETATM    3  N   UNL     1      18.756  47.215  44.991  1.00  0.00    -0.353 N 
HETATM    4  C   UNL     1      17.576  47.685  45.548  1.00  0.00     0.088 C 
HETATM    5  C   UNL     1      17.456  47.741  46.899  1.00  0.00     0.069 C 
HETATM    6  C   UNL     1      16.235  48.069  47.557  1.00  0.00     0.099 C 
HETATM    7  N   UNL     1      15.241  48.333  48.095  1.00  0.00    -0.192 NA
HETATM    8  C   UNL     1      18.656  47.396  47.787  1.00  0.00     0.106 C 
HETATM    9  C   UNL     1      19.701  46.568  47.058  1.00  0.00     0.046 C 
HETATM   10  H   UNL     1      18.692  47.015  43.995  1.00  0.00     0.166 HD
ENDROOT
BRANCH   4  11
HETATM   11  S   UNL     1      16.247  48.114  44.486  1.00  0.00    -0.102 SA
BRANCH  11  12
HETATM   12  C   UNL     1      16.478  49.926  44.406  1.00  0.00     0.184 C 
BRANCH  12  13
HETATM   13  C   UNL     1      15.678  50.651  45.482  1.00  0.00     0.231 C 
HETATM   14  N   UNL     1      16.453  51.199  46.488  1.00  0.00    -0.327 N 
HETATM   15  H   UNL     1      17.439  50.957  46.460  1.00  0.00     0.169 HD
HETATM   16  O   UNL     1      14.459  50.765  45.366  1.00  0.00    -0.272 OA
BRANCH  14  17
HETATM   17  C   UNL     1      16.028  51.958  47.596  1.00  0.00     0.034 A 
HETATM   18  C   UNL     1      15.099  52.998  47.519  1.00  0.00     0.031 A 
HETATM   19  C   UNL     1      14.722  53.700  48.670  1.00  0.00     0.026 A 
HETATM   20  C   UNL     1      15.274  53.363  49.901  1.00  0.00     0.034 A 
HETATM   21 CL   UNL     1      14.804  54.222  51.316  1.00  0.00    -0.084 Cl
HETATM   22  C   UNL     1      16.205  52.333  49.993  1.00  0.00     0.026 A 
HETATM   23  C   UNL     1      16.583  51.635  48.842  1.00  0.00     0.031 A 
ENDBRANCH  14  17
ENDBRANCH  12  13
ENDBRANCH  11  12
ENDBRANCH   4  11
BRANCH   8  24
HETATM   24  C   UNL     1      19.217  48.688  48.402  1.00  0.00    -0.044 A 
HETATM   25  C   UNL     1      19.191  48.866  49.797  1.00  0.00     0.008 A 
HETATM   26  C   UNL     1      19.676  50.039  50.377  1.00  0.00     0.001 A 
HETATM   27  C   UNL     1      20.190  51.054  49.576  1.00  0.00     0.000 A 
HETATM   28  C   UNL     1      20.208  50.904  48.193  1.00  0.00     0.001 A 
HETATM   29  C   UNL     1      19.714  49.736  47.608  1.00  0.00     0.008 A 
ENDBRANCH   8  24
BRANCH   9  30
HETATM   30  C   UNL     1      20.596  45.690  47.857  1.00  0.00     0.255 C 
HETATM   31  N   UNL     1      21.926  45.904  47.623  1.00  0.00    -0.321 N 
HETATM   32  H   UNL     1      22.414  45.118  47.203  1.00  0.00     0.169 HD
HETATM   33  O   UNL     1      20.155  44.757  48.517  1.00  0.00    -0.268 OA
BRANCH  31  34
HETATM   34  C   UNL     1      22.781  46.559  48.550  1.00  0.00     0.068 A 
HETATM   35  C   UNL     1      23.718  45.777  49.244  1.00  0.00     0.095 A 
HETATM   36  C   UNL     1      24.668  46.388  50.067  1.00  0.00     0.039 A 
HETATM   37  C   UNL     1      24.647  47.771  50.248  1.00  0.00     0.003 A 
HETATM   38  C   UNL     1      23.670  48.541  49.621  1.00  0.00     0.002 A 
HETATM   39  C   UNL     1      22.736  47.938  48.778  1.00  0.00     0.032 A 
BRANCH  35  40
HETATM   40  O   UNL     1      23.682  44.419  49.031  1.00  0.00    -0.354 OA
HETATM   41  C   UNL     1      23.197  43.688  50.157  1.00  0.00     0.210 C 
ENDBRANCH  35  40
ENDBRANCH  31  34
ENDBRANCH   9  30
TORSDOF 8
ENDMDL
MODEL 5
REMARK VINA RESULT:      -8.1      5.487     10.966
REMARK  8 active torsions:
REMARK  status: ('A' for Active; 'I' for Inactive)
REMARK    1  A    between atoms: C_4  and  S_5 
REMARK    2  A    between atoms: S_5  and  C_6 
REMARK    3  A    between atoms: C_6  and  C_7 
REMARK       I    between atoms: C_7  and  N_8 
REMARK    4  A    between atoms: N_8  and  C_9 
REMARK    5  A    between atoms: C_20  and  C_21 
REMARK    6  A    between atoms: C_27  and  C_28 
REMARK       I    between atoms: C_28  and  N_29 
REMARK    7  A    between atoms: N_29  and  C_30 
REMARK    8  A    between atoms: C_31  and  O_32 
ROOT
HETATM    1  C   UNL     1      21.505  50.965  50.429  1.00  0.00     0.069 C 
HETATM    2  C   UNL     1      20.827  50.269  49.277  1.00  0.00     0.019 C 
HETATM    3  N   UNL     1      19.444  50.386  49.221  1.00  0.00    -0.353 N 
HETATM    4  C   UNL     1      18.698  50.135  48.078  1.00  0.00     0.088 C 
HETATM    5  C   UNL     1      19.270  49.468  47.045  1.00  0.00     0.069 C 
HETATM    6  C   UNL     1      18.631  49.295  45.783  1.00  0.00     0.099 C 
HETATM    7  N   UNL     1      18.113  49.156  44.753  1.00  0.00    -0.192 NA
HETATM    8  C   UNL     1      20.687  48.902  47.192  1.00  0.00     0.106 C 
HETATM    9  C   UNL     1      21.467  49.570  48.312  1.00  0.00     0.046 C 
HETATM   10  H   UNL     1      19.016  51.058  49.854  1.00  0.00     0.166 HD
ENDROOT
BRANCH   4  11
HETATM   11  S   UNL     1      17.062  50.763  47.978  1.00  0.00    -0.102 SA
BRANCH  11  12
HETATM   12  C   UNL     1      16.939  51.587  49.606  1.00  0.00     0.184 C 
BRANCH  12  13
HETATM   13  C   UNL     1      15.869  52.672  49.615  1.00  0.00     0.231 C 
HETATM   14  N   UNL     1      16.017  53.601  50.631  1.00  0.00    -0.327 N 
HETATM   15  H   UNL     1      16.738  53.387  51.314  1.00  0.00     0.169 HD
HETATM   16  O   UNL     1      15.021  52.704  48.726  1.00  0.00    -0.272 OA
BRANCH  14  17
HETATM   17  C   UNL     1      15.228  54.739  50.888  1.00  0.00     0.034 A 
HETATM   18  C   UNL     1      15.320  55.931  50.167  1.00  0.00     0.031 A 
HETATM   19  C   UNL     1      14.493  57.016  50.481  1.00  0.00     0.026 A 
HETATM   20  C   UNL     1      13.570  56.909  51.518  1.00  0.00     0.034 A 
HETATM   21 CL   UNL     1      12.549  58.240  51.897  1.00  0.00    -0.084 Cl
HETATM   22  C   UNL     1      13.471  55.729  52.248  1.00  0.00     0.026 A 
HETATM   23  C   UNL     1      14.301  54.648  51.936  1.00  0.00     0.031 A 
ENDBRANCH  14  17
ENDBRANCH  12  13
ENDBRANCH  11  12
ENDBRANCH   4  11
BRANCH   8  24
HETATM   24  C   UNL     1      20.608  47.374  47.327  1.00  0.00    -0.044 A 
HETATM   25  C   UNL     1      20.017  46.803  48.468  1.00  0.00     0.008 A 
HETATM   26  C   UNL     1      19.951  45.418  48.623  1.00  0.00     0.001 A 
HETATM   27  C   UNL     1      20.478  44.579  47.645  1.00  0.00     0.000 A 
HETATM   28  C   UNL     1      21.083  45.125  46.517  1.00  0.00     0.001 A 
HETATM   29  C   UNL     1      21.159  46.511  46.364  1.00  0.00     0.008 A 
ENDBRANCH   8  24
BRANCH   9  30
HETATM   30  C   UNL     1      22.952  49.580  48.236  1.00  0.00     0.255 C 
HETATM   31  N   UNL     1      23.562  49.086  49.355  1.00  0.00    -0.321 N 
HETATM   32  H   UNL     1      24.116  49.764  49.869  1.00  0.00     0.169 HD
HETATM   33  O   UNL     1      23.542  50.143  47.323  1.00  0.00    -0.268 OA
BRANCH  31  34
HETATM   34  C   UNL     1      24.198  47.816  49.396  1.00  0.00     0.068 A 
HETATM   35  C   UNL     1      25.581  47.783  49.640  1.00  0.00     0.095 A 
HETATM   36  C   UNL     1      26.231  46.559  49.821  1.00  0.00     0.039 A 
HETATM   37  C   UNL     1      25.518  45.366  49.697  1.00  0.00     0.003 A 
HETATM   38  C   UNL     1      24.163  45.394  49.377  1.00  0.00     0.002 A 
HETATM   39  C   UNL     1      23.504  46.615  49.222  1.00  0.00     0.032 A 
BRANCH  35  40
HETATM   40  O   UNL     1      26.228  48.992  49.742  1.00  0.00    -0.354 OA
HETATM   41  C   UNL     1      27.403  49.068  48.936  1.00  0.00     0.210 C 
ENDBRANCH  35  40
ENDBRANCH  31  34
ENDBRANCH   9  30
TORSDOF 8
ENDMDL
MODEL 6
REMARK VINA RESULT:      -8.0      1.831      4.398
REMARK  8 active torsions:
REMARK  status: ('A' for Active; 'I' for Inactive)
REMARK    1  A    between atoms: C_4  and  S_5 
REMARK    2  A    between atoms: S_5  and  C_6 
REMARK    3  A    between atoms: C_6  and  C_7 
REMARK       I    between atoms: C_7  and  N_8 
REMARK    4  A    between atoms: N_8  and  C_9 
REMARK    5  A    between atoms: C_20  and  C_21 
REMARK    6  A    between atoms: C_27  and  C_28 
REMARK       I    between atoms: C_28  and  N_29 
REMARK    7  A    between atoms: N_29  and  C_30 
REMARK    8  A    between atoms: C_31  and  O_32 
ROOT
HETATM    1  C   UNL     1      22.776  49.116  48.018  1.00  0.00     0.069 C 
HETATM    2  C   UNL     1      22.780  47.630  48.269  1.00  0.00     0.019 C 
HETATM    3  N   UNL     1      23.967  47.094  48.752  1.00  0.00    -0.353 N 
HETATM    4  C   UNL     1      24.055  45.855  49.369  1.00  0.00     0.088 C 
HETATM    5  C   UNL     1      23.025  44.980  49.253  1.00  0.00     0.069 C 
HETATM    6  C   UNL     1      22.965  43.750  49.969  1.00  0.00     0.099 C 
HETATM    7  N   UNL     1      22.914  42.748  50.555  1.00  0.00    -0.192 NA
HETATM    8  C   UNL     1      21.832  45.321  48.352  1.00  0.00     0.106 C 
HETATM    9  C   UNL     1      21.722  46.810  48.071  1.00  0.00     0.046 C 
HETATM   10  H   UNL     1      24.678  47.757  49.053  1.00  0.00     0.166 HD
ENDROOT
BRANCH   4  11
HETATM   11  S   UNL     1      25.465  45.493  50.350  1.00  0.00    -0.102 SA
BRANCH  11  12
HETATM   12  C   UNL     1      24.721  45.579  52.018  1.00  0.00     0.184 C 
BRANCH  12  13
HETATM   13  C   UNL     1      25.575  44.865  53.060  1.00  0.00     0.231 C 
HETATM   14  N   UNL     1      26.936  45.060  52.902  1.00  0.00    -0.327 N 
HETATM   15  H   UNL     1      27.211  45.547  52.054  1.00  0.00     0.169 HD
HETATM   16  O   UNL     1      25.035  44.250  53.976  1.00  0.00    -0.272 OA
BRANCH  14  17
HETATM   17  C   UNL     1      27.981  44.577  53.713  1.00  0.00     0.034 A 
HETATM   18  C   UNL     1      28.572  43.321  53.558  1.00  0.00     0.031 A 
HETATM   19  C   UNL     1      29.614  42.918  54.402  1.00  0.00     0.026 A 
HETATM   20  C   UNL     1      30.067  43.772  55.403  1.00  0.00     0.034 A 
HETATM   21 CL   UNL     1      31.353  43.278  56.434  1.00  0.00    -0.084 Cl
HETATM   22  C   UNL     1      29.485  45.024  55.572  1.00  0.00     0.026 A 
HETATM   23  C   UNL     1      28.442  45.424  54.731  1.00  0.00     0.031 A 
ENDBRANCH  14  17
ENDBRANCH  12  13
ENDBRANCH  11  12
ENDBRANCH   4  11
BRANCH   8  24
HETATM   24  C   UNL     1      21.896  44.460  47.082  1.00  0.00    -0.044 A 
HETATM   25  C   UNL     1      20.796  43.661  46.723  1.00  0.00     0.008 A 
HETATM   26  C   UNL     1      20.839  42.855  45.584  1.00  0.00     0.001 A 
HETATM   27  C   UNL     1      21.980  42.830  44.787  1.00  0.00     0.000 A 
HETATM   28  C   UNL     1      23.084  43.601  45.135  1.00  0.00     0.001 A 
HETATM   29  C   UNL     1      23.049  44.401  46.280  1.00  0.00     0.008 A 
ENDBRANCH   8  24
BRANCH   9  30
HETATM   30  C   UNL     1      20.387  47.373  47.734  1.00  0.00     0.255 C 
HETATM   31  N   UNL     1      19.669  47.774  48.826  1.00  0.00    -0.321 N 
HETATM   32  H   UNL     1      18.815  47.249  48.987  1.00  0.00     0.169 HD
HETATM   33  O   UNL     1      19.934  47.309  46.599  1.00  0.00    -0.268 OA
BRANCH  31  34
HETATM   34  C   UNL     1      19.465  49.139  49.163  1.00  0.00     0.068 A 
HETATM   35  C   UNL     1      18.237  49.724  48.811  1.00  0.00     0.095 A 
HETATM   36  C   UNL     1      17.933  51.021  49.233  1.00  0.00     0.039 A 
HETATM   37  C   UNL     1      18.874  51.759  49.951  1.00  0.00     0.003 A 
HETATM   38  C   UNL     1      20.123  51.209  50.234  1.00  0.00     0.002 A 
HETATM   39  C   UNL     1      20.421  49.904  49.837  1.00  0.00     0.032 A 
BRANCH  35  40
HETATM   40  O   UNL     1      17.356  48.948  48.096  1.00  0.00    -0.354 OA
HETATM   41  C   UNL     1      17.095  49.459  46.789  1.00  0.00     0.210 C 
ENDBRANCH  35  40
ENDBRANCH  31  34
ENDBRANCH   9  30
TORSDOF 8
ENDMDL
MODEL 7
REMARK VINA RESULT:      -7.9      1.992      4.042
REMARK  8 active torsions:
REMARK  status: ('A' for Active; 'I' for Inactive)
REMARK    1  A    between atoms: C_4  and  S_5 
REMARK    2  A    between atoms: S_5  and  C_6 
REMARK    3  A    between atoms: C_6  and  C_7 
REMARK       I    between atoms: C_7  and  N_8 
REMARK    4  A    between atoms: N_8  and  C_9 
REMARK    5  A    between atoms: C_20  and  C_21 
REMARK    6  A    between atoms: C_27  and  C_28 
REMARK       I    between atoms: C_28  and  N_29 
REMARK    7  A    between atoms: N_29  and  C_30 
REMARK    8  A    between atoms: C_31  and  O_32 
ROOT
HETATM    1  C   UNL     1      22.282  49.379  48.807  1.00  0.00     0.069 C 
HETATM    2  C   UNL     1      22.282  47.873  48.770  1.00  0.00     0.019 C 
HETATM    3  N   UNL     1      23.509  47.256  48.979  1.00  0.00    -0.353 N 
HETATM    4  C   UNL     1      23.647  45.921  49.334  1.00  0.00     0.088 C 
HETATM    5  C   UNL     1      22.589  45.085  49.195  1.00  0.00     0.069 C 
HETATM    6  C   UNL     1      22.594  43.740  49.668  1.00  0.00     0.099 C 
HETATM    7  N   UNL     1      22.596  42.646  50.055  1.00  0.00    -0.192 NA
HETATM    8  C   UNL     1      21.295  45.589  48.545  1.00  0.00     0.106 C 
HETATM    9  C   UNL     1      21.186  47.105  48.567  1.00  0.00     0.046 C 
HETATM   10  H   UNL     1      24.270  47.850  49.300  1.00  0.00     0.166 HD
ENDROOT
BRANCH   4  11
HETATM   11  S   UNL     1      25.166  45.381  50.028  1.00  0.00    -0.102 SA
BRANCH  11  12
HETATM   12  C   UNL     1      24.872  45.789  51.786  1.00  0.00     0.184 C 
BRANCH  12  13
HETATM   13  C   UNL     1      25.709  44.922  52.720  1.00  0.00     0.231 C 
HETATM   14  N   UNL     1      27.034  45.310  52.812  1.00  0.00    -0.327 N 
HETATM   15  H   UNL     1      27.321  46.039  52.166  1.00  0.00     0.169 HD
HETATM   16  O   UNL     1      25.175  44.020  53.361  1.00  0.00    -0.272 OA
BRANCH  14  17
HETATM   17  C   UNL     1      28.049  44.748  53.611  1.00  0.00     0.034 A 
HETATM   18  C   UNL     1      28.695  43.545  53.320  1.00  0.00     0.031 A 
HETATM   19  C   UNL     1      29.702  43.058  54.163  1.00  0.00     0.026 A 
HETATM   20  C   UNL     1      30.064  43.775  55.299  1.00  0.00     0.034 A 
HETATM   21 CL   UNL     1      31.306  43.178  56.329  1.00  0.00    -0.084 Cl
HETATM   22  C   UNL     1      29.425  44.973  55.605  1.00  0.00     0.026 A 
HETATM   23  C   UNL     1      28.418  45.456  54.764  1.00  0.00     0.031 A 
ENDBRANCH  14  17
ENDBRANCH  12  13
ENDBRANCH  11  12
ENDBRANCH   4  11
BRANCH   8  24
HETATM   24  C   UNL     1      21.169  44.986  47.138  1.00  0.00    -0.044 A 
HETATM   25  C   UNL     1      22.112  45.318  46.149  1.00  0.00     0.008 A 
HETATM   26  C   UNL     1      22.006  44.798  44.857  1.00  0.00     0.001 A 
HETATM   27  C   UNL     1      20.957  43.944  44.531  1.00  0.00     0.000 A 
HETATM   28  C   UNL     1      20.004  43.619  45.491  1.00  0.00     0.001 A 
HETATM   29  C   UNL     1      20.101  44.145  46.781  1.00  0.00     0.008 A 
ENDBRANCH   8  24
BRANCH   9  30
HETATM   30  C   UNL     1      19.834  47.721  48.526  1.00  0.00     0.255 C 
HETATM   31  N   UNL     1      19.596  48.448  47.393  1.00  0.00    -0.321 N 
HETATM   32  H   UNL     1      19.460  49.442  47.549  1.00  0.00     0.169 HD
HETATM   33  O   UNL     1      19.095  47.708  49.502  1.00  0.00    -0.268 OA
BRANCH  31  34
HETATM   34  C   UNL     1      18.739  48.003  46.351  1.00  0.00     0.068 A 
HETATM   35  C   UNL     1      17.381  48.357  46.424  1.00  0.00     0.095 A 
HETATM   36  C   UNL     1      16.522  48.059  45.362  1.00  0.00     0.039 A 
HETATM   37  C   UNL     1      16.999  47.354  44.257  1.00  0.00     0.003 A 
HETATM   38  C   UNL     1      18.326  46.933  44.218  1.00  0.00     0.002 A 
HETATM   39  C   UNL     1      19.194  47.252  45.264  1.00  0.00     0.032 A 
BRANCH  35  40
HETATM   40  O   UNL     1      16.971  49.043  47.542  1.00  0.00    -0.354 OA
HETATM   41  C   UNL     1      15.552  49.074  47.691  1.00  0.00     0.210 C 
ENDBRANCH  35  40
ENDBRANCH  31  34
ENDBRANCH   9  30
TORSDOF 8
ENDMDL
MODEL 8
REMARK VINA RESULT:      -7.8     21.882     24.467
REMARK  8 active torsions:
REMARK  status: ('A' for Active; 'I' for Inactive)
REMARK    1  A    between atoms: C_4  and  S_5 
REMARK    2  A    between atoms: S_5  and  C_6 
REMARK    3  A    between atoms: C_6  and  C_7 
REMARK       I    between atoms: C_7  and  N_8 
REMARK    4  A    between atoms: N_8  and  C_9 
REMARK    5  A    between atoms: C_20  and  C_21 
REMARK    6  A    between atoms: C_27  and  C_28 
REMARK       I    between atoms: C_28  and  N_29 
REMARK    7  A    between atoms: N_29  and  C_30 
REMARK    8  A    between atoms: C_31  and  O_32 
ROOT
HETATM    1  C   UNL     1      36.112  44.992  64.601  1.00  0.00     0.069 C 
HETATM    2  C   UNL     1      37.568  45.337  64.775  1.00  0.00     0.019 C 
HETATM    3  N   UNL     1      38.458  44.271  64.731  1.00  0.00    -0.353 N 
HETATM    4  C   UNL     1      39.821  44.417  64.513  1.00  0.00     0.088 C 
HETATM    5  C   UNL     1      40.385  45.644  64.636  1.00  0.00     0.069 C 
HETATM    6  C   UNL     1      41.741  45.914  64.290  1.00  0.00     0.099 C 
HETATM    7  N   UNL     1      42.845  46.135  64.007  1.00  0.00    -0.192 NA
HETATM    8  C   UNL     1      39.541  46.828  65.123  1.00  0.00     0.106 C 
HETATM    9  C   UNL     1      38.050  46.589  64.953  1.00  0.00     0.046 C 
HETATM   10  H   UNL     1      38.084  43.376  64.424  1.00  0.00     0.166 HD
ENDROOT
BRANCH   4  11
HETATM   11  S   UNL     1      40.753  43.019  64.006  1.00  0.00    -0.102 SA
BRANCH  11  12
HETATM   12  C   UNL     1      39.442  42.046  63.183  1.00  0.00     0.184 C 
BRANCH  12  13
HETATM   13  C   UNL     1      39.715  40.548  63.253  1.00  0.00     0.231 C 
HETATM   14  N   UNL     1      40.365  40.148  64.408  1.00  0.00    -0.327 N 
HETATM   15  H   UNL     1      40.688  40.900  65.009  1.00  0.00     0.169 HD
HETATM   16  O   UNL     1      39.301  39.808  62.364  1.00  0.00    -0.272 OA
BRANCH  14  17
HETATM   17  C   UNL     1      40.722  38.841  64.794  1.00  0.00     0.034 A 
HETATM   18  C   UNL     1      41.843  38.164  64.309  1.00  0.00     0.031 A 
HETATM   19  C   UNL     1      42.134  36.867  64.750  1.00  0.00     0.026 A 
HETATM   20  C   UNL     1      41.303  36.246  65.677  1.00  0.00     0.034 A 
HETATM   21 CL   UNL     1      41.666  34.655  66.223  1.00  0.00    -0.084 Cl
HETATM   22  C   UNL     1      40.180  36.907  66.165  1.00  0.00     0.026 A 
HETATM   23  C   UNL     1      39.889  38.200  65.721  1.00  0.00     0.031 A 
ENDBRANCH  14  17
ENDBRANCH  12  13
ENDBRANCH  11  12
ENDBRANCH   4  11
BRANCH   8  24
HETATM   24  C   UNL     1      39.945  47.178  66.563  1.00  0.00    -0.044 A 
HETATM   25  C   UNL     1      39.501  46.374  67.628  1.00  0.00     0.008 A 
HETATM   26  C   UNL     1      39.838  46.684  68.946  1.00  0.00     0.001 A 
HETATM   27  C   UNL     1      40.620  47.801  69.225  1.00  0.00     0.000 A 
HETATM   28  C   UNL     1      41.055  48.618  68.186  1.00  0.00     0.001 A 
HETATM   29  C   UNL     1      40.711  48.317  66.866  1.00  0.00     0.008 A 
ENDBRANCH   8  24
BRANCH   9  30
HETATM   30  C   UNL     1      37.152  47.766  64.819  1.00  0.00     0.255 C 
HETATM   31  N   UNL     1      36.693  48.243  66.015  1.00  0.00    -0.321 N 
HETATM   32  H   UNL     1      35.689  48.164  66.146  1.00  0.00     0.169 HD
HETATM   33  O   UNL     1      36.742  48.138  63.727  1.00  0.00    -0.268 OA
BRANCH  31  34
HETATM   34  C   UNL     1      37.159  49.453  66.598  1.00  0.00     0.068 A 
HETATM   35  C   UNL     1      37.001  49.616  67.984  1.00  0.00     0.095 A 
HETATM   36  C   UNL     1      37.557  50.726  68.627  1.00  0.00     0.039 A 
HETATM   37  C   UNL     1      38.216  51.704  67.882  1.00  0.00     0.003 A 
HETATM   38  C   UNL     1      38.306  51.584  66.497  1.00  0.00     0.002 A 
HETATM   39  C   UNL     1      37.775  50.464  65.854  1.00  0.00     0.032 A 
BRANCH  35  40
HETATM   40  O   UNL     1      36.334  48.622  68.660  1.00  0.00    -0.354 OA
HETATM   41  C   UNL     1      35.148  49.083  69.307  1.00  0.00     0.210 C 
ENDBRANCH  35  40
ENDBRANCH  31  34
ENDBRANCH   9  30
TORSDOF 8
ENDMDL
MODEL 9
REMARK VINA RESULT:      -7.8      2.019      4.266
REMARK  8 active torsions:
REMARK  status: ('A' for Active; 'I' for Inactive)
REMARK    1  A    between atoms: C_4  and  S_5 
REMARK    2  A    between atoms: S_5  and  C_6 
REMARK    3  A    between atoms: C_6  and  C_7 
REMARK       I    between atoms: C_7  and  N_8 
REMARK    4  A    between atoms: N_8  and  C_9 
REMARK    5  A    between atoms: C_20  and  C_21 
REMARK    6  A    between atoms: C_27  and  C_28 
REMARK       I    between atoms: C_28  and  N_29 
REMARK    7  A    between atoms: N_29  and  C_30 
REMARK    8  A    between atoms: C_31  and  O_32 
ROOT
HETATM    1  C   UNL     1      21.102  49.496  47.373  1.00  0.00     0.069 C 
HETATM    2  C   UNL     1      21.396  48.050  47.683  1.00  0.00     0.019 C 
HETATM    3  N   UNL     1      22.613  47.793  48.302  1.00  0.00    -0.353 N 
HETATM    4  C   UNL     1      22.899  46.614  48.975  1.00  0.00     0.088 C 
HETATM    5  C   UNL     1      22.096  45.535  48.793  1.00  0.00     0.069 C 
HETATM    6  C   UNL     1      22.226  44.335  49.550  1.00  0.00     0.099 C 
HETATM    7  N   UNL     1      22.329  43.357  50.167  1.00  0.00    -0.192 NA
HETATM    8  C   UNL     1      20.959  45.593  47.766  1.00  0.00     0.106 C 
HETATM    9  C   UNL     1      20.564  47.018  47.416  1.00  0.00     0.046 C 
HETATM   10  H   UNL     1      23.131  48.600  48.644  1.00  0.00     0.166 HD
ENDROOT
BRANCH   4  11
HETATM   11  S   UNL     1      24.243  46.584  50.102  1.00  0.00    -0.102 SA
BRANCH  11  12
HETATM   12  C   UNL     1      25.270  45.280  49.335  1.00  0.00     0.184 C 
BRANCH  12  13
HETATM   13  C   UNL     1      26.593  45.092  50.069  1.00  0.00     0.231 C 
HETATM   14  N   UNL     1      26.471  44.464  51.297  1.00  0.00    -0.327 N 
HETATM   15  H   UNL     1      25.519  44.314  51.616  1.00  0.00     0.169 HD
HETATM   16  O   UNL     1      27.646  45.423  49.529  1.00  0.00    -0.272 OA
BRANCH  14  17
HETATM   17  C   UNL     1      27.497  44.109  52.195  1.00  0.00     0.034 A 
HETATM   18  C   UNL     1      28.484  43.162  51.916  1.00  0.00     0.031 A 
HETATM   19  C   UNL     1      29.475  42.870  52.861  1.00  0.00     0.026 A 
HETATM   20  C   UNL     1      29.480  43.528  54.088  1.00  0.00     0.034 A 
HETATM   21 CL   UNL     1      30.703  43.174  55.245  1.00  0.00    -0.084 Cl
HETATM   22  C   UNL     1      28.500  44.471  54.381  1.00  0.00     0.026 A 
HETATM   23  C   UNL     1      27.508  44.757  53.438  1.00  0.00     0.031 A 
ENDBRANCH  14  17
ENDBRANCH  12  13
ENDBRANCH  11  12
ENDBRANCH   4  11
BRANCH   8  24
HETATM   24  C   UNL     1      21.338  44.744  46.544  1.00  0.00    -0.044 A 
HETATM   25  C   UNL     1      22.301  45.218  45.635  1.00  0.00     0.008 A 
HETATM   26  C   UNL     1      22.647  44.474  44.507  1.00  0.00     0.001 A 
HETATM   27  C   UNL     1      22.037  43.247  44.264  1.00  0.00     0.000 A 
HETATM   28  C   UNL     1      21.070  42.768  45.143  1.00  0.00     0.001 A 
HETATM   29  C   UNL     1      20.713  43.516  46.267  1.00  0.00     0.008 A 
ENDBRANCH   8  24
BRANCH   9  30
HETATM   30  C   UNL     1      19.183  47.273  46.927  1.00  0.00     0.255 C 
HETATM   31  N   UNL     1      18.270  47.450  47.929  1.00  0.00    -0.321 N 
HETATM   32  H   UNL     1      17.549  46.737  47.976  1.00  0.00     0.169 HD
HETATM   33  O   UNL     1      18.891  47.154  45.744  1.00  0.00    -0.268 OA
BRANCH  31  34
HETATM   34  C   UNL     1      17.715  48.716  48.258  1.00  0.00     0.068 A 
HETATM   35  C   UNL     1      18.142  49.329  49.447  1.00  0.00     0.095 A 
HETATM   36  C   UNL     1      17.729  50.629  49.752  1.00  0.00     0.039 A 
HETATM   37  C   UNL     1      16.842  51.295  48.906  1.00  0.00     0.003 A 
HETATM   38  C   UNL     1      16.356  50.659  47.766  1.00  0.00     0.002 A 
HETATM   39  C   UNL     1      16.787  49.371  47.444  1.00  0.00     0.032 A 
BRANCH  35  40
HETATM   40  O   UNL     1      19.009  48.619  50.243  1.00  0.00    -0.354 OA
HETATM   41  C   UNL     1      18.593  48.557  51.607  1.00  0.00     0.210 C 
ENDBRANCH  35  40
ENDBRANCH  31  34
ENDBRANCH   9  30
TORSDOF 8
ENDMDL
MODEL 10
REMARK VINA RESULT:      -7.7      2.265      4.233
REMARK  8 active torsions:
REMARK  status: ('A' for Active; 'I' for Inactive)
REMARK    1  A    between atoms: C_4  and  S_5 
REMARK    2  A    between atoms: S_5  and  C_6 
REMARK    3  A    between atoms: C_6  and  C_7 
REMARK       I    between atoms: C_7  and  N_8 
REMARK    4  A    between atoms: N_8  and  C_9 
REMARK    5  A    between atoms: C_20  and  C_21 
REMARK    6  A    between atoms: C_27  and  C_28 
REMARK       I    between atoms: C_28  and  N_29 
REMARK    7  A    between atoms: N_29  and  C_30 
REMARK    8  A    between atoms: C_31  and  O_32 
ROOT
HETATM    1  C   UNL     1      20.551  51.431  48.437  1.00  0.00     0.069 C 
HETATM    2  C   UNL     1      20.306  49.962  48.206  1.00  0.00     0.019 C 
HETATM    3  N   UNL     1      21.438  49.167  48.073  1.00  0.00    -0.353 N 
HETATM    4  C   UNL     1      21.428  47.787  48.216  1.00  0.00     0.088 C 
HETATM    5  C   UNL     1      20.244  47.126  48.193  1.00  0.00     0.069 C 
HETATM    6  C   UNL     1      20.126  45.734  48.477  1.00  0.00     0.099 C 
HETATM    7  N   UNL     1      20.029  44.601  48.710  1.00  0.00    -0.192 NA
HETATM    8  C   UNL     1      18.948  47.889  47.897  1.00  0.00     0.106 C 
HETATM    9  C   UNL     1      19.085  49.383  48.138  1.00  0.00     0.046 C 
HETATM   10  H   UNL     1      22.329  49.601  48.303  1.00  0.00     0.166 HD
ENDROOT
BRANCH   4  11
HETATM   11  S   UNL     1      22.946  46.953  48.503  1.00  0.00    -0.102 SA
BRANCH  11  12
HETATM   12  C   UNL     1      23.765  48.158  49.608  1.00  0.00     0.184 C 
BRANCH  12  13
HETATM   13  C   UNL     1      25.033  47.588  50.232  1.00  0.00     0.231 C 
HETATM   14  N   UNL     1      24.854  47.079  51.506  1.00  0.00    -0.327 N 
HETATM   15  H   UNL     1      23.943  47.251  51.920  1.00  0.00     0.169 HD
HETATM   16  O   UNL     1      26.073  47.547  49.577  1.00  0.00    -0.272 OA
BRANCH  14  17
HETATM   17  C   UNL     1      25.807  46.452  52.332  1.00  0.00     0.034 A 
HETATM   18  C   UNL     1      26.322  47.018  53.500  1.00  0.00     0.031 A 
HETATM   19  C   UNL     1      27.262  46.324  54.271  1.00  0.00     0.026 A 
HETATM   20  C   UNL     1      27.690  45.061  53.874  1.00  0.00     0.034 A 
HETATM   21 CL   UNL     1      28.840  44.207  54.826  1.00  0.00    -0.084 Cl
HETATM   22  C   UNL     1      27.191  44.486  52.709  1.00  0.00     0.026 A 
HETATM   23  C   UNL     1      26.254  45.182  51.939  1.00  0.00     0.031 A 
ENDBRANCH  14  17
ENDBRANCH  12  13
ENDBRANCH  11  12
ENDBRANCH   4  11
BRANCH   8  24
HETATM   24  C   UNL     1      18.467  47.538  46.482  1.00  0.00    -0.044 A 
HETATM   25  C   UNL     1      17.543  46.494  46.297  1.00  0.00     0.008 A 
HETATM   26  C   UNL     1      17.106  46.143  45.019  1.00  0.00     0.001 A 
HETATM   27  C   UNL     1      17.587  46.823  43.904  1.00  0.00     0.000 A 
HETATM   28  C   UNL     1      18.515  47.847  44.065  1.00  0.00     0.001 A 
HETATM   29  C   UNL     1      18.962  48.194  45.342  1.00  0.00     0.008 A 
ENDBRANCH   8  24
BRANCH   9  30
HETATM   30  C   UNL     1      17.863  50.167  48.459  1.00  0.00     0.255 C 
HETATM   31  N   UNL     1      17.330  50.818  47.382  1.00  0.00    -0.321 N 
HETATM   32  H   UNL     1      17.349  51.832  47.449  1.00  0.00     0.169 HD
HETATM   33  O   UNL     1      17.496  50.335  49.616  1.00  0.00    -0.268 OA
BRANCH  31  34
HETATM   34  C   UNL     1      16.134  50.402  46.738  1.00  0.00     0.068 A 
HETATM   35  C   UNL     1      15.671  51.170  45.656  1.00  0.00     0.095 A 
HETATM   36  C   UNL     1      14.576  50.734  44.905  1.00  0.00     0.039 A 
HETATM   37  C   UNL     1      13.903  49.567  45.268  1.00  0.00     0.003 A 
HETATM   38  C   UNL     1      14.312  48.845  46.387  1.00  0.00     0.002 A 
HETATM   39  C   UNL     1      15.422  49.263  47.124  1.00  0.00     0.032 A 
BRANCH  35  40
HETATM   40  O   UNL     1      16.372  52.314  45.355  1.00  0.00    -0.354 OA
HETATM   41  C   UNL     1      15.528  53.420  45.035  1.00  0.00     0.210 C 
ENDBRANCH  35  40
ENDBRANCH  31  34
ENDBRANCH   9  30
TORSDOF 8
ENDMDL
