MODEL 1
REMARK VINA RESULT:     -10.2      0.000      0.000
REMARK  8 active torsions:
REMARK  status: ('A' for Active; 'I' for Inactive)
REMARK    1  A    between atoms: N_4  and  C_5 
REMARK    2  A    between atoms: C_11  and  O_12 
REMARK    3  A    between atoms: C_13  and  C_14 
REMARK    4  A    between atoms: N_15  and  N_16 
REMARK       I    between atoms: N_16  and  C_17 
REMARK    5  A    between atoms: C_17  and  C_18 
REMARK    6  A    between atoms: C_18  and  C_19 
REMARK    7  A    between atoms: C_19  and  N_20 
REMARK       I    between atoms: N_20  and  C_21 
REMARK    8  A    between atoms: C_21  and  C_22 
ROOT
HETATM    1  C   UNL     1      25.048  47.872  49.884  1.00  0.00     0.156 C 
HETATM    2  N   UNL     1      24.589  47.523  51.045  1.00  0.00    -0.184 NA
ENDROOT
BRANCH   2   3
HETATM    3  N   UNL     1      25.376  46.696  51.812  1.00  0.00    -0.247 N 
HETATM    4  C   UNL     1      25.121  45.342  52.025  1.00  0.00     0.239 C 
HETATM    5  O   UNL     1      24.133  44.734  51.623  1.00  0.00    -0.272 OA
HETATM    6  H   UNL     1      26.341  47.008  51.886  1.00  0.00     0.192 HD
BRANCH   4   7
HETATM    7  C   UNL     1      26.189  44.694  52.880  1.00  0.00     0.124 C 
BRANCH   7   8
HETATM    8  C   UNL     1      26.746  45.681  53.901  1.00  0.00     0.132 C 
BRANCH   8   9
HETATM    9  N   UNL     1      27.726  45.094  54.802  1.00  0.00    -0.356 N 
HETATM   10  C   UNL     1      28.806  45.812  55.274  1.00  0.00     0.251 C 
HETATM   11  O   UNL     1      28.956  47.012  55.068  1.00  0.00    -0.268 OA
HETATM   12  H   UNL     1      27.800  44.086  54.784  1.00  0.00     0.162 HD
BRANCH  10  13
HETATM   13  C   UNL     1      29.834  45.047  56.040  1.00  0.00     0.032 A 
HETATM   14  C   UNL     1      30.451  43.896  55.527  1.00  0.00     0.017 A 
HETATM   15  C   UNL     1      31.417  43.224  56.283  1.00  0.00     0.001 A 
HETATM   16  C   UNL     1      31.759  43.686  57.553  1.00  0.00     0.000 A 
HETATM   17  C   UNL     1      31.134  44.817  58.076  1.00  0.00     0.001 A 
HETATM   18  C   UNL     1      30.172  45.494  57.324  1.00  0.00     0.017 A 
ENDBRANCH  10  13
ENDBRANCH   8   9
ENDBRANCH   7   8
ENDBRANCH   4   7
ENDBRANCH   2   3
BRANCH   1  19
HETATM   19  C   UNL     1      24.272  48.760  49.051  1.00  0.00     0.062 C 
HETATM   20  C   UNL     1      24.674  49.749  48.120  1.00  0.00     0.067 C 
HETATM   21  C   UNL     1      26.052  50.149  47.739  1.00  0.00     0.073 C 
HETATM   22  N   UNL     1      23.626  50.329  47.522  1.00  0.00    -0.169 NA
HETATM   23  N   UNL     1      22.535  49.810  48.143  1.00  0.00    -0.210 N 
HETATM   24  C   UNL     1      22.893  48.747  48.974  1.00  0.00     0.177 C 
BRANCH  23  25
HETATM   25  C   UNL     1      21.245  50.371  47.906  1.00  0.00     0.061 A 
HETATM   26  C   UNL     1      20.845  51.501  48.635  1.00  0.00     0.031 A 
HETATM   27  C   UNL     1      19.589  52.071  48.420  1.00  0.00     0.002 A 
HETATM   28  C   UNL     1      18.716  51.509  47.489  1.00  0.00     0.000 A 
HETATM   29  C   UNL     1      19.094  50.368  46.783  1.00  0.00     0.002 A 
HETATM   30  C   UNL     1      20.351  49.794  46.993  1.00  0.00     0.031 A 
ENDBRANCH  23  25
BRANCH  24  31
HETATM   31  O   UNL     1      22.036  47.895  49.544  1.00  0.00    -0.344 OA
HETATM   32  H   UNL     1      22.507  47.058  49.719  1.00  0.00     0.219 HD
ENDBRANCH  24  31
ENDBRANCH   1  19
TORSDOF 8
ENDMDL
MODEL 2
REMARK VINA RESULT:      -9.9      1.477      1.917
REMARK  8 active torsions:
REMARK  status: ('A' for Active; 'I' for Inactive)
REMARK    1  A    between atoms: N_4  and  C_5 
REMARK    2  A    between atoms: C_11  and  O_12 
REMARK    3  A    between atoms: C_13  and  C_14 
REMARK    4  A    between atoms: N_15  and  N_16 
REMARK       I    between atoms: N_16  and  C_17 
REMARK    5  A    between atoms: C_17  and  C_18 
REMARK    6  A    between atoms: C_18  and  C_19 
REMARK    7  A    between atoms: C_19  and  N_20 
REMARK       I    between atoms: N_20  and  C_21 
REMARK    8  A    between atoms: C_21  and  C_22 
ROOT
HETATM    1  C   UNL     1      24.561  47.738  49.851  1.00  0.00     0.156 C 
HETATM    2  N   UNL     1      24.094  46.535  49.962  1.00  0.00    -0.184 NA
ENDROOT
BRANCH   2   3
HETATM    3  N   UNL     1      24.787  45.660  50.767  1.00  0.00    -0.247 N 
HETATM    4  C   UNL     1      24.328  44.396  51.133  1.00  0.00     0.239 C 
HETATM    5  O   UNL     1      23.227  43.931  50.850  1.00  0.00    -0.272 OA
HETATM    6  H   UNL     1      25.792  45.809  50.756  1.00  0.00     0.192 HD
BRANCH   4   7
HETATM    7  C   UNL     1      25.332  43.658  51.992  1.00  0.00     0.124 C 
BRANCH   7   8
HETATM    8  C   UNL     1      26.748  43.836  51.455  1.00  0.00     0.132 C 
BRANCH   8   9
HETATM    9  N   UNL     1      27.710  44.235  52.471  1.00  0.00    -0.356 N 
HETATM   10  C   UNL     1      28.289  43.321  53.328  1.00  0.00     0.251 C 
HETATM   11  O   UNL     1      28.130  42.109  53.223  1.00  0.00    -0.268 OA
HETATM   12  H   UNL     1      27.669  45.200  52.768  1.00  0.00     0.162 HD
BRANCH  10  13
HETATM   13  C   UNL     1      29.114  43.877  54.440  1.00  0.00     0.032 A 
HETATM   14  C   UNL     1      28.831  45.112  55.042  1.00  0.00     0.017 A 
HETATM   15  C   UNL     1      29.630  45.580  56.089  1.00  0.00     0.001 A 
HETATM   16  C   UNL     1      30.719  44.829  56.529  1.00  0.00     0.000 A 
HETATM   17  C   UNL     1      31.019  43.612  55.921  1.00  0.00     0.001 A 
HETATM   18  C   UNL     1      30.221  43.137  54.878  1.00  0.00     0.017 A 
ENDBRANCH  10  13
ENDBRANCH   8   9
ENDBRANCH   7   8
ENDBRANCH   4   7
ENDBRANCH   2   3
BRANCH   1  19
HETATM   19  C   UNL     1      23.858  48.703  49.039  1.00  0.00     0.062 C 
HETATM   20  C   UNL     1      24.337  49.702  48.158  1.00  0.00     0.067 C 
HETATM   21  C   UNL     1      25.744  50.035  47.821  1.00  0.00     0.073 C 
HETATM   22  N   UNL     1      23.338  50.366  47.563  1.00  0.00    -0.169 NA
HETATM   23  N   UNL     1      22.205  49.887  48.140  1.00  0.00    -0.210 N 
HETATM   24  C   UNL     1      22.482  48.774  48.934  1.00  0.00     0.177 C 
BRANCH  23  25
HETATM   25  C   UNL     1      20.955  50.532  47.899  1.00  0.00     0.061 A 
HETATM   26  C   UNL     1      20.588  51.631  48.690  1.00  0.00     0.031 A 
HETATM   27  C   UNL     1      19.372  52.281  48.473  1.00  0.00     0.002 A 
HETATM   28  C   UNL     1      18.506  51.830  47.478  1.00  0.00     0.000 A 
HETATM   29  C   UNL     1      18.849  50.720  46.709  1.00  0.00     0.002 A 
HETATM   30  C   UNL     1      20.066  50.066  46.920  1.00  0.00     0.031 A 
ENDBRANCH  23  25
BRANCH  24  31
HETATM   31  O   UNL     1      21.565  47.951  49.451  1.00  0.00    -0.344 OA
HETATM   32  H   UNL     1      21.971  47.071  49.563  1.00  0.00     0.219 HD
ENDBRANCH  24  31
ENDBRANCH   1  19
TORSDOF 8
ENDMDL
MODEL 3
REMARK VINA RESULT:      -9.6      1.755     11.298
REMARK  8 active torsions:
REMARK  status: ('A' for Active; 'I' for Inactive)
REMARK    1  A    between atoms: N_4  and  C_5 
REMARK    2  A    between atoms: C_11  and  O_12 
REMARK    3  A    between atoms: C_13  and  C_14 
REMARK    4  A    between atoms: N_15  and  N_16 
REMARK       I    between atoms: N_16  and  C_17 
REMARK    5  A    between atoms: C_17  and  C_18 
REMARK    6  A    between atoms: C_18  and  C_19 
REMARK    7  A    between atoms: C_19  and  N_20 
REMARK       I    between atoms: N_20  and  C_21 
REMARK    8  A    between atoms: C_21  and  C_22 
ROOT
HETATM    1  C   UNL     1      25.794  47.065  53.307  1.00  0.00     0.156 C 
HETATM    2  N   UNL     1      26.192  46.916  52.083  1.00  0.00    -0.184 NA
ENDROOT
BRANCH   2   3
HETATM    3  N   UNL     1      25.278  47.170  51.087  1.00  0.00    -0.247 N 
HETATM    4  C   UNL     1      24.545  46.187  50.423  1.00  0.00     0.239 C 
HETATM    5  O   UNL     1      24.670  44.977  50.586  1.00  0.00    -0.272 OA
HETATM    6  H   UNL     1      24.878  48.103  51.132  1.00  0.00     0.192 HD
BRANCH   4   7
HETATM    7  C   UNL     1      23.594  46.783  49.407  1.00  0.00     0.124 C 
BRANCH   7   8
HETATM    8  C   UNL     1      23.651  48.306  49.431  1.00  0.00     0.132 C 
BRANCH   8   9
HETATM    9  N   UNL     1      22.354  48.939  49.250  1.00  0.00    -0.356 N 
HETATM   10  C   UNL     1      22.159  50.286  49.485  1.00  0.00     0.251 C 
HETATM   11  O   UNL     1      23.073  51.061  49.745  1.00  0.00    -0.268 OA
HETATM   12  H   UNL     1      21.550  48.330  49.304  1.00  0.00     0.162 HD
BRANCH  10  13
HETATM   13  C   UNL     1      20.749  50.774  49.442  1.00  0.00     0.032 A 
HETATM   14  C   UNL     1      19.744  50.244  50.264  1.00  0.00     0.017 A 
HETATM   15  C   UNL     1      18.442  50.747  50.191  1.00  0.00     0.001 A 
HETATM   16  C   UNL     1      18.134  51.768  49.293  1.00  0.00     0.000 A 
HETATM   17  C   UNL     1      19.124  52.284  48.458  1.00  0.00     0.001 A 
HETATM   18  C   UNL     1      20.427  51.788  48.530  1.00  0.00     0.017 A 
ENDBRANCH  10  13
ENDBRANCH   8   9
ENDBRANCH   7   8
ENDBRANCH   4   7
ENDBRANCH   2   3
BRANCH   1  19
HETATM   19  C   UNL     1      26.721  46.837  54.390  1.00  0.00     0.062 C 
HETATM   20  C   UNL     1      27.025  47.615  55.533  1.00  0.00     0.067 C 
HETATM   21  C   UNL     1      26.447  48.921  55.938  1.00  0.00     0.073 C 
HETATM   22  N   UNL     1      27.928  47.018  56.320  1.00  0.00    -0.169 NA
HETATM   23  N   UNL     1      28.309  45.906  55.638  1.00  0.00    -0.210 N 
HETATM   24  C   UNL     1      27.485  45.694  54.531  1.00  0.00     0.177 C 
BRANCH  23  25
HETATM   25  C   UNL     1      29.428  45.143  56.085  1.00  0.00     0.061 A 
HETATM   26  C   UNL     1      29.931  44.121  55.265  1.00  0.00     0.031 A 
HETATM   27  C   UNL     1      31.027  43.361  55.678  1.00  0.00     0.002 A 
HETATM   28  C   UNL     1      31.618  43.602  56.917  1.00  0.00     0.000 A 
HETATM   29  C   UNL     1      31.105  44.594  57.750  1.00  0.00     0.002 A 
HETATM   30  C   UNL     1      30.009  45.360  57.342  1.00  0.00     0.031 A 
ENDBRANCH  23  25
BRANCH  24  31
HETATM   31  O   UNL     1      27.458  44.580  53.794  1.00  0.00    -0.344 OA
HETATM   32  H   UNL     1      27.556  44.830  52.857  1.00  0.00     0.219 HD
ENDBRANCH  24  31
ENDBRANCH   1  19
TORSDOF 8
ENDMDL
MODEL 4
REMARK VINA RESULT:      -9.6      1.458      2.088
REMARK  8 active torsions:
REMARK  status: ('A' for Active; 'I' for Inactive)
REMARK    1  A    between atoms: N_4  and  C_5 
REMARK    2  A    between atoms: C_11  and  O_12 
REMARK    3  A    between atoms: C_13  and  C_14 
REMARK    4  A    between atoms: N_15  and  N_16 
REMARK       I    between atoms: N_16  and  C_17 
REMARK    5  A    between atoms: C_17  and  C_18 
REMARK    6  A    between atoms: C_18  and  C_19 
REMARK    7  A    between atoms: C_19  and  N_20 
REMARK       I    between atoms: N_20  and  C_21 
REMARK    8  A    between atoms: C_21  and  C_22 
ROOT
HETATM    1  C   UNL     1      26.103  46.870  50.600  1.00  0.00     0.156 C 
HETATM    2  N   UNL     1      26.155  45.645  50.181  1.00  0.00    -0.184 NA
ENDROOT
BRANCH   2   3
HETATM    3  N   UNL     1      26.795  44.729  50.984  1.00  0.00    -0.247 N 
HETATM    4  C   UNL     1      26.149  43.898  51.898  1.00  0.00     0.239 C 
HETATM    5  O   UNL     1      24.949  43.924  52.156  1.00  0.00    -0.272 OA
HETATM    6  H   UNL     1      27.684  44.411  50.608  1.00  0.00     0.192 HD
BRANCH   4   7
HETATM    7  C   UNL     1      27.118  42.974  52.603  1.00  0.00     0.124 C 
BRANCH   7   8
HETATM    8  C   UNL     1      28.533  43.542  52.580  1.00  0.00     0.132 C 
BRANCH   8   9
HETATM    9  N   UNL     1      29.149  43.625  53.895  1.00  0.00    -0.356 N 
HETATM   10  C   UNL     1      29.005  44.737  54.700  1.00  0.00     0.251 C 
HETATM   11  O   UNL     1      28.266  45.675  54.423  1.00  0.00    -0.268 OA
HETATM   12  H   UNL     1      29.951  43.031  54.049  1.00  0.00     0.162 HD
BRANCH  10  13
HETATM   13  C   UNL     1      29.833  44.774  55.941  1.00  0.00     0.032 A 
HETATM   14  C   UNL     1      29.698  45.783  56.905  1.00  0.00     0.017 A 
HETATM   15  C   UNL     1      30.492  45.763  58.056  1.00  0.00     0.001 A 
HETATM   16  C   UNL     1      31.429  44.749  58.243  1.00  0.00     0.000 A 
HETATM   17  C   UNL     1      31.584  43.754  57.279  1.00  0.00     0.001 A 
HETATM   18  C   UNL     1      30.790  43.768  56.130  1.00  0.00     0.017 A 
ENDBRANCH  10  13
ENDBRANCH   8   9
ENDBRANCH   7   8
ENDBRANCH   4   7
ENDBRANCH   2   3
BRANCH   1  19
HETATM   19  C   UNL     1      25.421  47.865  49.807  1.00  0.00     0.062 C 
HETATM   20  C   UNL     1      25.919  48.957  49.057  1.00  0.00     0.067 C 
HETATM   21  C   UNL     1      27.329  49.385  48.879  1.00  0.00     0.073 C 
HETATM   22  N   UNL     1      24.941  49.620  48.428  1.00  0.00    -0.169 NA
HETATM   23  N   UNL     1      23.790  49.041  48.858  1.00  0.00    -0.210 N 
HETATM   24  C   UNL     1      24.058  47.878  49.581  1.00  0.00     0.177 C 
BRANCH  23  25
HETATM   25  C   UNL     1      22.533  49.642  48.556  1.00  0.00     0.061 A 
HETATM   26  C   UNL     1      21.623  48.954  47.737  1.00  0.00     0.031 A 
HETATM   27  C   UNL     1      20.385  49.520  47.428  1.00  0.00     0.002 A 
HETATM   28  C   UNL     1      20.050  50.781  47.919  1.00  0.00     0.000 A 
HETATM   29  C   UNL     1      20.959  51.484  48.707  1.00  0.00     0.002 A 
HETATM   30  C   UNL     1      22.201  50.923  49.021  1.00  0.00     0.031 A 
ENDBRANCH  23  25
BRANCH  24  31
HETATM   31  O   UNL     1      23.146  46.971  49.944  1.00  0.00    -0.344 OA
HETATM   32  H   UNL     1      22.530  46.841  49.199  1.00  0.00     0.219 HD
ENDBRANCH  24  31
ENDBRANCH   1  19
TORSDOF 8
ENDMDL
MODEL 5
REMARK VINA RESULT:      -9.3      1.828     11.558
REMARK  8 active torsions:
REMARK  status: ('A' for Active; 'I' for Inactive)
REMARK    1  A    between atoms: N_4  and  C_5 
REMARK    2  A    between atoms: C_11  and  O_12 
REMARK    3  A    between atoms: C_13  and  C_14 
REMARK    4  A    between atoms: N_15  and  N_16 
REMARK       I    between atoms: N_16  and  C_17 
REMARK    5  A    between atoms: C_17  and  C_18 
REMARK    6  A    between atoms: C_18  and  C_19 
REMARK    7  A    between atoms: C_19  and  N_20 
REMARK       I    between atoms: N_20  and  C_21 
REMARK    8  A    between atoms: C_21  and  C_22 
ROOT
HETATM    1  C   UNL     1      26.411  44.484  52.119  1.00  0.00     0.156 C 
HETATM    2  N   UNL     1      26.379  45.661  51.578  1.00  0.00    -0.184 NA
ENDROOT
BRANCH   2   3
HETATM    3  N   UNL     1      25.230  46.018  50.911  1.00  0.00    -0.247 N 
HETATM    4  C   UNL     1      25.032  47.249  50.287  1.00  0.00     0.239 C 
HETATM    5  O   UNL     1      25.818  48.192  50.314  1.00  0.00    -0.272 OA
HETATM    6  H   UNL     1      24.703  45.223  50.558  1.00  0.00     0.192 HD
BRANCH   4   7
HETATM    7  C   UNL     1      23.683  47.326  49.605  1.00  0.00     0.124 C 
BRANCH   7   8
HETATM    8  C   UNL     1      23.622  48.508  48.644  1.00  0.00     0.132 C 
BRANCH   8   9
HETATM    9  N   UNL     1      22.328  49.172  48.621  1.00  0.00    -0.356 N 
HETATM   10  C   UNL     1      22.110  50.370  49.270  1.00  0.00     0.251 C 
HETATM   11  O   UNL     1      23.004  51.014  49.809  1.00  0.00    -0.268 OA
HETATM   12  H   UNL     1      21.529  48.582  48.437  1.00  0.00     0.162 HD
BRANCH  10  13
HETATM   13  C   UNL     1      20.699  50.853  49.325  1.00  0.00     0.032 A 
HETATM   14  C   UNL     1      19.740  50.278  50.172  1.00  0.00     0.017 A 
HETATM   15  C   UNL     1      18.434  50.778  50.192  1.00  0.00     0.001 A 
HETATM   16  C   UNL     1      18.077  51.840  49.362  1.00  0.00     0.000 A 
HETATM   17  C   UNL     1      19.020  52.401  48.503  1.00  0.00     0.001 A 
HETATM   18  C   UNL     1      20.327  51.909  48.482  1.00  0.00     0.017 A 
ENDBRANCH  10  13
ENDBRANCH   8   9
ENDBRANCH   7   8
ENDBRANCH   4   7
ENDBRANCH   2   3
BRANCH   1  19
HETATM   19  C   UNL     1      27.584  44.070  52.853  1.00  0.00     0.062 C 
HETATM   20  C   UNL     1      28.438  42.954  52.687  1.00  0.00     0.067 C 
HETATM   21  C   UNL     1      28.354  41.872  51.674  1.00  0.00     0.073 C 
HETATM   22  N   UNL     1      29.448  42.960  53.566  1.00  0.00    -0.169 NA
HETATM   23  N   UNL     1      29.192  44.012  54.388  1.00  0.00    -0.210 N 
HETATM   24  C   UNL     1      28.147  44.791  53.889  1.00  0.00     0.177 C 
BRANCH  23  25
HETATM   25  C   UNL     1      29.952  44.186  55.582  1.00  0.00     0.061 A 
HETATM   26  C   UNL     1      29.735  45.326  56.372  1.00  0.00     0.031 A 
HETATM   27  C   UNL     1      30.464  45.519  57.547  1.00  0.00     0.002 A 
HETATM   28  C   UNL     1      31.425  44.586  57.934  1.00  0.00     0.000 A 
HETATM   29  C   UNL     1      31.668  43.468  57.140  1.00  0.00     0.002 A 
HETATM   30  C   UNL     1      30.941  43.268  55.962  1.00  0.00     0.031 A 
ENDBRANCH  23  25
BRANCH  24  31
HETATM   31  O   UNL     1      27.806  46.002  54.341  1.00  0.00    -0.344 OA
HETATM   32  H   UNL     1      28.585  46.395  54.778  1.00  0.00     0.219 HD
ENDBRANCH  24  31
ENDBRANCH   1  19
TORSDOF 8
ENDMDL
MODEL 6
REMARK VINA RESULT:      -9.2      2.420      3.395
REMARK  8 active torsions:
REMARK  status: ('A' for Active; 'I' for Inactive)
REMARK    1  A    between atoms: N_4  and  C_5 
REMARK    2  A    between atoms: C_11  and  O_12 
REMARK    3  A    between atoms: C_13  and  C_14 
REMARK    4  A    between atoms: N_15  and  N_16 
REMARK       I    between atoms: N_16  and  C_17 
REMARK    5  A    between atoms: C_17  and  C_18 
REMARK    6  A    between atoms: C_18  and  C_19 
REMARK    7  A    between atoms: C_19  and  N_20 
REMARK       I    between atoms: N_20  and  C_21 
REMARK    8  A    between atoms: C_21  and  C_22 
ROOT
HETATM    1  C   UNL     1      25.709  44.692  50.573  1.00  0.00     0.156 C 
HETATM    2  N   UNL     1      25.348  43.788  51.428  1.00  0.00    -0.184 NA
ENDROOT
BRANCH   2   3
HETATM    3  N   UNL     1      26.346  43.081  52.058  1.00  0.00    -0.247 N 
HETATM    4  C   UNL     1      26.869  41.875  51.593  1.00  0.00     0.239 C 
HETATM    5  O   UNL     1      26.463  41.256  50.614  1.00  0.00    -0.272 OA
HETATM    6  H   UNL     1      26.945  43.658  52.642  1.00  0.00     0.192 HD
BRANCH   4   7
HETATM    7  C   UNL     1      27.982  41.363  52.482  1.00  0.00     0.124 C 
BRANCH   7   8
HETATM    8  C   UNL     1      29.180  42.305  52.458  1.00  0.00     0.132 C 
BRANCH   8   9
HETATM    9  N   UNL     1      29.675  42.651  53.781  1.00  0.00    -0.356 N 
HETATM   10  C   UNL     1      29.344  43.840  54.397  1.00  0.00     0.251 C 
HETATM   11  O   UNL     1      28.528  44.631  53.935  1.00  0.00    -0.268 OA
HETATM   12  H   UNL     1      30.525  42.188  54.073  1.00  0.00     0.162 HD
BRANCH  10  13
HETATM   13  C   UNL     1      30.060  44.157  55.668  1.00  0.00     0.032 A 
HETATM   14  C   UNL     1      31.014  43.295  56.228  1.00  0.00     0.017 A 
HETATM   15  C   UNL     1      31.664  43.647  57.415  1.00  0.00     0.001 A 
HETATM   16  C   UNL     1      31.358  44.848  58.053  1.00  0.00     0.000 A 
HETATM   17  C   UNL     1      30.395  45.699  57.512  1.00  0.00     0.001 A 
HETATM   18  C   UNL     1      29.747  45.354  56.325  1.00  0.00     0.017 A 
ENDBRANCH  10  13
ENDBRANCH   8   9
ENDBRANCH   7   8
ENDBRANCH   4   7
ENDBRANCH   2   3
BRANCH   1  19
HETATM   19  C   UNL     1      24.702  45.481  49.903  1.00  0.00     0.062 C 
HETATM   20  C   UNL     1      23.751  45.129  48.916  1.00  0.00     0.067 C 
HETATM   21  C   UNL     1      23.526  43.805  48.283  1.00  0.00     0.073 C 
HETATM   22  N   UNL     1      22.966  46.162  48.586  1.00  0.00    -0.169 NA
HETATM   23  N   UNL     1      23.476  47.223  49.265  1.00  0.00    -0.210 N 
HETATM   24  C   UNL     1      24.440  46.808  50.186  1.00  0.00     0.177 C 
BRANCH  23  25
HETATM   25  C   UNL     1      23.016  48.542  48.978  1.00  0.00     0.061 A 
HETATM   26  C   UNL     1      23.933  49.504  48.526  1.00  0.00     0.031 A 
HETATM   27  C   UNL     1      23.508  50.802  48.236  1.00  0.00     0.002 A 
HETATM   28  C   UNL     1      22.171  51.155  48.409  1.00  0.00     0.000 A 
HETATM   29  C   UNL     1      21.260  50.214  48.887  1.00  0.00     0.002 A 
HETATM   30  C   UNL     1      21.679  48.913  49.178  1.00  0.00     0.031 A 
ENDBRANCH  23  25
BRANCH  24  31
HETATM   31  O   UNL     1      24.961  47.572  51.150  1.00  0.00    -0.344 OA
HETATM   32  H   UNL     1      25.522  48.252  50.732  1.00  0.00     0.219 HD
ENDBRANCH  24  31
ENDBRANCH   1  19
TORSDOF 8
ENDMDL
MODEL 7
REMARK VINA RESULT:      -8.7      3.201     10.096
REMARK  8 active torsions:
REMARK  status: ('A' for Active; 'I' for Inactive)
REMARK    1  A    between atoms: N_4  and  C_5 
REMARK    2  A    between atoms: C_11  and  O_12 
REMARK    3  A    between atoms: C_13  and  C_14 
REMARK    4  A    between atoms: N_15  and  N_16 
REMARK       I    between atoms: N_16  and  C_17 
REMARK    5  A    between atoms: C_17  and  C_18 
REMARK    6  A    between atoms: C_18  and  C_19 
REMARK    7  A    between atoms: C_19  and  N_20 
REMARK       I    between atoms: N_20  and  C_21 
REMARK    8  A    between atoms: C_21  and  C_22 
ROOT
HETATM    1  C   UNL     1      26.295  44.102  52.360  1.00  0.00     0.156 C 
HETATM    2  N   UNL     1      26.482  42.845  52.110  1.00  0.00    -0.184 NA
ENDROOT
BRANCH   2   3
HETATM    3  N   UNL     1      25.788  42.301  51.054  1.00  0.00    -0.247 N 
HETATM    4  C   UNL     1      26.202  42.364  49.725  1.00  0.00     0.239 C 
HETATM    5  O   UNL     1      27.189  42.970  49.316  1.00  0.00    -0.272 OA
HETATM    6  H   UNL     1      25.185  41.527  51.322  1.00  0.00     0.192 HD
BRANCH   4   7
HETATM    7  C   UNL     1      25.246  41.639  48.801  1.00  0.00     0.124 C 
BRANCH   7   8
HETATM    8  C   UNL     1      24.161  42.578  48.288  1.00  0.00     0.132 C 
BRANCH   8   9
HETATM    9  N   UNL     1      24.498  43.986  48.425  1.00  0.00    -0.356 N 
HETATM   10  C   UNL     1      23.971  44.769  49.433  1.00  0.00     0.251 C 
HETATM   11  O   UNL     1      23.283  44.318  50.342  1.00  0.00    -0.268 OA
HETATM   12  H   UNL     1      24.823  44.450  47.588  1.00  0.00     0.162 HD
BRANCH  10  13
HETATM   13  C   UNL     1      24.249  46.233  49.356  1.00  0.00     0.032 A 
HETATM   14  C   UNL     1      25.490  46.783  49.707  1.00  0.00     0.017 A 
HETATM   15  C   UNL     1      25.700  48.161  49.606  1.00  0.00     0.001 A 
HETATM   16  C   UNL     1      24.673  48.996  49.168  1.00  0.00     0.000 A 
HETATM   17  C   UNL     1      23.430  48.459  48.838  1.00  0.00     0.001 A 
HETATM   18  C   UNL     1      23.217  47.082  48.934  1.00  0.00     0.017 A 
ENDBRANCH  10  13
ENDBRANCH   8   9
ENDBRANCH   7   8
ENDBRANCH   4   7
ENDBRANCH   2   3
BRANCH   1  19
HETATM   19  C   UNL     1      27.019  44.728  53.441  1.00  0.00     0.062 C 
HETATM   20  C   UNL     1      27.054  46.074  53.880  1.00  0.00     0.067 C 
HETATM   21  C   UNL     1      26.326  47.243  53.325  1.00  0.00     0.073 C 
HETATM   22  N   UNL     1      27.834  46.230  54.956  1.00  0.00    -0.169 NA
HETATM   23  N   UNL     1      28.407  45.014  55.155  1.00  0.00    -0.210 N 
HETATM   24  C   UNL     1      27.818  44.047  54.339  1.00  0.00     0.177 C 
BRANCH  23  25
HETATM   25  C   UNL     1      29.471  44.872  56.093  1.00  0.00     0.061 A 
HETATM   26  C   UNL     1      29.526  45.730  57.202  1.00  0.00     0.031 A 
HETATM   27  C   UNL     1      30.556  45.610  58.137  1.00  0.00     0.002 A 
HETATM   28  C   UNL     1      31.547  44.645  57.964  1.00  0.00     0.000 A 
HETATM   29  C   UNL     1      31.518  43.809  56.850  1.00  0.00     0.002 A 
HETATM   30  C   UNL     1      30.488  43.924  55.911  1.00  0.00     0.031 A 
ENDBRANCH  23  25
BRANCH  24  31
HETATM   31  O   UNL     1      28.001  42.728  54.454  1.00  0.00    -0.344 OA
HETATM   32  H   UNL     1      28.386  42.548  55.332  1.00  0.00     0.219 HD
ENDBRANCH  24  31
ENDBRANCH   1  19
TORSDOF 8
ENDMDL
MODEL 8
REMARK VINA RESULT:      -8.7      2.099     10.764
REMARK  8 active torsions:
REMARK  status: ('A' for Active; 'I' for Inactive)
REMARK    1  A    between atoms: N_4  and  C_5 
REMARK    2  A    between atoms: C_11  and  O_12 
REMARK    3  A    between atoms: C_13  and  C_14 
REMARK    4  A    between atoms: N_15  and  N_16 
REMARK       I    between atoms: N_16  and  C_17 
REMARK    5  A    between atoms: C_17  and  C_18 
REMARK    6  A    between atoms: C_18  and  C_19 
REMARK    7  A    between atoms: C_19  and  N_20 
REMARK       I    between atoms: N_20  and  C_21 
REMARK    8  A    between atoms: C_21  and  C_22 
ROOT
HETATM    1  C   UNL     1      26.330  45.420  52.097  1.00  0.00     0.156 C 
HETATM    2  N   UNL     1      26.028  44.237  51.662  1.00  0.00    -0.184 NA
ENDROOT
BRANCH   2   3
HETATM    3  N   UNL     1      25.404  44.155  50.438  1.00  0.00    -0.247 N 
HETATM    4  C   UNL     1      24.021  44.123  50.261  1.00  0.00     0.239 C 
HETATM    5  O   UNL     1      23.190  44.088  51.165  1.00  0.00    -0.272 OA
HETATM    6  H   UNL     1      25.966  44.514  49.671  1.00  0.00     0.192 HD
BRANCH   4   7
HETATM    7  C   UNL     1      23.641  44.072  48.797  1.00  0.00     0.124 C 
BRANCH   7   8
HETATM    8  C   UNL     1      22.272  44.702  48.564  1.00  0.00     0.132 C 
BRANCH   8   9
HETATM    9  N   UNL     1      22.252  46.141  48.774  1.00  0.00    -0.356 N 
HETATM   10  C   UNL     1      22.192  47.032  47.722  1.00  0.00     0.251 C 
HETATM   11  O   UNL     1      22.037  46.684  46.556  1.00  0.00    -0.268 OA
HETATM   12  H   UNL     1      22.636  46.469  49.649  1.00  0.00     0.162 HD
BRANCH  10  13
HETATM   13  C   UNL     1      22.363  48.476  48.058  1.00  0.00     0.032 A 
HETATM   14  C   UNL     1      21.305  49.395  47.986  1.00  0.00     0.017 A 
HETATM   15  C   UNL     1      21.517  50.735  48.324  1.00  0.00     0.001 A 
HETATM   16  C   UNL     1      22.783  51.165  48.721  1.00  0.00     0.000 A 
HETATM   17  C   UNL     1      23.843  50.262  48.774  1.00  0.00     0.001 A 
HETATM   18  C   UNL     1      23.634  48.922  48.442  1.00  0.00     0.017 A 
ENDBRANCH  10  13
ENDBRANCH   8   9
ENDBRANCH   7   8
ENDBRANCH   4   7
ENDBRANCH   2   3
BRANCH   1  19
HETATM   19  C   UNL     1      27.009  45.559  53.364  1.00  0.00     0.062 C 
HETATM   20  C   UNL     1      26.903  46.547  54.372  1.00  0.00     0.067 C 
HETATM   21  C   UNL     1      26.029  47.747  54.396  1.00  0.00     0.073 C 
HETATM   22  N   UNL     1      27.692  46.281  55.420  1.00  0.00    -0.169 NA
HETATM   23  N   UNL     1      28.406  45.185  55.053  1.00  0.00    -0.210 N 
HETATM   24  C   UNL     1      27.908  44.639  53.869  1.00  0.00     0.177 C 
BRANCH  23  25
HETATM   25  C   UNL     1      29.508  44.752  55.848  1.00  0.00     0.061 A 
HETATM   26  C   UNL     1      29.840  45.471  57.007  1.00  0.00     0.031 A 
HETATM   27  C   UNL     1      30.912  45.067  57.805  1.00  0.00     0.002 A 
HETATM   28  C   UNL     1      31.670  43.954  57.445  1.00  0.00     0.000 A 
HETATM   29  C   UNL     1      31.366  43.253  56.280  1.00  0.00     0.002 A 
HETATM   30  C   UNL     1      30.293  43.652  55.477  1.00  0.00     0.031 A 
ENDBRANCH  23  25
BRANCH  24  31
HETATM   31  O   UNL     1      28.245  43.446  53.371  1.00  0.00    -0.344 OA
HETATM   32  H   UNL     1      28.265  42.803  54.104  1.00  0.00     0.219 HD
ENDBRANCH  24  31
ENDBRANCH   1  19
TORSDOF 8
ENDMDL
MODEL 9
REMARK VINA RESULT:      -8.7      3.088      4.121
REMARK  8 active torsions:
REMARK  status: ('A' for Active; 'I' for Inactive)
REMARK    1  A    between atoms: N_4  and  C_5 
REMARK    2  A    between atoms: C_11  and  O_12 
REMARK    3  A    between atoms: C_13  and  C_14 
REMARK    4  A    between atoms: N_15  and  N_16 
REMARK       I    between atoms: N_16  and  C_17 
REMARK    5  A    between atoms: C_17  and  C_18 
REMARK    6  A    between atoms: C_18  and  C_19 
REMARK    7  A    between atoms: C_19  and  N_20 
REMARK       I    between atoms: N_20  and  C_21 
REMARK    8  A    between atoms: C_21  and  C_22 
ROOT
HETATM    1  C   UNL     1      25.110  44.445  50.837  1.00  0.00     0.156 C 
HETATM    2  N   UNL     1      25.692  43.744  49.916  1.00  0.00    -0.184 NA
ENDROOT
BRANCH   2   3
HETATM    3  N   UNL     1      26.022  42.445  50.226  1.00  0.00    -0.247 N 
HETATM    4  C   UNL     1      26.942  41.675  49.514  1.00  0.00     0.239 C 
HETATM    5  O   UNL     1      27.515  42.026  48.486  1.00  0.00    -0.272 OA
HETATM    6  H   UNL     1      25.873  42.211  51.204  1.00  0.00     0.192 HD
BRANCH   4   7
HETATM    7  C   UNL     1      27.120  40.301  50.123  1.00  0.00     0.124 C 
BRANCH   7   8
HETATM    8  C   UNL     1      28.467  40.184  50.827  1.00  0.00     0.132 C 
BRANCH   8   9
HETATM    9  N   UNL     1      28.788  41.330  51.663  1.00  0.00    -0.356 N 
HETATM   10  C   UNL     1      28.642  41.297  53.035  1.00  0.00     0.251 C 
HETATM   11  O   UNL     1      28.347  40.280  53.654  1.00  0.00    -0.268 OA
HETATM   12  H   UNL     1      28.771  42.232  51.208  1.00  0.00     0.162 HD
BRANCH  10  13
HETATM   13  C   UNL     1      28.828  42.590  53.758  1.00  0.00     0.032 A 
HETATM   14  C   UNL     1      29.939  42.841  54.575  1.00  0.00     0.017 A 
HETATM   15  C   UNL     1      30.069  44.074  55.221  1.00  0.00     0.001 A 
HETATM   16  C   UNL     1      29.089  45.053  55.066  1.00  0.00     0.000 A 
HETATM   17  C   UNL     1      27.971  44.802  54.272  1.00  0.00     0.001 A 
HETATM   18  C   UNL     1      27.839  43.573  53.622  1.00  0.00     0.017 A 
ENDBRANCH  10  13
ENDBRANCH   8   9
ENDBRANCH   7   8
ENDBRANCH   4   7
ENDBRANCH   2   3
BRANCH   1  19
HETATM   19  C   UNL     1      24.719  45.806  50.554  1.00  0.00     0.062 C 
HETATM   20  C   UNL     1      25.093  47.027  51.165  1.00  0.00     0.067 C 
HETATM   21  C   UNL     1      26.025  47.240  52.301  1.00  0.00     0.073 C 
HETATM   22  N   UNL     1      24.525  48.081  50.568  1.00  0.00    -0.169 NA
HETATM   23  N   UNL     1      23.684  47.550  49.643  1.00  0.00    -0.210 N 
HETATM   24  C   UNL     1      23.890  46.176  49.512  1.00  0.00     0.177 C 
BRANCH  23  25
HETATM   25  C   UNL     1      22.747  48.386  48.966  1.00  0.00     0.061 A 
HETATM   26  C   UNL     1      22.910  49.779  49.019  1.00  0.00     0.031 A 
HETATM   27  C   UNL     1      22.009  50.620  48.363  1.00  0.00     0.002 A 
HETATM   28  C   UNL     1      20.931  50.080  47.665  1.00  0.00     0.000 A 
HETATM   29  C   UNL     1      20.744  48.700  47.633  1.00  0.00     0.002 A 
HETATM   30  C   UNL     1      21.643  47.852  48.287  1.00  0.00     0.031 A 
ENDBRANCH  23  25
BRANCH  24  31
HETATM   31  O   UNL     1      23.384  45.411  48.541  1.00  0.00    -0.344 OA
HETATM   32  H   UNL     1      23.972  44.642  48.418  1.00  0.00     0.219 HD
ENDBRANCH  24  31
ENDBRANCH   1  19
TORSDOF 8
ENDMDL
MODEL 10
REMARK VINA RESULT:      -8.4      2.676     11.177
REMARK  8 active torsions:
REMARK  status: ('A' for Active; 'I' for Inactive)
REMARK    1  A    between atoms: N_4  and  C_5 
REMARK    2  A    between atoms: C_11  and  O_12 
REMARK    3  A    between atoms: C_13  and  C_14 
REMARK    4  A    between atoms: N_15  and  N_16 
REMARK       I    between atoms: N_16  and  C_17 
REMARK    5  A    between atoms: C_17  and  C_18 
REMARK    6  A    between atoms: C_18  and  C_19 
REMARK    7  A    between atoms: C_19  and  N_20 
REMARK       I    between atoms: N_20  and  C_21 
REMARK    8  A    between atoms: C_21  and  C_22 
ROOT
HETATM    1  C   UNL     1      26.046  43.190  50.550  1.00  0.00     0.156 C 
HETATM    2  N   UNL     1      26.064  44.139  49.667  1.00  0.00    -0.184 NA
ENDROOT
BRANCH   2   3
HETATM    3  N   UNL     1      24.956  44.273  48.862  1.00  0.00    -0.247 N 
HETATM    4  C   UNL     1      23.983  45.259  49.020  1.00  0.00     0.239 C 
HETATM    5  O   UNL     1      23.948  46.081  49.932  1.00  0.00    -0.272 OA
HETATM    6  H   UNL     1      25.081  43.883  47.931  1.00  0.00     0.192 HD
BRANCH   4   7
HETATM    7  C   UNL     1      22.911  45.170  47.956  1.00  0.00     0.124 C 
BRANCH   7   8
HETATM    8  C   UNL     1      21.534  45.471  48.539  1.00  0.00     0.132 C 
BRANCH   8   9
HETATM    9  N   UNL     1      21.316  46.882  48.814  1.00  0.00    -0.356 N 
HETATM   10  C   UNL     1      20.050  47.431  48.856  1.00  0.00     0.251 C 
HETATM   11  O   UNL     1      19.025  46.761  48.780  1.00  0.00    -0.268 OA
HETATM   12  H   UNL     1      22.092  47.499  48.619  1.00  0.00     0.162 HD
BRANCH  10  13
HETATM   13  C   UNL     1      19.969  48.917  48.964  1.00  0.00     0.032 A 
HETATM   14  C   UNL     1      19.105  49.560  49.862  1.00  0.00     0.017 A 
HETATM   15  C   UNL     1      19.078  50.956  49.931  1.00  0.00     0.001 A 
HETATM   16  C   UNL     1      19.900  51.715  49.099  1.00  0.00     0.000 A 
HETATM   17  C   UNL     1      20.745  51.083  48.189  1.00  0.00     0.001 A 
HETATM   18  C   UNL     1      20.779  49.688  48.120  1.00  0.00     0.017 A 
ENDBRANCH  10  13
ENDBRANCH   8   9
ENDBRANCH   7   8
ENDBRANCH   4   7
ENDBRANCH   2   3
BRANCH   1  19
HETATM   19  C   UNL     1      27.173  43.023  51.437  1.00  0.00     0.062 C 
HETATM   20  C   UNL     1      28.099  41.961  51.573  1.00  0.00     0.067 C 
HETATM   21  C   UNL     1      28.161  40.690  50.809  1.00  0.00     0.073 C 
HETATM   22  N   UNL     1      29.028  42.222  52.501  1.00  0.00    -0.169 NA
HETATM   23  N   UNL     1      28.645  43.400  53.060  1.00  0.00    -0.210 N 
HETATM   24  C   UNL     1      27.604  43.981  52.334  1.00  0.00     0.177 C 
BRANCH  23  25
HETATM   25  C   UNL     1      29.290  43.872  54.241  1.00  0.00     0.061 A 
HETATM   26  C   UNL     1      30.385  43.159  54.755  1.00  0.00     0.031 A 
HETATM   27  C   UNL     1      31.036  43.601  55.908  1.00  0.00     0.002 A 
HETATM   28  C   UNL     1      30.590  44.745  56.567  1.00  0.00     0.000 A 
HETATM   29  C   UNL     1      29.484  45.441  56.082  1.00  0.00     0.002 A 
HETATM   30  C   UNL     1      28.829  45.005  54.926  1.00  0.00     0.031 A 
ENDBRANCH  23  25
BRANCH  24  31
HETATM   31  O   UNL     1      27.161  45.232  52.493  1.00  0.00    -0.344 OA
HETATM   32  H   UNL     1      27.448  45.549  53.369  1.00  0.00     0.219 HD
ENDBRANCH  24  31
ENDBRANCH   1  19
TORSDOF 8
ENDMDL
