MODEL 1
REMARK VINA RESULT:      -8.0      0.000      0.000
REMARK  7 active torsions:
REMARK  status: ('A' for Active; 'I' for Inactive)
REMARK    1  A    between atoms: C_2  and  C_3 
REMARK    2  A    between atoms: C_3  and  N_4 
REMARK    3  A    between atoms: C_3  and  C_15 
REMARK       I    between atoms: N_4  and  C_5 
REMARK    4  A    between atoms: C_5  and  C_6 
REMARK    5  A    between atoms: C_9  and  O_10 
REMARK    6  A    between atoms: C_15  and  N_16 
REMARK    7  A    between atoms: C_18  and  C_19 
ROOT
HETATM    1  C   UNL     1      25.569  44.427  51.936  1.00  0.00     0.107 C 
ENDROOT
BRANCH   1   2
HETATM    2  C   UNL     1      24.334  44.945  51.148  1.00  0.00     0.002 C 
HETATM    3  C   UNL     1      23.632  43.857  50.329  1.00  0.00     0.011 C 
HETATM    4  C   UNL     1      24.684  46.125  50.236  1.00  0.00     0.011 C 
ENDBRANCH   1   2
BRANCH   1   5
HETATM    5  N   UNL     1      25.817  43.001  51.694  1.00  0.00    -0.354 N 
HETATM    6  C   UNL     1      27.077  42.476  51.509  1.00  0.00     0.222 C 
HETATM    7  O   UNL     1      28.087  43.168  51.437  1.00  0.00    -0.273 OA
HETATM    8  H   UNL     1      25.071  42.353  51.941  1.00  0.00     0.162 HD
BRANCH   6   9
HETATM    9  C   UNL     1      27.095  40.946  51.435  1.00  0.00     0.078 C 
HETATM   10  C   UNL     1      25.865  40.389  50.705  1.00  0.00     0.016 C 
HETATM   11  C   UNL     1      25.959  40.548  49.184  1.00  0.00     0.033 C 
HETATM   12  C   UNL     1      27.243  39.932  48.621  1.00  0.00     0.120 C 
HETATM   13  C   UNL     1      28.463  40.551  49.305  1.00  0.00     0.033 C 
HETATM   14  C   UNL     1      28.402  40.411  50.829  1.00  0.00     0.016 C 
BRANCH  12  15
HETATM   15  O   UNL     1      27.171  38.518  48.843  1.00  0.00    -0.391 OA
HETATM   16  C   UNL     1      28.187  37.781  48.177  1.00  0.00     0.202 C 
ENDBRANCH  12  15
ENDBRANCH   6   9
ENDBRANCH   1   5
BRANCH   1  17
HETATM   17  C   UNL     1      25.419  44.709  53.452  1.00  0.00     0.180 C 
BRANCH  17  18
HETATM   18  N   UNL     1      26.486  45.565  53.972  1.00  0.00    -0.232 N 
HETATM   19  N   UNL     1      27.531  44.917  54.593  1.00  0.00    -0.168 NA
HETATM   20  C   UNL     1      28.483  45.628  55.126  1.00  0.00     0.094 A 
HETATM   21  C   UNL     1      28.484  47.112  55.091  1.00  0.00     0.040 A 
HETATM   22  C   UNL     1      27.457  47.723  54.499  1.00  0.00     0.078 A 
HETATM   23  C   UNL     1      26.356  46.944  53.903  1.00  0.00     0.263 A 
HETATM   24  O   UNL     1      25.401  47.535  53.403  1.00  0.00    -0.267 OA
BRANCH  20  25
HETATM   25  C   UNL     1      29.571  44.894  55.775  1.00  0.00     0.035 A 
HETATM   26  S   UNL     1      30.306  45.412  57.236  1.00  0.00    -0.100 SA
HETATM   27  C   UNL     1      31.382  44.088  57.264  1.00  0.00     0.050 A 
HETATM   28  C   UNL     1      31.200  43.256  56.185  1.00  0.00     0.008 A 
HETATM   29  C   UNL     1      30.161  43.721  55.328  1.00  0.00     0.022 A 
ENDBRANCH  20  25
ENDBRANCH  17  18
ENDBRANCH   1  17
TORSDOF 7
ENDMDL
MODEL 2
REMARK VINA RESULT:      -7.9      6.372      9.998
REMARK  7 active torsions:
REMARK  status: ('A' for Active; 'I' for Inactive)
REMARK    1  A    between atoms: C_2  and  C_3 
REMARK    2  A    between atoms: C_3  and  N_4 
REMARK    3  A    between atoms: C_3  and  C_15 
REMARK       I    between atoms: N_4  and  C_5 
REMARK    4  A    between atoms: C_5  and  C_6 
REMARK    5  A    between atoms: C_9  and  O_10 
REMARK    6  A    between atoms: C_15  and  N_16 
REMARK    7  A    between atoms: C_18  and  C_19 
ROOT
HETATM    1  C   UNL     1      22.159  48.534  48.979  1.00  0.00     0.107 C 
ENDROOT
BRANCH   1   2
HETATM    2  C   UNL     1      21.550  47.572  47.922  1.00  0.00     0.002 C 
HETATM    3  C   UNL     1      20.094  47.190  48.213  1.00  0.00     0.011 C 
HETATM    4  C   UNL     1      22.386  46.301  47.747  1.00  0.00     0.011 C 
ENDBRANCH   1   2
BRANCH   1   5
HETATM    5  N   UNL     1      21.145  49.409  49.577  1.00  0.00    -0.354 N 
HETATM    6  C   UNL     1      20.776  50.619  49.031  1.00  0.00     0.222 C 
HETATM    7  O   UNL     1      21.331  51.109  48.053  1.00  0.00    -0.273 OA
HETATM    8  H   UNL     1      20.511  48.987  50.253  1.00  0.00     0.162 HD
BRANCH   6   9
HETATM    9  C   UNL     1      19.588  51.273  49.743  1.00  0.00     0.078 C 
HETATM   10  C   UNL     1      18.989  52.426  48.925  1.00  0.00     0.016 C 
HETATM   11  C   UNL     1      18.128  51.937  47.757  1.00  0.00     0.033 C 
HETATM   12  C   UNL     1      17.028  50.976  48.217  1.00  0.00     0.120 C 
HETATM   13  C   UNL     1      17.647  49.793  48.966  1.00  0.00     0.033 C 
HETATM   14  C   UNL     1      18.517  50.247  50.141  1.00  0.00     0.016 C 
BRANCH  12  15
HETATM   15  O   UNL     1      16.132  51.722  49.052  1.00  0.00    -0.391 OA
HETATM   16  C   UNL     1      15.350  52.673  48.346  1.00  0.00     0.202 C 
ENDBRANCH  12  15
ENDBRANCH   6   9
ENDBRANCH   1   5
BRANCH   1  17
HETATM   17  C   UNL     1      23.315  49.368  48.370  1.00  0.00     0.180 C 
BRANCH  17  18
HETATM   18  N   UNL     1      24.628  48.955  48.866  1.00  0.00    -0.232 N 
HETATM   19  N   UNL     1      24.624  48.105  49.950  1.00  0.00    -0.168 NA
HETATM   20  C   UNL     1      25.762  47.747  50.473  1.00  0.00     0.094 A 
HETATM   21  C   UNL     1      27.065  48.222  49.944  1.00  0.00     0.040 A 
HETATM   22  C   UNL     1      27.050  49.056  48.903  1.00  0.00     0.078 A 
HETATM   23  C   UNL     1      25.776  49.492  48.303  1.00  0.00     0.263 A 
HETATM   24  O   UNL     1      25.791  50.296  47.373  1.00  0.00    -0.267 OA
BRANCH  20  25
HETATM   25  C   UNL     1      25.706  46.844  51.623  1.00  0.00     0.035 A 
HETATM   26  S   UNL     1      25.048  45.261  51.536  1.00  0.00    -0.100 SA
HETATM   27  C   UNL     1      25.356  44.950  53.185  1.00  0.00     0.050 A 
HETATM   28  C   UNL     1      25.949  46.024  53.808  1.00  0.00     0.008 A 
HETATM   29  C   UNL     1      26.147  47.112  52.910  1.00  0.00     0.022 A 
ENDBRANCH  20  25
ENDBRANCH  17  18
ENDBRANCH   1  17
TORSDOF 7
ENDMDL
MODEL 3
REMARK VINA RESULT:      -7.8      4.270      7.909
REMARK  7 active torsions:
REMARK  status: ('A' for Active; 'I' for Inactive)
REMARK    1  A    between atoms: C_2  and  C_3 
REMARK    2  A    between atoms: C_3  and  N_4 
REMARK    3  A    between atoms: C_3  and  C_15 
REMARK       I    between atoms: N_4  and  C_5 
REMARK    4  A    between atoms: C_5  and  C_6 
REMARK    5  A    between atoms: C_9  and  O_10 
REMARK    6  A    between atoms: C_15  and  N_16 
REMARK    7  A    between atoms: C_18  and  C_19 
ROOT
HETATM    1  C   UNL     1      25.259  47.804  49.651  1.00  0.00     0.107 C 
ENDROOT
BRANCH   1   2
HETATM    2  C   UNL     1      26.762  48.195  49.701  1.00  0.00     0.002 C 
HETATM    3  C   UNL     1      27.102  49.421  48.847  1.00  0.00     0.011 C 
HETATM    4  C   UNL     1      27.676  47.030  49.308  1.00  0.00     0.011 C 
ENDBRANCH   1   2
BRANCH   1   5
HETATM    5  N   UNL     1      24.447  48.825  48.982  1.00  0.00    -0.354 N 
HETATM    6  C   UNL     1      23.247  48.549  48.363  1.00  0.00     0.222 C 
HETATM    7  O   UNL     1      22.805  47.412  48.238  1.00  0.00    -0.273 OA
HETATM    8  H   UNL     1      24.639  49.798  49.218  1.00  0.00     0.162 HD
BRANCH   6   9
HETATM    9  C   UNL     1      22.508  49.800  47.878  1.00  0.00     0.078 C 
HETATM   10  C   UNL     1      21.007  49.545  47.687  1.00  0.00     0.016 C 
HETATM   11  C   UNL     1      20.241  49.503  49.013  1.00  0.00     0.033 C 
HETATM   12  C   UNL     1      20.470  50.767  49.848  1.00  0.00     0.120 C 
HETATM   13  C   UNL     1      21.967  50.966  50.094  1.00  0.00     0.033 C 
HETATM   14  C   UNL     1      22.764  51.011  48.787  1.00  0.00     0.016 C 
BRANCH  12  15
HETATM   15  O   UNL     1      19.900  51.865  49.124  1.00  0.00    -0.391 OA
HETATM   16  C   UNL     1      18.556  52.151  49.483  1.00  0.00     0.202 C 
ENDBRANCH  12  15
ENDBRANCH   6   9
ENDBRANCH   1   5
BRANCH   1  17
HETATM   17  C   UNL     1      24.714  47.512  51.072  1.00  0.00     0.180 C 
BRANCH  17  18
HETATM   18  N   UNL     1      25.164  46.220  51.592  1.00  0.00    -0.232 N 
HETATM   19  N   UNL     1      26.157  46.265  52.544  1.00  0.00    -0.168 NA
HETATM   20  C   UNL     1      26.639  45.146  53.005  1.00  0.00     0.094 A 
HETATM   21  C   UNL     1      26.158  43.822  52.539  1.00  0.00     0.040 A 
HETATM   22  C   UNL     1      25.205  43.796  51.605  1.00  0.00     0.078 A 
HETATM   23  C   UNL     1      24.655  45.047  51.054  1.00  0.00     0.263 A 
HETATM   24  O   UNL     1      23.810  44.993  50.162  1.00  0.00    -0.267 OA
BRANCH  20  25
HETATM   25  C   UNL     1      27.693  45.247  54.015  1.00  0.00     0.035 A 
HETATM   26  S   UNL     1      27.882  46.614  55.035  1.00  0.00    -0.100 SA
HETATM   27  C   UNL     1      29.236  45.942  55.827  1.00  0.00     0.050 A 
HETATM   28  C   UNL     1      29.555  44.698  55.334  1.00  0.00     0.008 A 
HETATM   29  C   UNL     1      28.669  44.300  54.292  1.00  0.00     0.022 A 
ENDBRANCH  20  25
ENDBRANCH  17  18
ENDBRANCH   1  17
TORSDOF 7
ENDMDL
MODEL 4
REMARK VINA RESULT:      -7.8      3.837      8.316
REMARK  7 active torsions:
REMARK  status: ('A' for Active; 'I' for Inactive)
REMARK    1  A    between atoms: C_2  and  C_3 
REMARK    2  A    between atoms: C_3  and  N_4 
REMARK    3  A    between atoms: C_3  and  C_15 
REMARK       I    between atoms: N_4  and  C_5 
REMARK    4  A    between atoms: C_5  and  C_6 
REMARK    5  A    between atoms: C_9  and  O_10 
REMARK    6  A    between atoms: C_15  and  N_16 
REMARK    7  A    between atoms: C_18  and  C_19 
ROOT
HETATM    1  C   UNL     1      25.530  45.019  50.687  1.00  0.00     0.107 C 
ENDROOT
BRANCH   1   2
HETATM    2  C   UNL     1      26.696  44.255  50.001  1.00  0.00     0.002 C 
HETATM    3  C   UNL     1      26.243  42.997  49.251  1.00  0.00     0.011 C 
HETATM    4  C   UNL     1      27.807  43.888  50.990  1.00  0.00     0.011 C 
ENDBRANCH   1   2
BRANCH   1   5
HETATM    5  N   UNL     1      25.763  45.204  52.123  1.00  0.00    -0.354 N 
HETATM    6  C   UNL     1      25.731  46.436  52.740  1.00  0.00     0.222 C 
HETATM    7  O   UNL     1      25.598  47.488  52.125  1.00  0.00    -0.273 OA
HETATM    8  H   UNL     1      25.674  44.380  52.716  1.00  0.00     0.162 HD
BRANCH   6   9
HETATM    9  C   UNL     1      25.842  46.357  54.265  1.00  0.00     0.078 C 
HETATM   10  C   UNL     1      26.620  45.115  54.723  1.00  0.00     0.016 C 
HETATM   11  C   UNL     1      28.133  45.263  54.535  1.00  0.00     0.033 C 
HETATM   12  C   UNL     1      28.677  46.520  55.220  1.00  0.00     0.120 C 
HETATM   13  C   UNL     1      27.944  47.758  54.698  1.00  0.00     0.033 C 
HETATM   14  C   UNL     1      26.427  47.643  54.870  1.00  0.00     0.016 C 
BRANCH  12  15
HETATM   15  O   UNL     1      28.493  46.350  56.631  1.00  0.00    -0.391 OA
HETATM   16  C   UNL     1      29.663  45.925  57.315  1.00  0.00     0.202 C 
ENDBRANCH  12  15
ENDBRANCH   6   9
ENDBRANCH   1   5
BRANCH   1  17
HETATM   17  C   UNL     1      24.176  44.307  50.436  1.00  0.00     0.180 C 
BRANCH  17  18
HETATM   18  N   UNL     1      23.343  45.012  49.462  1.00  0.00    -0.232 N 
HETATM   19  N   UNL     1      23.462  46.384  49.445  1.00  0.00    -0.168 NA
HETATM   20  C   UNL     1      22.705  47.072  48.638  1.00  0.00     0.094 A 
HETATM   21  C   UNL     1      21.716  46.431  47.736  1.00  0.00     0.040 A 
HETATM   22  C   UNL     1      21.602  45.102  47.777  1.00  0.00     0.078 A 
HETATM   23  C   UNL     1      22.434  44.301  48.692  1.00  0.00     0.263 A 
HETATM   24  O   UNL     1      22.277  43.082  48.740  1.00  0.00    -0.267 OA
BRANCH  20  25
HETATM   25  C   UNL     1      22.869  48.526  48.657  1.00  0.00     0.035 A 
HETATM   26  S   UNL     1      21.591  49.604  49.042  1.00  0.00    -0.100 SA
HETATM   27  C   UNL     1      22.577  50.982  48.835  1.00  0.00     0.050 A 
HETATM   28  C   UNL     1      23.861  50.644  48.476  1.00  0.00     0.008 A 
HETATM   29  C   UNL     1      24.028  49.234  48.372  1.00  0.00     0.022 A 
ENDBRANCH  20  25
ENDBRANCH  17  18
ENDBRANCH   1  17
TORSDOF 7
ENDMDL
MODEL 5
REMARK VINA RESULT:      -7.7      5.305      8.642
REMARK  7 active torsions:
REMARK  status: ('A' for Active; 'I' for Inactive)
REMARK    1  A    between atoms: C_2  and  C_3 
REMARK    2  A    between atoms: C_3  and  N_4 
REMARK    3  A    between atoms: C_3  and  C_15 
REMARK       I    between atoms: N_4  and  C_5 
REMARK    4  A    between atoms: C_5  and  C_6 
REMARK    5  A    between atoms: C_9  and  O_10 
REMARK    6  A    between atoms: C_15  and  N_16 
REMARK    7  A    between atoms: C_18  and  C_19 
ROOT
HETATM    1  C   UNL     1      24.707  48.550  49.570  1.00  0.00     0.107 C 
ENDROOT
BRANCH   1   2
HETATM    2  C   UNL     1      26.063  49.198  49.178  1.00  0.00     0.002 C 
HETATM    3  C   UNL     1      26.009  49.973  47.857  1.00  0.00     0.011 C 
HETATM    4  C   UNL     1      27.200  48.172  49.121  1.00  0.00     0.011 C 
ENDBRANCH   1   2
BRANCH   1   5
HETATM    5  N   UNL     1      24.850  47.125  49.888  1.00  0.00    -0.354 N 
HETATM    6  C   UNL     1      24.994  46.649  51.173  1.00  0.00     0.222 C 
HETATM    7  O   UNL     1      25.111  47.382  52.149  1.00  0.00    -0.273 OA
HETATM    8  H   UNL     1      24.561  46.460  49.172  1.00  0.00     0.162 HD
BRANCH   6   9
HETATM    9  C   UNL     1      24.962  45.121  51.265  1.00  0.00     0.078 C 
HETATM   10  C   UNL     1      25.723  44.458  50.108  1.00  0.00     0.016 C 
HETATM   11  C   UNL     1      27.243  44.521  50.287  1.00  0.00     0.033 C 
HETATM   12  C   UNL     1      27.689  43.934  51.629  1.00  0.00     0.120 C 
HETATM   13  C   UNL     1      26.979  44.656  52.776  1.00  0.00     0.033 C 
HETATM   14  C   UNL     1      25.455  44.613  52.629  1.00  0.00     0.016 C 
BRANCH  12  15
HETATM   15  O   UNL     1      27.375  42.535  51.608  1.00  0.00    -0.391 OA
HETATM   16  C   UNL     1      27.939  41.806  52.688  1.00  0.00     0.202 C 
ENDBRANCH  12  15
ENDBRANCH   6   9
ENDBRANCH   1   5
BRANCH   1  17
HETATM   17  C   UNL     1      23.647  48.762  48.460  1.00  0.00     0.180 C 
BRANCH  17  18
HETATM   18  N   UNL     1      22.364  49.226  48.989  1.00  0.00    -0.232 N 
HETATM   19  N   UNL     1      21.283  48.406  48.755  1.00  0.00    -0.168 NA
HETATM   20  C   UNL     1      20.104  48.791  49.152  1.00  0.00     0.094 A 
HETATM   21  C   UNL     1      19.881  50.084  49.846  1.00  0.00     0.040 A 
HETATM   22  C   UNL     1      20.938  50.873  50.051  1.00  0.00     0.078 A 
HETATM   23  C   UNL     1      22.281  50.470  49.596  1.00  0.00     0.263 A 
HETATM   24  O   UNL     1      23.228  51.237  49.759  1.00  0.00    -0.267 OA
BRANCH  20  25
HETATM   25  C   UNL     1      18.987  47.886  48.880  1.00  0.00     0.035 A 
HETATM   26  S   UNL     1      19.176  46.388  48.064  1.00  0.00    -0.100 SA
HETATM   27  C   UNL     1      17.512  46.024  48.168  1.00  0.00     0.050 A 
HETATM   28  C   UNL     1      16.808  47.017  48.809  1.00  0.00     0.008 A 
HETATM   29  C   UNL     1      17.656  48.087  49.216  1.00  0.00     0.022 A 
ENDBRANCH  20  25
ENDBRANCH  17  18
ENDBRANCH   1  17
TORSDOF 7
ENDMDL
MODEL 6
REMARK VINA RESULT:      -7.6      1.541      2.014
REMARK  7 active torsions:
REMARK  status: ('A' for Active; 'I' for Inactive)
REMARK    1  A    between atoms: C_2  and  C_3 
REMARK    2  A    between atoms: C_3  and  N_4 
REMARK    3  A    between atoms: C_3  and  C_15 
REMARK       I    between atoms: N_4  and  C_5 
REMARK    4  A    between atoms: C_5  and  C_6 
REMARK    5  A    between atoms: C_9  and  O_10 
REMARK    6  A    between atoms: C_15  and  N_16 
REMARK    7  A    between atoms: C_18  and  C_19 
ROOT
HETATM    1  C   UNL     1      26.038  45.889  51.209  1.00  0.00     0.107 C 
ENDROOT
BRANCH   1   2
HETATM    2  C   UNL     1      25.684  46.757  49.970  1.00  0.00     0.002 C 
HETATM    3  C   UNL     1      26.577  47.993  49.816  1.00  0.00     0.011 C 
HETATM    4  C   UNL     1      24.213  47.186  49.966  1.00  0.00     0.011 C 
ENDBRANCH   1   2
BRANCH   1   5
HETATM    5  N   UNL     1      25.699  44.477  51.006  1.00  0.00    -0.354 N 
HETATM    6  C   UNL     1      26.364  43.661  50.117  1.00  0.00     0.222 C 
HETATM    7  O   UNL     1      27.231  44.071  49.354  1.00  0.00    -0.273 OA
HETATM    8  H   UNL     1      25.145  44.025  51.733  1.00  0.00     0.162 HD
BRANCH   6   9
HETATM    9  C   UNL     1      25.937  42.192  50.200  1.00  0.00     0.078 C 
HETATM   10  C   UNL     1      26.005  41.495  48.834  1.00  0.00     0.016 C 
HETATM   11  C   UNL     1      27.437  41.143  48.420  1.00  0.00     0.033 C 
HETATM   12  C   UNL     1      28.154  40.309  49.486  1.00  0.00     0.120 C 
HETATM   13  C   UNL     1      28.145  41.052  50.824  1.00  0.00     0.033 C 
HETATM   14  C   UNL     1      26.726  41.420  51.268  1.00  0.00     0.016 C 
BRANCH  12  15
HETATM   15  O   UNL     1      27.473  39.051  49.572  1.00  0.00    -0.391 OA
HETATM   16  C   UNL     1      27.825  38.137  48.543  1.00  0.00     0.202 C 
ENDBRANCH  12  15
ENDBRANCH   6   9
ENDBRANCH   1   5
BRANCH   1  17
HETATM   17  C   UNL     1      25.357  46.440  52.487  1.00  0.00     0.180 C 
BRANCH  17  18
HETATM   18  N   UNL     1      26.298  46.618  53.593  1.00  0.00    -0.232 N 
HETATM   19  N   UNL     1      27.257  45.640  53.733  1.00  0.00    -0.168 NA
HETATM   20  C   UNL     1      28.088  45.713  54.733  1.00  0.00     0.094 A 
HETATM   21  C   UNL     1      28.039  46.811  55.730  1.00  0.00     0.040 A 
HETATM   22  C   UNL     1      27.094  47.742  55.588  1.00  0.00     0.078 A 
HETATM   23  C   UNL     1      26.129  47.675  54.476  1.00  0.00     0.263 A 
HETATM   24  O   UNL     1      25.241  48.521  54.396  1.00  0.00    -0.267 OA
BRANCH  20  25
HETATM   25  C   UNL     1      29.089  44.651  54.839  1.00  0.00     0.035 A 
HETATM   26  S   UNL     1      29.133  43.300  53.781  1.00  0.00    -0.100 SA
HETATM   27  C   UNL     1      30.493  42.626  54.560  1.00  0.00     0.050 A 
HETATM   28  C   UNL     1      30.919  43.402  55.613  1.00  0.00     0.008 A 
HETATM   29  C   UNL     1      30.111  44.564  55.774  1.00  0.00     0.022 A 
ENDBRANCH  20  25
ENDBRANCH  17  18
ENDBRANCH   1  17
TORSDOF 7
ENDMDL
MODEL 7
REMARK VINA RESULT:      -7.3      2.171      3.731
REMARK  7 active torsions:
REMARK  status: ('A' for Active; 'I' for Inactive)
REMARK    1  A    between atoms: C_2  and  C_3 
REMARK    2  A    between atoms: C_3  and  N_4 
REMARK    3  A    between atoms: C_3  and  C_15 
REMARK       I    between atoms: N_4  and  C_5 
REMARK    4  A    between atoms: C_5  and  C_6 
REMARK    5  A    between atoms: C_9  and  O_10 
REMARK    6  A    between atoms: C_15  and  N_16 
REMARK    7  A    between atoms: C_18  and  C_19 
ROOT
HETATM    1  C   UNL     1      26.929  42.845  52.212  1.00  0.00     0.107 C 
ENDROOT
BRANCH   1   2
HETATM    2  C   UNL     1      28.110  41.846  52.065  1.00  0.00     0.002 C 
HETATM    3  C   UNL     1      27.918  40.839  50.926  1.00  0.00     0.011 C 
HETATM    4  C   UNL     1      28.398  41.095  53.368  1.00  0.00     0.011 C 
ENDBRANCH   1   2
BRANCH   1   5
HETATM    5  N   UNL     1      25.767  42.445  51.412  1.00  0.00    -0.354 N 
HETATM    6  C   UNL     1      24.554  43.096  51.465  1.00  0.00     0.222 C 
HETATM    7  O   UNL     1      24.315  44.003  52.254  1.00  0.00    -0.273 OA
HETATM    8  H   UNL     1      25.944  41.850  50.604  1.00  0.00     0.162 HD
BRANCH   6   9
HETATM    9  C   UNL     1      23.547  42.597  50.423  1.00  0.00     0.078 C 
HETATM   10  C   UNL     1      22.542  43.687  50.026  1.00  0.00     0.016 C 
HETATM   11  C   UNL     1      23.142  44.726  49.074  1.00  0.00     0.033 C 
HETATM   12  C   UNL     1      23.752  44.078  47.828  1.00  0.00     0.120 C 
HETATM   13  C   UNL     1      24.807  43.048  48.238  1.00  0.00     0.033 C 
HETATM   14  C   UNL     1      24.241  41.993  49.193  1.00  0.00     0.016 C 
BRANCH  12  15
HETATM   15  O   UNL     1      22.680  43.475  47.092  1.00  0.00    -0.391 OA
HETATM   16  C   UNL     1      23.051  43.042  45.791  1.00  0.00     0.202 C 
ENDBRANCH  12  15
ENDBRANCH   6   9
ENDBRANCH   1   5
BRANCH   1  17
HETATM   17  C   UNL     1      27.372  44.286  51.856  1.00  0.00     0.180 C 
BRANCH  17  18
HETATM   18  N   UNL     1      27.619  45.108  53.041  1.00  0.00    -0.232 N 
HETATM   19  N   UNL     1      28.575  44.637  53.914  1.00  0.00    -0.168 NA
HETATM   20  C   UNL     1      28.800  45.294  55.015  1.00  0.00     0.094 A 
HETATM   21  C   UNL     1      28.063  46.534  55.366  1.00  0.00     0.040 A 
HETATM   22  C   UNL     1      27.129  46.967  54.517  1.00  0.00     0.078 A 
HETATM   23  C   UNL     1      26.842  46.233  53.272  1.00  0.00     0.263 A 
HETATM   24  O   UNL     1      25.946  46.631  52.530  1.00  0.00    -0.267 OA
BRANCH  20  25
HETATM   25  C   UNL     1      29.825  44.754  55.909  1.00  0.00     0.035 A 
HETATM   26  S   UNL     1      30.249  45.495  57.398  1.00  0.00    -0.100 SA
HETATM   27  C   UNL     1      31.423  44.308  57.752  1.00  0.00     0.050 A 
HETATM   28  C   UNL     1      31.505  43.356  56.762  1.00  0.00     0.008 A 
HETATM   29  C   UNL     1      30.588  43.614  55.703  1.00  0.00     0.022 A 
ENDBRANCH  20  25
ENDBRANCH  17  18
ENDBRANCH   1  17
TORSDOF 7
ENDMDL
MODEL 8
REMARK VINA RESULT:      -7.3      2.783      4.383
REMARK  7 active torsions:
REMARK  status: ('A' for Active; 'I' for Inactive)
REMARK    1  A    between atoms: C_2  and  C_3 
REMARK    2  A    between atoms: C_3  and  N_4 
REMARK    3  A    between atoms: C_3  and  C_15 
REMARK       I    between atoms: N_4  and  C_5 
REMARK    4  A    between atoms: C_5  and  C_6 
REMARK    5  A    between atoms: C_9  and  O_10 
REMARK    6  A    between atoms: C_15  and  N_16 
REMARK    7  A    between atoms: C_18  and  C_19 
ROOT
HETATM    1  C   UNL     1      26.126  44.442  51.992  1.00  0.00     0.107 C 
ENDROOT
BRANCH   1   2
HETATM    2  C   UNL     1      26.218  45.968  52.266  1.00  0.00     0.002 C 
HETATM    3  C   UNL     1      25.774  46.362  53.679  1.00  0.00     0.011 C 
HETATM    4  C   UNL     1      25.434  46.789  51.237  1.00  0.00     0.011 C 
ENDBRANCH   1   2
BRANCH   1   5
HETATM    5  N   UNL     1      24.843  44.067  51.388  1.00  0.00    -0.354 N 
HETATM    6  C   UNL     1      24.725  43.122  50.393  1.00  0.00     0.222 C 
HETATM    7  O   UNL     1      25.691  42.584  49.863  1.00  0.00    -0.273 OA
HETATM    8  H   UNL     1      23.999  44.311  51.905  1.00  0.00     0.162 HD
BRANCH   6   9
HETATM    9  C   UNL     1      23.272  42.788  50.038  1.00  0.00     0.078 C 
HETATM   10  C   UNL     1      22.403  44.047  49.924  1.00  0.00     0.016 C 
HETATM   11  C   UNL     1      22.635  44.810  48.616  1.00  0.00     0.033 C 
HETATM   12  C   UNL     1      22.448  43.915  47.388  1.00  0.00     0.120 C 
HETATM   13  C   UNL     1      23.377  42.702  47.479  1.00  0.00     0.033 C 
HETATM   14  C   UNL     1      23.171  41.916  48.777  1.00  0.00     0.016 C 
BRANCH  12  15
HETATM   15  O   UNL     1      21.069  43.525  47.350  1.00  0.00    -0.391 OA
HETATM   16  C   UNL     1      20.607  43.181  46.052  1.00  0.00     0.202 C 
ENDBRANCH  12  15
ENDBRANCH   6   9
ENDBRANCH   1   5
BRANCH   1  17
HETATM   17  C   UNL     1      26.383  43.629  53.286  1.00  0.00     0.180 C 
BRANCH  17  18
HETATM   18  N   UNL     1      27.807  43.404  53.536  1.00  0.00    -0.232 N 
HETATM   19  N   UNL     1      28.316  43.972  54.683  1.00  0.00    -0.168 NA
HETATM   20  C   UNL     1      29.589  43.855  54.931  1.00  0.00     0.094 A 
HETATM   21  C   UNL     1      30.514  43.134  54.022  1.00  0.00     0.040 A 
HETATM   22  C   UNL     1      30.007  42.604  52.907  1.00  0.00     0.078 A 
HETATM   23  C   UNL     1      28.573  42.736  52.592  1.00  0.00     0.263 A 
HETATM   24  O   UNL     1      28.143  42.276  51.537  1.00  0.00    -0.267 OA
BRANCH  20  25
HETATM   25  C   UNL     1      30.081  44.475  56.162  1.00  0.00     0.035 A 
HETATM   26  S   UNL     1      29.444  45.939  56.790  1.00  0.00    -0.100 SA
HETATM   27  C   UNL     1      30.510  45.931  58.123  1.00  0.00     0.050 A 
HETATM   28  C   UNL     1      31.346  44.839  58.104  1.00  0.00     0.008 A 
HETATM   29  C   UNL     1      31.101  44.004  56.977  1.00  0.00     0.022 A 
ENDBRANCH  20  25
ENDBRANCH  17  18
ENDBRANCH   1  17
TORSDOF 7
ENDMDL
MODEL 9
REMARK VINA RESULT:      -7.3      6.354     10.981
REMARK  7 active torsions:
REMARK  status: ('A' for Active; 'I' for Inactive)
REMARK    1  A    between atoms: C_2  and  C_3 
REMARK    2  A    between atoms: C_3  and  N_4 
REMARK    3  A    between atoms: C_3  and  C_15 
REMARK       I    between atoms: N_4  and  C_5 
REMARK    4  A    between atoms: C_5  and  C_6 
REMARK    5  A    between atoms: C_9  and  O_10 
REMARK    6  A    between atoms: C_15  and  N_16 
REMARK    7  A    between atoms: C_18  and  C_19 
ROOT
HETATM    1  C   UNL     1      23.068  48.610  48.638  1.00  0.00     0.107 C 
ENDROOT
BRANCH   1   2
HETATM    2  C   UNL     1      23.784  49.855  48.046  1.00  0.00     0.002 C 
HETATM    3  C   UNL     1      25.296  49.864  48.292  1.00  0.00     0.011 C 
HETATM    4  C   UNL     1      23.176  51.167  48.553  1.00  0.00     0.011 C 
ENDBRANCH   1   2
BRANCH   1   5
HETATM    5  N   UNL     1      21.819  48.966  49.321  1.00  0.00    -0.354 N 
HETATM    6  C   UNL     1      20.575  48.786  48.758  1.00  0.00     0.222 C 
HETATM    7  O   UNL     1      20.410  48.403  47.605  1.00  0.00    -0.273 OA
HETATM    8  H   UNL     1      21.864  49.090  50.331  1.00  0.00     0.162 HD
BRANCH   6   9
HETATM    9  C   UNL     1      19.421  49.080  49.723  1.00  0.00     0.078 C 
HETATM   10  C   UNL     1      19.658  50.364  50.530  1.00  0.00     0.016 C 
HETATM   11  C   UNL     1      19.408  51.633  49.711  1.00  0.00     0.033 C 
HETATM   12  C   UNL     1      18.012  51.644  49.081  1.00  0.00     0.120 C 
HETATM   13  C   UNL     1      17.818  50.396  48.218  1.00  0.00     0.033 C 
HETATM   14  C   UNL     1      18.062  49.106  49.007  1.00  0.00     0.016 C 
BRANCH  12  15
HETATM   15  O   UNL     1      17.062  51.701  50.153  1.00  0.00    -0.391 OA
HETATM   16  C   UNL     1      15.828  52.307  49.793  1.00  0.00     0.202 C 
ENDBRANCH  12  15
ENDBRANCH   6   9
ENDBRANCH   1   5
BRANCH   1  17
HETATM   17  C   UNL     1      24.010  47.827  49.587  1.00  0.00     0.180 C 
BRANCH  17  18
HETATM   18  N   UNL     1      23.734  46.390  49.594  1.00  0.00    -0.232 N 
HETATM   19  N   UNL     1      22.794  45.952  48.688  1.00  0.00    -0.168 NA
HETATM   20  C   UNL     1      22.464  44.692  48.684  1.00  0.00     0.094 A 
HETATM   21  C   UNL     1      23.062  43.710  49.623  1.00  0.00     0.040 A 
HETATM   22  C   UNL     1      23.959  44.155  50.504  1.00  0.00     0.078 A 
HETATM   23  C   UNL     1      24.338  45.578  50.542  1.00  0.00     0.263 A 
HETATM   24  O   UNL     1      25.135  45.968  51.394  1.00  0.00    -0.267 OA
BRANCH  20  25
HETATM   25  C   UNL     1      21.461  44.275  47.703  1.00  0.00     0.035 A 
HETATM   26  S   UNL     1      19.885  44.950  47.633  1.00  0.00    -0.100 SA
HETATM   27  C   UNL     1      19.429  43.966  46.316  1.00  0.00     0.050 A 
HETATM   28  C   UNL     1      20.447  43.129  45.924  1.00  0.00     0.008 A 
HETATM   29  C   UNL     1      21.614  43.306  46.722  1.00  0.00     0.022 A 
ENDBRANCH  20  25
ENDBRANCH  17  18
ENDBRANCH   1  17
TORSDOF 7
ENDMDL
MODEL 10
REMARK VINA RESULT:      -7.2      4.227      7.068
REMARK  7 active torsions:
REMARK  status: ('A' for Active; 'I' for Inactive)
REMARK    1  A    between atoms: C_2  and  C_3 
REMARK    2  A    between atoms: C_3  and  N_4 
REMARK    3  A    between atoms: C_3  and  C_15 
REMARK       I    between atoms: N_4  and  C_5 
REMARK    4  A    between atoms: C_5  and  C_6 
REMARK    5  A    between atoms: C_9  and  O_10 
REMARK    6  A    between atoms: C_15  and  N_16 
REMARK    7  A    between atoms: C_18  and  C_19 
ROOT
HETATM    1  C   UNL     1      25.018  46.358  51.465  1.00  0.00     0.107 C 
ENDROOT
BRANCH   1   2
HETATM    2  C   UNL     1      25.393  46.732  52.925  1.00  0.00     0.002 C 
HETATM    3  C   UNL     1      26.709  47.511  53.037  1.00  0.00     0.011 C 
HETATM    4  C   UNL     1      25.447  45.504  53.840  1.00  0.00     0.011 C 
ENDBRANCH   1   2
BRANCH   1   5
HETATM    5  N   UNL     1      24.655  44.943  51.335  1.00  0.00    -0.354 N 
HETATM    6  C   UNL     1      23.817  44.466  50.351  1.00  0.00     0.222 C 
HETATM    7  O   UNL     1      23.230  45.197  49.560  1.00  0.00    -0.273 OA
HETATM    8  H   UNL     1      25.250  44.267  51.811  1.00  0.00     0.162 HD
BRANCH   6   9
HETATM    9  C   UNL     1      23.717  42.938  50.321  1.00  0.00     0.078 C 
HETATM   10  C   UNL     1      23.184  42.421  48.978  1.00  0.00     0.016 C 
HETATM   11  C   UNL     1      24.241  42.457  47.870  1.00  0.00     0.033 C 
HETATM   12  C   UNL     1      25.516  41.708  48.267  1.00  0.00     0.120 C 
HETATM   13  C   UNL     1      26.077  42.285  49.568  1.00  0.00     0.033 C 
HETATM   14  C   UNL     1      25.045  42.265  50.699  1.00  0.00     0.016 C 
BRANCH  12  15
HETATM   15  O   UNL     1      25.171  40.323  48.405  1.00  0.00    -0.391 OA
HETATM   16  C   UNL     1      25.146  39.614  47.175  1.00  0.00     0.202 C 
ENDBRANCH  12  15
ENDBRANCH   6   9
ENDBRANCH   1   5
BRANCH   1  17
HETATM   17  C   UNL     1      26.162  46.724  50.486  1.00  0.00     0.180 C 
BRANCH  17  18
HETATM   18  N   UNL     1      25.876  47.934  49.714  1.00  0.00    -0.232 N 
HETATM   19  N   UNL     1      24.547  48.272  49.592  1.00  0.00    -0.168 NA
HETATM   20  C   UNL     1      24.224  49.306  48.869  1.00  0.00     0.094 A 
HETATM   21  C   UNL     1      25.238  50.135  48.169  1.00  0.00     0.040 A 
HETATM   22  C   UNL     1      26.520  49.784  48.286  1.00  0.00     0.078 A 
HETATM   23  C   UNL     1      26.911  48.608  49.083  1.00  0.00     0.263 A 
HETATM   24  O   UNL     1      28.096  48.282  49.136  1.00  0.00    -0.267 OA
BRANCH  20  25
HETATM   25  C   UNL     1      22.800  49.625  48.770  1.00  0.00     0.035 A 
HETATM   26  S   UNL     1      21.569  48.430  48.825  1.00  0.00    -0.100 SA
HETATM   27  C   UNL     1      20.323  49.582  48.650  1.00  0.00     0.050 A 
HETATM   28  C   UNL     1      20.818  50.861  48.547  1.00  0.00     0.008 A 
HETATM   29  C   UNL     1      22.240  50.885  48.615  1.00  0.00     0.022 A 
ENDBRANCH  20  25
ENDBRANCH  17  18
ENDBRANCH   1  17
TORSDOF 7
ENDMDL
