MODEL 1
REMARK VINA RESULT:      -8.9      0.000      0.000
REMARK  10 active torsions:
REMARK  status: ('A' for Active; 'I' for Inactive)
REMARK    1  A    between atoms: C_2  and  N_3 
REMARK    2  A    between atoms: N_3  and  C_4 
REMARK    3  A    between atoms: N_3  and  C_37 
REMARK    4  A    between atoms: C_7  and  C_8 
REMARK    5  A    between atoms: N_9  and  C_11 
REMARK    6  A    between atoms: C_11  and  C_12 
REMARK       I    between atoms: C_12  and  N_13 
REMARK    7  A    between atoms: N_13  and  C_14 
REMARK    8  A    between atoms: C_20  and  C_21 
REMARK    9  A    between atoms: C_21  and  O_22 
REMARK   10  A    between atoms: C_28  and  O_29 
ROOT
HETATM    1  C   UNL     1      26.524  43.208  52.263  1.00  0.00     0.228 C 
HETATM    2  N   UNL     1      25.712  44.179  51.415  1.00  0.00    -0.054 N 
HETATM    3  H   UNL     1      24.878  43.644  51.117  1.00  0.00     0.281 HD
HETATM    4  C   UNL     1      25.131  45.313  52.222  1.00  0.00     0.239 C 
HETATM    5  C   UNL     1      26.233  46.085  52.930  1.00  0.00     0.066 C 
HETATM    6  C   UNL     1      27.044  45.158  53.833  1.00  0.00     0.065 C 
HETATM    7  C   UNL     1      27.640  43.977  53.025  1.00  0.00     0.055 C 
HETATM    8  C   UNL     1      28.158  45.935  54.556  1.00  0.00     0.038 C 
HETATM    9  C   UNL     1      28.982  45.033  55.474  1.00  0.00     0.003 C 
HETATM   10  C   UNL     1      29.525  43.821  54.729  1.00  0.00     0.001 C 
HETATM   11  C   UNL     1      28.425  43.056  53.993  1.00  0.00     0.010 C 
ENDROOT
BRANCH   2  12
HETATM   12  C   UNL     1      26.289  44.616  50.059  1.00  0.00     0.338 C 
BRANCH  12  13
HETATM   13  C   UNL     1      25.193  45.330  49.256  1.00  0.00     0.248 C 
HETATM   14  N   UNL     1      25.232  46.703  49.324  1.00  0.00    -0.319 N 
HETATM   15  H   UNL     1      26.124  47.176  49.481  1.00  0.00     0.169 HD
HETATM   16  O   UNL     1      24.362  44.628  48.677  1.00  0.00    -0.271 OA
BRANCH  14  17
HETATM   17  C   UNL     1      24.182  47.559  49.002  1.00  0.00     0.094 A 
HETATM   18  S   UNL     1      22.577  47.042  49.162  1.00  0.00    -0.076 SA
HETATM   19  C   UNL     1      21.954  48.565  48.728  1.00  0.00    -0.012 A 
HETATM   20  C   UNL     1      20.472  48.765  48.689  1.00  0.00     0.057 C 
HETATM   21  C   UNL     1      22.960  49.482  48.447  1.00  0.00    -0.030 A 
HETATM   22  C   UNL     1      22.697  50.900  48.029  1.00  0.00     0.050 C 
HETATM   23  C   UNL     1      24.282  48.893  48.628  1.00  0.00     0.080 A 
BRANCH  23  24
HETATM   24  C   UNL     1      25.593  49.531  48.456  1.00  0.00     0.296 C 
HETATM   25  O   UNL     1      25.844  50.249  47.488  1.00  0.00    -0.259 OA
BRANCH  24  26
HETATM   26  O   UNL     1      26.473  49.257  49.455  1.00  0.00    -0.322 OA
HETATM   27  C   UNL     1      27.849  49.432  49.110  1.00  0.00     0.213 C 
ENDBRANCH  24  26
ENDBRANCH  23  24
ENDBRANCH  14  17
ENDBRANCH  12  13
ENDBRANCH   2  12
BRANCH   1  28
HETATM   28  C   UNL     1      26.939  41.982  51.462  1.00  0.00    -0.027 A 
HETATM   29  C   UNL     1      28.275  41.664  51.177  1.00  0.00     0.011 A 
HETATM   30  C   UNL     1      28.606  40.477  50.509  1.00  0.00     0.030 A 
HETATM   31  C   UNL     1      27.620  39.591  50.068  1.00  0.00     0.030 A 
HETATM   32  C   UNL     1      26.285  39.952  50.283  1.00  0.00     0.030 A 
HETATM   33  C   UNL     1      25.944  41.120  50.975  1.00  0.00     0.011 A 
BRANCH  31  34
HETATM   34  N   UNL     1      27.904  38.367  49.467  1.00  0.00    -0.382 N 
BRANCH  34  35
HETATM   35  C   UNL     1      26.907  37.287  49.513  1.00  0.00     0.118 C 
HETATM   36  C   UNL     1      26.728  36.648  48.141  1.00  0.00     0.026 C 
ENDBRANCH  34  35
BRANCH  34  37
HETATM   37  C   UNL     1      29.318  37.964  49.481  1.00  0.00     0.118 C 
HETATM   38  C   UNL     1      29.695  37.229  50.761  1.00  0.00     0.026 C 
ENDBRANCH  34  37
ENDBRANCH  31  34
ENDBRANCH   1  28
BRANCH   6  39
HETATM   39  O   UNL     1      26.132  44.626  54.800  1.00  0.00    -0.389 OA
HETATM   40  H   UNL     1      25.340  45.198  54.849  1.00  0.00     0.210 HD
ENDBRANCH   6  39
TORSDOF 10
ENDMDL
MODEL 2
REMARK VINA RESULT:      -8.9      3.339      8.345
REMARK  10 active torsions:
REMARK  status: ('A' for Active; 'I' for Inactive)
REMARK    1  A    between atoms: C_2  and  N_3 
REMARK    2  A    between atoms: N_3  and  C_4 
REMARK    3  A    between atoms: N_3  and  C_37 
REMARK    4  A    between atoms: C_7  and  C_8 
REMARK    5  A    between atoms: N_9  and  C_11 
REMARK    6  A    between atoms: C_11  and  C_12 
REMARK       I    between atoms: C_12  and  N_13 
REMARK    7  A    between atoms: N_13  and  C_14 
REMARK    8  A    between atoms: C_20  and  C_21 
REMARK    9  A    between atoms: C_21  and  O_22 
REMARK   10  A    between atoms: C_28  and  O_29 
ROOT
HETATM    1  C   UNL     1      25.755  41.828  50.454  1.00  0.00     0.228 C 
HETATM    2  N   UNL     1      26.371  42.226  51.789  1.00  0.00    -0.054 N 
HETATM    3  H   UNL     1      25.578  42.260  52.452  1.00  0.00     0.281 HD
HETATM    4  C   UNL     1      27.261  41.151  52.364  1.00  0.00     0.239 C 
HETATM    5  C   UNL     1      28.379  40.807  51.392  1.00  0.00     0.066 C 
HETATM    6  C   UNL     1      27.805  40.354  50.051  1.00  0.00     0.065 C 
HETATM    7  C   UNL     1      26.876  41.438  49.449  1.00  0.00     0.055 C 
HETATM    8  C   UNL     1      28.932  39.999  49.065  1.00  0.00     0.038 C 
HETATM    9  C   UNL     1      28.386  39.533  47.716  1.00  0.00     0.003 C 
HETATM   10  C   UNL     1      27.411  40.544  47.126  1.00  0.00     0.001 C 
HETATM   11  C   UNL     1      26.301  40.915  48.109  1.00  0.00     0.010 C 
ENDROOT
BRANCH   2  12
HETATM   12  C   UNL     1      26.944  43.645  51.930  1.00  0.00     0.338 C 
BRANCH  12  13
HETATM   13  C   UNL     1      27.336  43.883  53.396  1.00  0.00     0.248 C 
HETATM   14  N   UNL     1      28.561  44.480  53.574  1.00  0.00    -0.319 N 
HETATM   15  H   UNL     1      28.930  45.102  52.851  1.00  0.00     0.169 HD
HETATM   16  O   UNL     1      26.560  43.480  54.264  1.00  0.00    -0.271 OA
BRANCH  14  17
HETATM   17  C   UNL     1      29.296  44.481  54.756  1.00  0.00     0.094 A 
HETATM   18  S   UNL     1      30.470  43.292  55.035  1.00  0.00    -0.076 SA
HETATM   19  C   UNL     1      30.956  43.996  56.506  1.00  0.00    -0.012 A 
HETATM   20  C   UNL     1      32.057  43.359  57.293  1.00  0.00     0.057 C 
HETATM   21  C   UNL     1      30.225  45.139  56.807  1.00  0.00    -0.030 A 
HETATM   22  C   UNL     1      30.436  45.956  58.048  1.00  0.00     0.050 C 
HETATM   23  C   UNL     1      29.254  45.440  55.761  1.00  0.00     0.080 A 
BRANCH  23  24
HETATM   24  C   UNL     1      28.313  46.564  55.689  1.00  0.00     0.296 C 
HETATM   25  O   UNL     1      27.670  46.936  56.670  1.00  0.00    -0.259 OA
BRANCH  24  26
HETATM   26  O   UNL     1      28.234  47.139  54.460  1.00  0.00    -0.322 OA
HETATM   27  C   UNL     1      26.922  47.543  54.066  1.00  0.00     0.213 C 
ENDBRANCH  24  26
ENDBRANCH  23  24
ENDBRANCH  14  17
ENDBRANCH  12  13
ENDBRANCH   2  12
BRANCH   1  28
HETATM   28  C   UNL     1      24.723  42.847  49.992  1.00  0.00    -0.027 A 
HETATM   29  C   UNL     1      23.359  42.758  50.305  1.00  0.00     0.011 A 
HETATM   30  C   UNL     1      22.466  43.771  49.927  1.00  0.00     0.030 A 
HETATM   31  C   UNL     1      22.892  44.880  49.192  1.00  0.00     0.030 A 
HETATM   32  C   UNL     1      24.239  44.923  48.812  1.00  0.00     0.030 A 
HETATM   33  C   UNL     1      25.145  43.933  49.210  1.00  0.00     0.011 A 
BRANCH  31  34
HETATM   34  N   UNL     1      22.058  45.943  48.858  1.00  0.00    -0.382 N 
BRANCH  34  35
HETATM   35  C   UNL     1      20.799  45.683  48.144  1.00  0.00     0.118 C 
HETATM   36  C   UNL     1      21.063  45.074  46.772  1.00  0.00     0.026 C 
ENDBRANCH  34  35
BRANCH  34  37
HETATM   37  C   UNL     1      22.735  47.216  48.564  1.00  0.00     0.118 C 
HETATM   38  C   UNL     1      21.751  48.369  48.412  1.00  0.00     0.026 C 
ENDBRANCH  34  37
ENDBRANCH  31  34
ENDBRANCH   1  28
BRANCH   6  39
HETATM   39  O   UNL     1      27.020  39.185  50.315  1.00  0.00    -0.389 OA
HETATM   40  H   UNL     1      27.385  38.428  49.815  1.00  0.00     0.210 HD
ENDBRANCH   6  39
TORSDOF 10
ENDMDL
MODEL 3
REMARK VINA RESULT:      -8.7      3.376      8.594
REMARK  10 active torsions:
REMARK  status: ('A' for Active; 'I' for Inactive)
REMARK    1  A    between atoms: C_2  and  N_3 
REMARK    2  A    between atoms: N_3  and  C_4 
REMARK    3  A    between atoms: N_3  and  C_37 
REMARK    4  A    between atoms: C_7  and  C_8 
REMARK    5  A    between atoms: N_9  and  C_11 
REMARK    6  A    between atoms: C_11  and  C_12 
REMARK       I    between atoms: C_12  and  N_13 
REMARK    7  A    between atoms: N_13  and  C_14 
REMARK    8  A    between atoms: C_20  and  C_21 
REMARK    9  A    between atoms: C_21  and  O_22 
REMARK   10  A    between atoms: C_28  and  O_29 
ROOT
HETATM    1  C   UNL     1      25.970  43.748  52.291  1.00  0.00     0.228 C 
HETATM    2  N   UNL     1      26.119  42.442  51.519  1.00  0.00    -0.054 N 
HETATM    3  H   UNL     1      26.032  41.697  52.232  1.00  0.00     0.281 HD
HETATM    4  C   UNL     1      24.959  42.177  50.592  1.00  0.00     0.239 C 
HETATM    5  C   UNL     1      24.798  43.317  49.598  1.00  0.00     0.066 C 
HETATM    6  C   UNL     1      24.595  44.643  50.329  1.00  0.00     0.065 C 
HETATM    7  C   UNL     1      25.771  44.929  51.299  1.00  0.00     0.055 C 
HETATM    8  C   UNL     1      24.426  45.800  49.328  1.00  0.00     0.038 C 
HETATM    9  C   UNL     1      24.213  47.139  50.033  1.00  0.00     0.003 C 
HETATM   10  C   UNL     1      25.313  47.420  51.048  1.00  0.00     0.001 C 
HETATM   11  C   UNL     1      25.499  46.266  52.032  1.00  0.00     0.010 C 
ENDROOT
BRANCH   2  12
HETATM   12  C   UNL     1      27.490  42.114  50.906  1.00  0.00     0.338 C 
BRANCH  12  13
HETATM   13  C   UNL     1      27.397  40.774  50.161  1.00  0.00     0.248 C 
HETATM   14  N   UNL     1      28.187  40.684  49.040  1.00  0.00    -0.319 N 
HETATM   15  H   UNL     1      29.051  41.226  48.985  1.00  0.00     0.169 HD
HETATM   16  O   UNL     1      26.602  39.937  50.594  1.00  0.00    -0.271 OA
BRANCH  14  17
HETATM   17  C   UNL     1      28.030  39.757  48.013  1.00  0.00     0.094 A 
HETATM   18  S   UNL     1      27.068  40.125  46.668  1.00  0.00    -0.076 SA
HETATM   19  C   UNL     1      27.452  38.663  45.887  1.00  0.00    -0.012 A 
HETATM   20  C   UNL     1      26.866  38.378  44.540  1.00  0.00     0.057 C 
HETATM   21  C   UNL     1      28.309  37.873  46.644  1.00  0.00    -0.030 A 
HETATM   22  C   UNL     1      28.804  36.527  46.203  1.00  0.00     0.050 C 
HETATM   23  C   UNL     1      28.669  38.529  47.896  1.00  0.00     0.080 A 
BRANCH  23  24
HETATM   24  C   UNL     1      29.562  38.042  48.955  1.00  0.00     0.296 C 
HETATM   25  O   UNL     1      30.786  38.104  48.850  1.00  0.00    -0.259 OA
BRANCH  24  26
HETATM   26  O   UNL     1      28.910  37.537  50.035  1.00  0.00    -0.322 OA
HETATM   27  C   UNL     1      29.730  37.316  51.184  1.00  0.00     0.213 C 
ENDBRANCH  24  26
ENDBRANCH  23  24
ENDBRANCH  14  17
ENDBRANCH  12  13
ENDBRANCH   2  12
BRANCH   1  28
HETATM   28  C   UNL     1      27.055  43.896  53.347  1.00  0.00    -0.027 A 
HETATM   29  C   UNL     1      28.077  42.956  53.540  1.00  0.00     0.011 A 
HETATM   30  C   UNL     1      29.101  43.185  54.470  1.00  0.00     0.030 A 
HETATM   31  C   UNL     1      29.118  44.334  55.265  1.00  0.00     0.030 A 
HETATM   32  C   UNL     1      28.052  45.230  55.126  1.00  0.00     0.030 A 
HETATM   33  C   UNL     1      27.041  45.026  54.181  1.00  0.00     0.011 A 
BRANCH  31  34
HETATM   34  N   UNL     1      30.151  44.638  56.148  1.00  0.00    -0.382 N 
BRANCH  34  35
HETATM   35  C   UNL     1      30.261  45.999  56.696  1.00  0.00     0.118 C 
HETATM   36  C   UNL     1      29.986  46.010  58.194  1.00  0.00     0.026 C 
ENDBRANCH  34  35
BRANCH  34  37
HETATM   37  C   UNL     1      31.410  43.909  55.931  1.00  0.00     0.118 C 
HETATM   38  C   UNL     1      31.817  43.088  57.148  1.00  0.00     0.026 C 
ENDBRANCH  34  37
ENDBRANCH  31  34
ENDBRANCH   1  28
BRANCH   6  39
HETATM   39  O   UNL     1      23.398  44.506  51.103  1.00  0.00    -0.389 OA
HETATM   40  H   UNL     1      23.462  45.062  51.904  1.00  0.00     0.210 HD
ENDBRANCH   6  39
TORSDOF 10
ENDMDL
MODEL 4
REMARK VINA RESULT:      -8.7      1.333      2.113
REMARK  10 active torsions:
REMARK  status: ('A' for Active; 'I' for Inactive)
REMARK    1  A    between atoms: C_2  and  N_3 
REMARK    2  A    between atoms: N_3  and  C_4 
REMARK    3  A    between atoms: N_3  and  C_37 
REMARK    4  A    between atoms: C_7  and  C_8 
REMARK    5  A    between atoms: N_9  and  C_11 
REMARK    6  A    between atoms: C_11  and  C_12 
REMARK       I    between atoms: C_12  and  N_13 
REMARK    7  A    between atoms: N_13  and  C_14 
REMARK    8  A    between atoms: C_20  and  C_21 
REMARK    9  A    between atoms: C_21  and  O_22 
REMARK   10  A    between atoms: C_28  and  O_29 
ROOT
HETATM    1  C   UNL     1      26.911  43.471  52.758  1.00  0.00     0.228 C 
HETATM    2  N   UNL     1      26.087  44.466  51.951  1.00  0.00    -0.054 N 
HETATM    3  H   UNL     1      25.233  43.949  51.677  1.00  0.00     0.281 HD
HETATM    4  C   UNL     1      25.554  45.599  52.793  1.00  0.00     0.239 C 
HETATM    5  C   UNL     1      26.694  46.344  53.470  1.00  0.00     0.066 C 
HETATM    6  C   UNL     1      27.521  45.391  54.332  1.00  0.00     0.065 C 
HETATM    7  C   UNL     1      28.067  44.211  53.489  1.00  0.00     0.055 C 
HETATM    8  C   UNL     1      28.673  46.141  55.025  1.00  0.00     0.038 C 
HETATM    9  C   UNL     1      29.512  45.213  55.902  1.00  0.00     0.003 C 
HETATM   10  C   UNL     1      30.008  44.002  55.123  1.00  0.00     0.001 C 
HETATM   11  C   UNL     1      28.870  43.265  54.417  1.00  0.00     0.010 C 
ENDROOT
BRANCH   2  12
HETATM   12  C   UNL     1      26.623  44.911  50.582  1.00  0.00     0.338 C 
BRANCH  12  13
HETATM   13  C   UNL     1      25.465  44.930  49.573  1.00  0.00     0.248 C 
HETATM   14  N   UNL     1      24.680  46.059  49.620  1.00  0.00    -0.319 N 
HETATM   15  H   UNL     1      25.086  46.944  49.932  1.00  0.00     0.169 HD
HETATM   16  O   UNL     1      25.312  43.935  48.863  1.00  0.00    -0.271 OA
BRANCH  14  17
HETATM   17  C   UNL     1      23.398  46.174  49.091  1.00  0.00     0.094 A 
HETATM   18  S   UNL     1      22.414  44.806  48.926  1.00  0.00    -0.076 SA
HETATM   19  C   UNL     1      21.091  45.720  48.370  1.00  0.00    -0.012 A 
HETATM   20  C   UNL     1      19.810  45.023  48.034  1.00  0.00     0.057 C 
HETATM   21  C   UNL     1      21.384  47.076  48.294  1.00  0.00    -0.030 A 
HETATM   22  C   UNL     1      20.405  48.113  47.827  1.00  0.00     0.050 C 
HETATM   23  C   UNL     1      22.746  47.350  48.740  1.00  0.00     0.080 A 
BRANCH  23  24
HETATM   24  C   UNL     1      23.430  48.646  48.833  1.00  0.00     0.296 C 
HETATM   25  O   UNL     1      23.891  49.061  49.895  1.00  0.00    -0.259 OA
BRANCH  24  26
HETATM   26  O   UNL     1      23.503  49.315  47.652  1.00  0.00    -0.322 OA
HETATM   27  C   UNL     1      23.302  50.727  47.746  1.00  0.00     0.213 C 
ENDBRANCH  24  26
ENDBRANCH  23  24
ENDBRANCH  14  17
ENDBRANCH  12  13
ENDBRANCH   2  12
BRANCH   1  28
HETATM   28  C   UNL     1      27.277  42.249  51.928  1.00  0.00    -0.027 A 
HETATM   29  C   UNL     1      28.586  41.760  51.811  1.00  0.00     0.011 A 
HETATM   30  C   UNL     1      28.854  40.580  51.103  1.00  0.00     0.030 A 
HETATM   31  C   UNL     1      27.838  39.873  50.456  1.00  0.00     0.030 A 
HETATM   32  C   UNL     1      26.546  40.409  50.507  1.00  0.00     0.030 A 
HETATM   33  C   UNL     1      26.262  41.569  51.236  1.00  0.00     0.011 A 
BRANCH  31  34
HETATM   34  N   UNL     1      28.045  38.660  49.804  1.00  0.00    -0.382 N 
BRANCH  34  35
HETATM   35  C   UNL     1      29.411  38.134  49.664  1.00  0.00     0.118 C 
HETATM   36  C   UNL     1      29.788  37.263  50.856  1.00  0.00     0.026 C 
ENDBRANCH  34  35
BRANCH  34  37
HETATM   37  C   UNL     1      27.102  38.351  48.718  1.00  0.00     0.118 C 
HETATM   38  C   UNL     1      26.512  36.953  48.848  1.00  0.00     0.026 C 
ENDBRANCH  34  37
ENDBRANCH  31  34
ENDBRANCH   1  28
BRANCH   6  39
HETATM   39  O   UNL     1      26.634  44.863  55.325  1.00  0.00    -0.389 OA
HETATM   40  H   UNL     1      27.037  44.072  55.734  1.00  0.00     0.210 HD
ENDBRANCH   6  39
TORSDOF 10
ENDMDL
MODEL 5
REMARK VINA RESULT:      -8.6      1.769      2.308
REMARK  10 active torsions:
REMARK  status: ('A' for Active; 'I' for Inactive)
REMARK    1  A    between atoms: C_2  and  N_3 
REMARK    2  A    between atoms: N_3  and  C_4 
REMARK    3  A    between atoms: N_3  and  C_37 
REMARK    4  A    between atoms: C_7  and  C_8 
REMARK    5  A    between atoms: N_9  and  C_11 
REMARK    6  A    between atoms: C_11  and  C_12 
REMARK       I    between atoms: C_12  and  N_13 
REMARK    7  A    between atoms: N_13  and  C_14 
REMARK    8  A    between atoms: C_20  and  C_21 
REMARK    9  A    between atoms: C_21  and  O_22 
REMARK   10  A    between atoms: C_28  and  O_29 
ROOT
HETATM    1  C   UNL     1      26.619  42.368  51.963  1.00  0.00     0.228 C 
HETATM    2  N   UNL     1      25.517  43.404  51.783  1.00  0.00    -0.054 N 
HETATM    3  H   UNL     1      24.660  42.855  51.594  1.00  0.00     0.281 HD
HETATM    4  C   UNL     1      25.190  44.135  53.061  1.00  0.00     0.239 C 
HETATM    5  C   UNL     1      26.426  44.827  53.613  1.00  0.00     0.066 C 
HETATM    6  C   UNL     1      27.545  43.816  53.857  1.00  0.00     0.065 C 
HETATM    7  C   UNL     1      27.888  43.043  52.558  1.00  0.00     0.055 C 
HETATM    8  C   UNL     1      28.797  44.510  54.420  1.00  0.00     0.038 C 
HETATM    9  C   UNL     1      29.931  43.520  54.682  1.00  0.00     0.003 C 
HETATM   10  C   UNL     1      30.248  42.690  53.445  1.00  0.00     0.001 C 
HETATM   11  C   UNL     1      29.004  42.014  52.869  1.00  0.00     0.010 C 
ENDROOT
BRANCH   2  12
HETATM   12  C   UNL     1      25.571  44.313  50.546  1.00  0.00     0.338 C 
BRANCH  12  13
HETATM   13  C   UNL     1      24.139  44.599  50.071  1.00  0.00     0.248 C 
HETATM   14  N   UNL     1      24.046  45.471  49.012  1.00  0.00    -0.319 N 
HETATM   15  H   UNL     1      24.816  45.536  48.343  1.00  0.00     0.169 HD
HETATM   16  O   UNL     1      23.217  44.075  50.699  1.00  0.00    -0.271 OA
BRANCH  14  17
HETATM   17  C   UNL     1      22.900  46.161  48.631  1.00  0.00     0.094 A 
HETATM   18  S   UNL     1      21.542  45.320  48.068  1.00  0.00    -0.076 SA
HETATM   19  C   UNL     1      20.612  46.739  47.936  1.00  0.00    -0.012 A 
HETATM   20  C   UNL     1      19.197  46.644  47.458  1.00  0.00     0.057 C 
HETATM   21  C   UNL     1      21.326  47.870  48.310  1.00  0.00    -0.030 A 
HETATM   22  C   UNL     1      20.755  49.259  48.282  1.00  0.00     0.050 C 
HETATM   23  C   UNL     1      22.676  47.528  48.741  1.00  0.00     0.080 A 
BRANCH  23  24
HETATM   24  C   UNL     1      23.731  48.426  49.229  1.00  0.00     0.296 C 
HETATM   25  O   UNL     1      24.268  48.260  50.324  1.00  0.00    -0.259 OA
BRANCH  24  26
HETATM   26  O   UNL     1      24.046  49.426  48.365  1.00  0.00    -0.322 OA
HETATM   27  C   UNL     1      25.434  49.760  48.311  1.00  0.00     0.213 C 
ENDBRANCH  24  26
ENDBRANCH  23  24
ENDBRANCH  14  17
ENDBRANCH  12  13
ENDBRANCH   2  12
BRANCH   1  28
HETATM   28  C   UNL     1      26.798  41.522  50.711  1.00  0.00    -0.027 A 
HETATM   29  C   UNL     1      27.432  41.988  49.550  1.00  0.00     0.011 A 
HETATM   30  C   UNL     1      27.646  41.138  48.456  1.00  0.00     0.030 A 
HETATM   31  C   UNL     1      27.202  39.814  48.464  1.00  0.00     0.030 A 
HETATM   32  C   UNL     1      26.498  39.378  49.593  1.00  0.00     0.030 A 
HETATM   33  C   UNL     1      26.305  40.208  50.702  1.00  0.00     0.011 A 
BRANCH  31  34
HETATM   34  N   UNL     1      27.457  38.915  47.432  1.00  0.00    -0.382 N 
BRANCH  34  35
HETATM   35  C   UNL     1      28.226  37.692  47.708  1.00  0.00     0.118 C 
HETATM   36  C   UNL     1      29.518  38.012  48.449  1.00  0.00     0.026 C 
ENDBRANCH  34  35
BRANCH  34  37
HETATM   37  C   UNL     1      27.612  39.506  46.095  1.00  0.00     0.118 C 
HETATM   38  C   UNL     1      28.016  38.473  45.051  1.00  0.00     0.026 C 
ENDBRANCH  34  37
ENDBRANCH  31  34
ENDBRANCH   1  28
BRANCH   6  39
HETATM   39  O   UNL     1      27.048  42.879  54.820  1.00  0.00    -0.389 OA
HETATM   40  H   UNL     1      27.798  42.482  55.305  1.00  0.00     0.210 HD
ENDBRANCH   6  39
TORSDOF 10
ENDMDL
MODEL 6
REMARK VINA RESULT:      -8.5      1.662      2.970
REMARK  10 active torsions:
REMARK  status: ('A' for Active; 'I' for Inactive)
REMARK    1  A    between atoms: C_2  and  N_3 
REMARK    2  A    between atoms: N_3  and  C_4 
REMARK    3  A    between atoms: N_3  and  C_37 
REMARK    4  A    between atoms: C_7  and  C_8 
REMARK    5  A    between atoms: N_9  and  C_11 
REMARK    6  A    between atoms: C_11  and  C_12 
REMARK       I    between atoms: C_12  and  N_13 
REMARK    7  A    between atoms: N_13  and  C_14 
REMARK    8  A    between atoms: C_20  and  C_21 
REMARK    9  A    between atoms: C_21  and  O_22 
REMARK   10  A    between atoms: C_28  and  O_29 
ROOT
HETATM    1  C   UNL     1      26.849  43.743  52.805  1.00  0.00     0.228 C 
HETATM    2  N   UNL     1      26.122  44.981  52.294  1.00  0.00    -0.054 N 
HETATM    3  H   UNL     1      25.167  44.657  52.063  1.00  0.00     0.281 HD
HETATM    4  C   UNL     1      25.892  46.009  53.374  1.00  0.00     0.239 C 
HETATM    5  C   UNL     1      27.212  46.438  53.994  1.00  0.00     0.066 C 
HETATM    6  C   UNL     1      27.954  45.231  54.566  1.00  0.00     0.065 C 
HETATM    7  C   UNL     1      28.190  44.156  53.475  1.00  0.00     0.055 C 
HETATM    8  C   UNL     1      29.289  45.661  55.200  1.00  0.00     0.038 C 
HETATM    9  C   UNL     1      30.050  44.474  55.788  1.00  0.00     0.003 C 
HETATM   10  C   UNL     1      30.238  43.364  54.762  1.00  0.00     0.001 C 
HETATM   11  C   UNL     1      28.918  42.947  54.115  1.00  0.00     0.010 C 
ENDROOT
BRANCH   2  12
HETATM   12  C   UNL     1      26.569  45.583  50.952  1.00  0.00     0.338 C 
BRANCH  12  13
HETATM   13  C   UNL     1      25.576  46.680  50.541  1.00  0.00     0.248 C 
HETATM   14  N   UNL     1      24.364  46.219  50.086  1.00  0.00    -0.319 N 
HETATM   15  H   UNL     1      24.005  45.323  50.422  1.00  0.00     0.169 HD
HETATM   16  O   UNL     1      25.963  47.849  50.604  1.00  0.00    -0.271 OA
BRANCH  14  17
HETATM   17  C   UNL     1      23.450  46.952  49.335  1.00  0.00     0.094 A 
HETATM   18  S   UNL     1      23.567  48.640  49.254  1.00  0.00    -0.076 SA
HETATM   19  C   UNL     1      22.280  48.762  48.148  1.00  0.00    -0.012 A 
HETATM   20  C   UNL     1      21.873  50.111  47.646  1.00  0.00     0.057 C 
HETATM   21  C   UNL     1      21.740  47.521  47.833  1.00  0.00    -0.030 A 
HETATM   22  C   UNL     1      20.588  47.332  46.890  1.00  0.00     0.050 C 
HETATM   23  C   UNL     1      22.445  46.445  48.521  1.00  0.00     0.080 A 
BRANCH  23  24
HETATM   24  C   UNL     1      22.199  44.999  48.441  1.00  0.00     0.296 C 
HETATM   25  O   UNL     1      21.164  44.493  48.873  1.00  0.00    -0.259 OA
BRANCH  24  26
HETATM   26  O   UNL     1      23.205  44.303  47.849  1.00  0.00    -0.322 OA
HETATM   27  C   UNL     1      23.055  44.108  46.441  1.00  0.00     0.213 C 
ENDBRANCH  24  26
ENDBRANCH  23  24
ENDBRANCH  14  17
ENDBRANCH  12  13
ENDBRANCH   2  12
BRANCH   1  28
HETATM   28  C   UNL     1      26.902  42.653  51.745  1.00  0.00    -0.027 A 
HETATM   29  C   UNL     1      28.075  41.961  51.409  1.00  0.00     0.011 A 
HETATM   30  C   UNL     1      28.050  40.906  50.486  1.00  0.00     0.030 A 
HETATM   31  C   UNL     1      26.869  40.533  49.840  1.00  0.00     0.030 A 
HETATM   32  C   UNL     1      25.718  41.278  50.118  1.00  0.00     0.030 A 
HETATM   33  C   UNL     1      25.725  42.314  51.059  1.00  0.00     0.011 A 
BRANCH  31  34
HETATM   34  N   UNL     1      26.782  39.446  48.973  1.00  0.00    -0.382 N 
BRANCH  34  35
HETATM   35  C   UNL     1      27.686  38.299  49.152  1.00  0.00     0.118 C 
HETATM   36  C   UNL     1      26.908  37.038  49.509  1.00  0.00     0.026 C 
ENDBRANCH  34  35
BRANCH  34  37
HETATM   37  C   UNL     1      26.378  39.761  47.595  1.00  0.00     0.118 C 
HETATM   38  C   UNL     1      27.473  40.487  46.825  1.00  0.00     0.026 C 
ENDBRANCH  34  37
ENDBRANCH  31  34
ENDBRANCH   1  28
BRANCH   6  39
HETATM   39  O   UNL     1      27.108  44.670  55.576  1.00  0.00    -0.389 OA
HETATM   40  H   UNL     1      27.444  44.921  56.459  1.00  0.00     0.210 HD
ENDBRANCH   6  39
TORSDOF 10
ENDMDL
MODEL 7
REMARK VINA RESULT:      -8.4      2.366      3.530
REMARK  10 active torsions:
REMARK  status: ('A' for Active; 'I' for Inactive)
REMARK    1  A    between atoms: C_2  and  N_3 
REMARK    2  A    between atoms: N_3  and  C_4 
REMARK    3  A    between atoms: N_3  and  C_37 
REMARK    4  A    between atoms: C_7  and  C_8 
REMARK    5  A    between atoms: N_9  and  C_11 
REMARK    6  A    between atoms: C_11  and  C_12 
REMARK       I    between atoms: C_12  and  N_13 
REMARK    7  A    between atoms: N_13  and  C_14 
REMARK    8  A    between atoms: C_20  and  C_21 
REMARK    9  A    between atoms: C_21  and  O_22 
REMARK   10  A    between atoms: C_28  and  O_29 
ROOT
HETATM    1  C   UNL     1      26.240  43.454  51.989  1.00  0.00     0.228 C 
HETATM    2  N   UNL     1      25.576  44.825  51.955  1.00  0.00    -0.054 N 
HETATM    3  H   UNL     1      24.576  44.635  51.768  1.00  0.00     0.281 HD
HETATM    4  C   UNL     1      25.559  45.498  53.305  1.00  0.00     0.239 C 
HETATM    5  C   UNL     1      26.972  45.653  53.843  1.00  0.00     0.066 C 
HETATM    6  C   UNL     1      27.662  44.293  53.942  1.00  0.00     0.065 C 
HETATM    7  C   UNL     1      27.679  43.578  52.567  1.00  0.00     0.055 C 
HETATM    8  C   UNL     1      29.091  44.443  54.492  1.00  0.00     0.038 C 
HETATM    9  C   UNL     1      29.803  43.096  54.609  1.00  0.00     0.003 C 
HETATM   10  C   UNL     1      29.776  42.331  53.293  1.00  0.00     0.001 C 
HETATM   11  C   UNL     1      28.361  42.196  52.732  1.00  0.00     0.010 C 
ENDROOT
BRANCH   2  12
HETATM   12  C   UNL     1      25.925  45.772  50.795  1.00  0.00     0.338 C 
BRANCH  12  13
HETATM   13  C   UNL     1      24.755  46.742  50.573  1.00  0.00     0.248 C 
HETATM   14  N   UNL     1      23.789  46.288  49.706  1.00  0.00    -0.319 N 
HETATM   15  H   UNL     1      23.630  45.283  49.607  1.00  0.00     0.169 HD
HETATM   16  O   UNL     1      24.809  47.836  51.135  1.00  0.00    -0.271 OA
BRANCH  14  17
HETATM   17  C   UNL     1      22.840  47.080  49.066  1.00  0.00     0.094 A 
HETATM   18  S   UNL     1      23.009  48.765  49.041  1.00  0.00    -0.076 SA
HETATM   19  C   UNL     1      21.638  48.974  48.055  1.00  0.00    -0.012 A 
HETATM   20  C   UNL     1      21.236  50.355  47.644  1.00  0.00     0.057 C 
HETATM   21  C   UNL     1      21.030  47.765  47.741  1.00  0.00    -0.030 A 
HETATM   22  C   UNL     1      19.796  47.652  46.894  1.00  0.00     0.050 C 
HETATM   23  C   UNL     1      21.752  46.639  48.322  1.00  0.00     0.080 A 
BRANCH  23  24
HETATM   24  C   UNL     1      21.451  45.207  48.208  1.00  0.00     0.296 C 
HETATM   25  O   UNL     1      20.419  44.722  48.672  1.00  0.00    -0.259 OA
BRANCH  24  26
HETATM   26  O   UNL     1      22.401  44.496  47.547  1.00  0.00    -0.322 OA
HETATM   27  C   UNL     1      22.457  44.729  46.138  1.00  0.00     0.213 C 
ENDBRANCH  24  26
ENDBRANCH  23  24
ENDBRANCH  14  17
ENDBRANCH  12  13
ENDBRANCH   2  12
BRANCH   1  28
HETATM   28  C   UNL     1      26.079  42.725  50.663  1.00  0.00    -0.027 A 
HETATM   29  C   UNL     1      27.136  42.512  49.767  1.00  0.00     0.011 A 
HETATM   30  C   UNL     1      26.950  41.758  48.600  1.00  0.00     0.030 A 
HETATM   31  C   UNL     1      25.701  41.229  48.266  1.00  0.00     0.030 A 
HETATM   32  C   UNL     1      24.631  41.512  49.123  1.00  0.00     0.030 A 
HETATM   33  C   UNL     1      24.811  42.238  50.306  1.00  0.00     0.011 A 
BRANCH  31  34
HETATM   34  N   UNL     1      25.486  40.414  47.158  1.00  0.00    -0.382 N 
BRANCH  34  35
HETATM   35  C   UNL     1      24.169  40.412  46.502  1.00  0.00     0.118 C 
HETATM   36  C   UNL     1      24.105  41.462  45.399  1.00  0.00     0.026 C 
ENDBRANCH  34  35
BRANCH  34  37
HETATM   37  C   UNL     1      26.234  39.147  47.143  1.00  0.00     0.118 C 
HETATM   38  C   UNL     1      26.801  38.829  45.766  1.00  0.00     0.026 C 
ENDBRANCH  34  37
ENDBRANCH  31  34
ENDBRANCH   1  28
BRANCH   6  39
HETATM   39  O   UNL     1      26.884  43.504  54.850  1.00  0.00    -0.389 OA
HETATM   40  H   UNL     1      25.952  43.490  54.554  1.00  0.00     0.210 HD
ENDBRANCH   6  39
TORSDOF 10
ENDMDL
MODEL 8
REMARK VINA RESULT:      -8.4      4.790     10.579
REMARK  10 active torsions:
REMARK  status: ('A' for Active; 'I' for Inactive)
REMARK    1  A    between atoms: C_2  and  N_3 
REMARK    2  A    between atoms: N_3  and  C_4 
REMARK    3  A    between atoms: N_3  and  C_37 
REMARK    4  A    between atoms: C_7  and  C_8 
REMARK    5  A    between atoms: N_9  and  C_11 
REMARK    6  A    between atoms: C_11  and  C_12 
REMARK       I    between atoms: C_12  and  N_13 
REMARK    7  A    between atoms: N_13  and  C_14 
REMARK    8  A    between atoms: C_20  and  C_21 
REMARK    9  A    between atoms: C_21  and  O_22 
REMARK   10  A    between atoms: C_28  and  O_29 
ROOT
HETATM    1  C   UNL     1      18.857  49.920  47.275  1.00  0.00     0.228 C 
HETATM    2  N   UNL     1      20.223  49.761  47.931  1.00  0.00    -0.054 N 
HETATM    3  H   UNL     1      20.874  49.566  47.151  1.00  0.00     0.281 HD
HETATM    4  C   UNL     1      20.746  51.053  48.508  1.00  0.00     0.239 C 
HETATM    5  C   UNL     1      19.773  51.612  49.535  1.00  0.00     0.066 C 
HETATM    6  C   UNL     1      18.399  51.835  48.906  1.00  0.00     0.065 C 
HETATM    7  C   UNL     1      17.848  50.522  48.294  1.00  0.00     0.055 C 
HETATM    8  C   UNL     1      17.411  52.407  49.939  1.00  0.00     0.038 C 
HETATM    9  C   UNL     1      16.028  52.648  49.335  1.00  0.00     0.003 C 
HETATM   10  C   UNL     1      15.485  51.396  48.660  1.00  0.00     0.001 C 
HETATM   11  C   UNL     1      16.470  50.813  47.648  1.00  0.00     0.010 C 
ENDROOT
BRANCH   2  12
HETATM   12  C   UNL     1      20.457  48.539  48.833  1.00  0.00     0.338 C 
BRANCH  12  13
HETATM   13  C   UNL     1      21.824  47.925  48.498  1.00  0.00     0.248 C 
HETATM   14  N   UNL     1      22.660  47.759  49.577  1.00  0.00    -0.319 N 
HETATM   15  H   UNL     1      22.261  47.614  50.507  1.00  0.00     0.169 HD
HETATM   16  O   UNL     1      22.066  47.688  47.313  1.00  0.00    -0.271 OA
BRANCH  14  17
HETATM   17  C   UNL     1      24.037  47.571  49.512  1.00  0.00     0.094 A 
HETATM   18  S   UNL     1      25.063  48.874  49.169  1.00  0.00    -0.076 SA
HETATM   19  C   UNL     1      26.466  47.932  49.369  1.00  0.00    -0.012 A 
HETATM   20  C   UNL     1      27.807  48.571  49.192  1.00  0.00     0.057 C 
HETATM   21  C   UNL     1      26.171  46.613  49.691  1.00  0.00    -0.030 A 
HETATM   22  C   UNL     1      27.216  45.559  49.915  1.00  0.00     0.050 C 
HETATM   23  C   UNL     1      24.731  46.401  49.795  1.00  0.00     0.080 A 
BRANCH  23  24
HETATM   24  C   UNL     1      24.016  45.165  50.135  1.00  0.00     0.296 C 
HETATM   25  O   UNL     1      23.963  44.742  51.289  1.00  0.00    -0.259 OA
BRANCH  24  26
HETATM   26  O   UNL     1      23.428  44.559  49.069  1.00  0.00    -0.322 OA
HETATM   27  C   UNL     1      22.063  44.185  49.267  1.00  0.00     0.213 C 
ENDBRANCH  24  26
ENDBRANCH  23  24
ENDBRANCH  14  17
ENDBRANCH  12  13
ENDBRANCH   2  12
BRANCH   1  28
HETATM   28  C   UNL     1      18.440  48.653  46.543  1.00  0.00    -0.027 A 
HETATM   29  C   UNL     1      18.711  48.423  45.186  1.00  0.00     0.011 A 
HETATM   30  C   UNL     1      18.380  47.201  44.583  1.00  0.00     0.030 A 
HETATM   31  C   UNL     1      17.735  46.188  45.297  1.00  0.00     0.030 A 
HETATM   32  C   UNL     1      17.395  46.454  46.628  1.00  0.00     0.030 A 
HETATM   33  C   UNL     1      17.746  47.658  47.248  1.00  0.00     0.011 A 
BRANCH  31  34
HETATM   34  N   UNL     1      17.455  44.933  44.761  1.00  0.00    -0.382 N 
BRANCH  34  35
HETATM   35  C   UNL     1      18.449  44.271  43.903  1.00  0.00     0.118 C 
HETATM   36  C   UNL     1      19.020  43.032  44.581  1.00  0.00     0.026 C 
ENDBRANCH  34  35
BRANCH  34  37
HETATM   37  C   UNL     1      16.040  44.672  44.458  1.00  0.00     0.118 C 
HETATM   38  C   UNL     1      15.815  44.359  42.984  1.00  0.00     0.026 C 
ENDBRANCH  34  37
ENDBRANCH  31  34
ENDBRANCH   1  28
BRANCH   6  39
HETATM   39  O   UNL     1      18.580  52.784  47.848  1.00  0.00    -0.389 OA
HETATM   40  H   UNL     1      18.107  53.611  48.067  1.00  0.00     0.210 HD
ENDBRANCH   6  39
TORSDOF 10
ENDMDL
MODEL 9
REMARK VINA RESULT:      -8.3      2.511      7.064
REMARK  10 active torsions:
REMARK  status: ('A' for Active; 'I' for Inactive)
REMARK    1  A    between atoms: C_2  and  N_3 
REMARK    2  A    between atoms: N_3  and  C_4 
REMARK    3  A    between atoms: N_3  and  C_37 
REMARK    4  A    between atoms: C_7  and  C_8 
REMARK    5  A    between atoms: N_9  and  C_11 
REMARK    6  A    between atoms: C_11  and  C_12 
REMARK       I    between atoms: C_12  and  N_13 
REMARK    7  A    between atoms: N_13  and  C_14 
REMARK    8  A    between atoms: C_20  and  C_21 
REMARK    9  A    between atoms: C_21  and  O_22 
REMARK   10  A    between atoms: C_28  and  O_29 
ROOT
HETATM    1  C   UNL     1      25.881  44.278  50.088  1.00  0.00     0.228 C 
HETATM    2  N   UNL     1      26.109  44.836  51.488  1.00  0.00    -0.054 N 
HETATM    3  H   UNL     1      27.119  44.702  51.669  1.00  0.00     0.281 HD
HETATM    4  C   UNL     1      25.938  46.333  51.554  1.00  0.00     0.239 C 
HETATM    5  C   UNL     1      24.546  46.733  51.088  1.00  0.00     0.066 C 
HETATM    6  C   UNL     1      24.292  46.236  49.666  1.00  0.00     0.065 C 
HETATM    7  C   UNL     1      24.476  44.700  49.573  1.00  0.00     0.055 C 
HETATM    8  C   UNL     1      22.886  46.643  49.188  1.00  0.00     0.038 C 
HETATM    9  C   UNL     1      22.607  46.165  47.764  1.00  0.00     0.003 C 
HETATM   10  C   UNL     1      22.848  44.669  47.617  1.00  0.00     0.001 C 
HETATM   11  C   UNL     1      24.235  44.256  48.109  1.00  0.00     0.010 C 
ENDROOT
BRANCH   2  12
HETATM   12  C   UNL     1      25.487  44.088  52.677  1.00  0.00     0.338 C 
BRANCH  12  13
HETATM   13  C   UNL     1      26.275  44.430  53.950  1.00  0.00     0.248 C 
HETATM   14  N   UNL     1      27.565  44.851  53.733  1.00  0.00    -0.319 N 
HETATM   15  H   UNL     1      27.802  45.324  52.857  1.00  0.00     0.169 HD
HETATM   16  O   UNL     1      25.713  44.250  55.032  1.00  0.00    -0.271 OA
BRANCH  14  17
HETATM   17  C   UNL     1      28.580  44.876  54.686  1.00  0.00     0.094 A 
HETATM   18  S   UNL     1      28.637  46.112  55.842  1.00  0.00    -0.076 SA
HETATM   19  C   UNL     1      29.975  45.422  56.636  1.00  0.00    -0.012 A 
HETATM   20  C   UNL     1      30.538  46.102  57.844  1.00  0.00     0.057 C 
HETATM   21  C   UNL     1      30.399  44.249  56.026  1.00  0.00    -0.030 A 
HETATM   22  C   UNL     1      31.564  43.436  56.510  1.00  0.00     0.050 C 
HETATM   23  C   UNL     1      29.561  43.912  54.881  1.00  0.00     0.080 A 
BRANCH  23  24
HETATM   24  C   UNL     1      29.662  42.750  53.989  1.00  0.00     0.296 C 
HETATM   25  O   UNL     1      30.626  42.587  53.243  1.00  0.00    -0.259 OA
BRANCH  24  26
HETATM   26  O   UNL     1      28.610  41.894  54.080  1.00  0.00    -0.322 OA
HETATM   27  C   UNL     1      28.747  40.689  53.325  1.00  0.00     0.213 C 
ENDBRANCH  24  26
ENDBRANCH  23  24
ENDBRANCH  14  17
ENDBRANCH  12  13
ENDBRANCH   2  12
BRANCH   1  28
HETATM   28  C   UNL     1      26.241  42.801  50.013  1.00  0.00    -0.027 A 
HETATM   29  C   UNL     1      25.305  41.793  49.739  1.00  0.00     0.011 A 
HETATM   30  C   UNL     1      25.706  40.458  49.596  1.00  0.00     0.030 A 
HETATM   31  C   UNL     1      27.040  40.077  49.760  1.00  0.00     0.030 A 
HETATM   32  C   UNL     1      27.957  41.074  50.112  1.00  0.00     0.030 A 
HETATM   33  C   UNL     1      27.573  42.414  50.228  1.00  0.00     0.011 A 
BRANCH  31  34
HETATM   34  N   UNL     1      27.495  38.777  49.554  1.00  0.00    -0.382 N 
BRANCH  34  35
HETATM   35  C   UNL     1      26.541  37.659  49.588  1.00  0.00     0.118 C 
HETATM   36  C   UNL     1      26.402  37.014  48.214  1.00  0.00     0.026 C 
ENDBRANCH  34  35
BRANCH  34  37
HETATM   37  C   UNL     1      28.859  38.497  50.029  1.00  0.00     0.118 C 
HETATM   38  C   UNL     1      29.799  38.117  48.892  1.00  0.00     0.026 C 
ENDBRANCH  34  37
ENDBRANCH  31  34
ENDBRANCH   1  28
BRANCH   6  39
HETATM   39  O   UNL     1      25.275  46.858  48.832  1.00  0.00    -0.389 OA
HETATM   40  H   UNL     1      26.125  46.911  49.314  1.00  0.00     0.210 HD
ENDBRANCH   6  39
TORSDOF 10
ENDMDL
MODEL 10
REMARK VINA RESULT:      -8.2      2.767      6.869
REMARK  10 active torsions:
REMARK  status: ('A' for Active; 'I' for Inactive)
REMARK    1  A    between atoms: C_2  and  N_3 
REMARK    2  A    between atoms: N_3  and  C_4 
REMARK    3  A    between atoms: N_3  and  C_37 
REMARK    4  A    between atoms: C_7  and  C_8 
REMARK    5  A    between atoms: N_9  and  C_11 
REMARK    6  A    between atoms: C_11  and  C_12 
REMARK       I    between atoms: C_12  and  N_13 
REMARK    7  A    between atoms: N_13  and  C_14 
REMARK    8  A    between atoms: C_20  and  C_21 
REMARK    9  A    between atoms: C_21  and  O_22 
REMARK   10  A    between atoms: C_28  and  O_29 
ROOT
HETATM    1  C   UNL     1      26.205  43.819  50.299  1.00  0.00     0.228 C 
HETATM    2  N   UNL     1      26.447  44.369  51.700  1.00  0.00    -0.054 N 
HETATM    3  H   UNL     1      27.457  44.230  51.872  1.00  0.00     0.281 HD
HETATM    4  C   UNL     1      26.282  45.867  51.775  1.00  0.00     0.239 C 
HETATM    5  C   UNL     1      24.888  46.274  51.323  1.00  0.00     0.066 C 
HETATM    6  C   UNL     1      24.620  45.786  49.901  1.00  0.00     0.065 C 
HETATM    7  C   UNL     1      24.797  44.249  49.798  1.00  0.00     0.055 C 
HETATM    8  C   UNL     1      23.212  46.200  49.436  1.00  0.00     0.038 C 
HETATM    9  C   UNL     1      22.919  45.732  48.012  1.00  0.00     0.003 C 
HETATM   10  C   UNL     1      23.152  44.235  47.855  1.00  0.00     0.001 C 
HETATM   11  C   UNL     1      24.542  43.814  48.333  1.00  0.00     0.010 C 
ENDROOT
BRANCH   2  12
HETATM   12  C   UNL     1      25.831  43.618  52.891  1.00  0.00     0.338 C 
BRANCH  12  13
HETATM   13  C   UNL     1      26.596  43.993  54.168  1.00  0.00     0.248 C 
HETATM   14  N   UNL     1      27.911  44.341  53.970  1.00  0.00    -0.319 N 
HETATM   15  H   UNL     1      28.196  44.752  53.079  1.00  0.00     0.169 HD
HETATM   16  O   UNL     1      25.993  43.901  55.239  1.00  0.00    -0.271 OA
BRANCH  14  17
HETATM   17  C   UNL     1      28.896  44.372  54.953  1.00  0.00     0.094 A 
HETATM   18  S   UNL     1      30.078  43.160  55.018  1.00  0.00    -0.076 SA
HETATM   19  C   UNL     1      30.901  43.913  56.303  1.00  0.00    -0.012 A 
HETATM   20  C   UNL     1      32.140  43.277  56.850  1.00  0.00     0.057 C 
HETATM   21  C   UNL     1      30.282  45.090  56.704  1.00  0.00    -0.030 A 
HETATM   22  C   UNL     1      30.786  45.955  57.823  1.00  0.00     0.050 C 
HETATM   23  C   UNL     1      29.104  45.374  55.892  1.00  0.00     0.080 A 
BRANCH  23  24
HETATM   24  C   UNL     1      28.193  46.523  55.980  1.00  0.00     0.296 C 
HETATM   25  O   UNL     1      27.689  46.871  57.047  1.00  0.00    -0.259 OA
BRANCH  24  26
HETATM   26  O   UNL     1      27.979  47.147  54.791  1.00  0.00    -0.322 OA
HETATM   27  C   UNL     1      27.095  48.268  54.851  1.00  0.00     0.213 C 
ENDBRANCH  24  26
ENDBRANCH  23  24
ENDBRANCH  14  17
ENDBRANCH  12  13
ENDBRANCH   2  12
BRANCH   1  28
HETATM   28  C   UNL     1      26.558  42.342  50.213  1.00  0.00    -0.027 A 
HETATM   29  C   UNL     1      25.624  41.343  49.898  1.00  0.00     0.011 A 
HETATM   30  C   UNL     1      26.022  40.008  49.747  1.00  0.00     0.030 A 
HETATM   31  C   UNL     1      27.348  39.616  49.945  1.00  0.00     0.030 A 
HETATM   32  C   UNL     1      28.260  40.602  50.339  1.00  0.00     0.030 A 
HETATM   33  C   UNL     1      27.880  41.943  50.463  1.00  0.00     0.011 A 
BRANCH  31  34
HETATM   34  N   UNL     1      27.802  38.316  49.735  1.00  0.00    -0.382 N 
BRANCH  34  35
HETATM   35  C   UNL     1      26.840  37.203  49.727  1.00  0.00     0.118 C 
HETATM   36  C   UNL     1      26.712  36.600  48.333  1.00  0.00     0.026 C 
ENDBRANCH  34  35
BRANCH  34  37
HETATM   37  C   UNL     1      29.150  38.022  50.244  1.00  0.00     0.118 C 
HETATM   38  C   UNL     1      30.200  38.047  49.141  1.00  0.00     0.026 C 
ENDBRANCH  34  37
ENDBRANCH  31  34
ENDBRANCH   1  28
BRANCH   6  39
HETATM   39  O   UNL     1      25.599  46.409  49.062  1.00  0.00    -0.389 OA
HETATM   40  H   UNL     1      26.452  46.455  49.537  1.00  0.00     0.210 HD
ENDBRANCH   6  39
TORSDOF 10
ENDMDL
