MODEL 1
REMARK VINA RESULT:      -9.5      0.000      0.000
REMARK  7 active torsions:
REMARK  status: ('A' for Active; 'I' for Inactive)
REMARK    1  A    between atoms: C_2  and  C_3 
REMARK    2  A    between atoms: C_3  and  C_4 
REMARK       I    between atoms: C_4  and  N_5 
REMARK    3  A    between atoms: N_5  and  C_6 
REMARK    4  A    between atoms: C_6  and  C_7 
REMARK    5  A    between atoms: C_9  and  N_10 
REMARK    6  A    between atoms: N_10  and  C_11 
REMARK    7  A    between atoms: C_27  and  N_28 
ROOT
HETATM    1  C   UNL     1      23.496  43.217  49.961  1.00  0.00     0.203 C 
ENDROOT
BRANCH   1   2
HETATM    2  N   UNL     1      22.327  43.747  49.279  1.00  0.00    -0.354 N 
HETATM    3  C   UNL     1      22.334  43.971  47.924  1.00  0.00     0.222 C 
HETATM    4  O   UNL     1      23.297  43.690  47.216  1.00  0.00    -0.273 OA
HETATM    5  H   UNL     1      21.617  44.164  49.871  1.00  0.00     0.162 HD
BRANCH   3   6
HETATM    6  C   UNL     1      21.035  44.537  47.372  1.00  0.00     0.141 C 
BRANCH   6   7
HETATM    7  C   UNL     1      20.706  45.933  47.845  1.00  0.00    -0.049 A 
HETATM    8  C   UNL     1      21.661  46.952  47.809  1.00  0.00     0.010 A 
HETATM    9  C   UNL     1      21.329  48.262  48.184  1.00  0.00     0.030 A 
HETATM   10  C   UNL     1      20.030  48.598  48.592  1.00  0.00     0.039 A 
HETATM   11  C   UNL     1      19.083  47.568  48.636  1.00  0.00     0.030 A 
HETATM   12  C   UNL     1      19.413  46.256  48.268  1.00  0.00     0.010 A 
BRANCH  10  13
HETATM   13  N   UNL     1      19.700  49.936  48.926  1.00  0.00    -0.298 N 
HETATM   14  C   UNL     1      19.096  50.391  50.114  1.00  0.00     0.323 C 
HETATM   15  O   UNL     1      18.708  49.770  51.089  1.00  0.00    -0.247 OA
HETATM   16  N   UNL     1      18.971  51.775  50.024  1.00  0.00    -0.341 N 
HETATM   17  C   UNL     1      19.258  52.228  48.697  1.00  0.00     0.144 C 
HETATM   18  H   UNL     1      18.406  52.257  50.709  1.00  0.00     0.164 HD
HETATM   19  C   UNL     1      20.017  51.067  48.077  1.00  0.00     0.153 C 
ENDBRANCH  10  13
ENDBRANCH   6   7
ENDBRANCH   3   6
ENDBRANCH   1   2
BRANCH   1  20
HETATM   20  C   UNL     1      24.194  44.257  50.812  1.00  0.00     0.146 A 
HETATM   21  N   UNL     1      24.165  45.533  50.380  1.00  0.00    -0.219 NA
HETATM   22  C   UNL     1      24.809  46.455  51.115  1.00  0.00     0.118 A 
HETATM   23  C   UNL     1      25.463  46.122  52.315  1.00  0.00     0.035 A 
HETATM   24  C   UNL     1      25.431  44.767  52.668  1.00  0.00     0.072 A 
HETATM   25  C   UNL     1      26.121  47.050  53.163  1.00  0.00     0.041 A 
HETATM   26  N   UNL     1      24.819  43.842  51.926  1.00  0.00    -0.231 NA
HETATM   27  C   UNL     1      26.060  44.367  53.842  1.00  0.00     0.034 A 
HETATM   28  C   UNL     1      26.715  45.276  54.676  1.00  0.00     0.026 A 
HETATM   29  C   UNL     1      26.741  46.620  54.333  1.00  0.00     0.035 A 
HETATM   30 CL   UNL     1      27.535  47.754  55.351  1.00  0.00    -0.084 Cl
BRANCH  22  31
HETATM   31  N   UNL     1      24.824  47.797  50.674  1.00  0.00    -0.272 NA
HETATM   32  H   UNL     1      25.288  48.350  51.392  1.00  0.00     0.129 HD
BRANCH  31  33
HETATM   33  C   UNL     1      25.398  48.041  49.351  1.00  0.00     0.061 C 
HETATM   34  C   UNL     1      24.893  49.366  48.764  1.00  0.00     0.020 C 
HETATM   35  C   UNL     1      26.083  49.918  47.997  1.00  0.00     0.002 C 
HETATM   36  C   UNL     1      27.250  49.595  48.911  1.00  0.00     0.002 C 
HETATM   37  C   UNL     1      26.927  48.207  49.457  1.00  0.00     0.020 C 
ENDBRANCH  31  33
ENDBRANCH  22  31
ENDBRANCH   1  20
TORSDOF 7
ENDMDL
MODEL 2
REMARK VINA RESULT:      -9.5      3.375      5.406
REMARK  7 active torsions:
REMARK  status: ('A' for Active; 'I' for Inactive)
REMARK    1  A    between atoms: C_2  and  C_3 
REMARK    2  A    between atoms: C_3  and  C_4 
REMARK       I    between atoms: C_4  and  N_5 
REMARK    3  A    between atoms: N_5  and  C_6 
REMARK    4  A    between atoms: C_6  and  C_7 
REMARK    5  A    between atoms: C_9  and  N_10 
REMARK    6  A    between atoms: N_10  and  C_11 
REMARK    7  A    between atoms: C_27  and  N_28 
ROOT
HETATM    1  C   UNL     1      24.276  44.879  51.617  1.00  0.00     0.203 C 
ENDROOT
BRANCH   1   2
HETATM    2  N   UNL     1      24.198  45.768  50.470  1.00  0.00    -0.354 N 
HETATM    3  C   UNL     1      24.664  47.058  50.538  1.00  0.00     0.222 C 
HETATM    4  O   UNL     1      25.214  47.508  51.540  1.00  0.00    -0.273 OA
HETATM    5  H   UNL     1      23.575  45.480  49.723  1.00  0.00     0.162 HD
BRANCH   3   6
HETATM    6  C   UNL     1      24.497  47.857  49.254  1.00  0.00     0.141 C 
BRANCH   6   7
HETATM    7  C   UNL     1      23.236  48.685  49.189  1.00  0.00    -0.049 A 
HETATM    8  C   UNL     1      21.982  48.084  49.061  1.00  0.00     0.010 A 
HETATM    9  C   UNL     1      20.811  48.855  49.071  1.00  0.00     0.030 A 
HETATM   10  C   UNL     1      20.855  50.248  49.225  1.00  0.00     0.039 A 
HETATM   11  C   UNL     1      22.116  50.843  49.341  1.00  0.00     0.030 A 
HETATM   12  C   UNL     1      23.290  50.076  49.325  1.00  0.00     0.010 A 
BRANCH  10  13
HETATM   13  N   UNL     1      19.658  51.008  49.277  1.00  0.00    -0.298 N 
HETATM   14  C   UNL     1      18.535  50.770  50.090  1.00  0.00     0.323 C 
HETATM   15  O   UNL     1      18.317  49.879  50.894  1.00  0.00    -0.247 OA
HETATM   16  N   UNL     1      17.600  51.767  49.827  1.00  0.00    -0.341 N 
HETATM   17  C   UNL     1      17.978  52.531  48.678  1.00  0.00     0.144 C 
HETATM   18  H   UNL     1      16.663  51.664  50.192  1.00  0.00     0.164 HD
HETATM   19  C   UNL     1      19.458  52.223  48.512  1.00  0.00     0.153 C 
ENDBRANCH  10  13
ENDBRANCH   6   7
ENDBRANCH   3   6
ENDBRANCH   1   2
BRANCH   1  20
HETATM   20  C   UNL     1      25.378  43.850  51.481  1.00  0.00     0.146 A 
HETATM   21  N   UNL     1      26.566  44.135  52.051  1.00  0.00    -0.219 NA
HETATM   22  C   UNL     1      27.558  43.240  51.906  1.00  0.00     0.118 A 
HETATM   23  C   UNL     1      27.368  42.028  51.220  1.00  0.00     0.035 A 
HETATM   24  C   UNL     1      26.095  41.836  50.667  1.00  0.00     0.072 A 
HETATM   25  C   UNL     1      28.354  41.019  51.070  1.00  0.00     0.041 A 
HETATM   26  N   UNL     1      25.115  42.734  50.781  1.00  0.00    -0.231 NA
HETATM   27  C   UNL     1      25.838  40.658  49.974  1.00  0.00     0.034 A 
HETATM   28  C   UNL     1      26.809  39.665  49.818  1.00  0.00     0.026 A 
HETATM   29  C   UNL     1      28.068  39.850  50.371  1.00  0.00     0.035 A 
HETATM   30 CL   UNL     1      29.272  38.636  50.196  1.00  0.00    -0.084 Cl
BRANCH  22  31
HETATM   31  N   UNL     1      28.825  43.523  52.464  1.00  0.00    -0.272 NA
HETATM   32  H   UNL     1      29.035  44.499  52.266  1.00  0.00     0.129 HD
BRANCH  31  33
HETATM   33  C   UNL     1      28.994  43.212  53.883  1.00  0.00     0.061 C 
HETATM   34  C   UNL     1      30.458  42.884  54.208  1.00  0.00     0.020 C 
HETATM   35  C   UNL     1      30.675  43.457  55.599  1.00  0.00     0.002 C 
HETATM   36  C   UNL     1      29.920  44.772  55.541  1.00  0.00     0.002 C 
HETATM   37  C   UNL     1      28.661  44.449  54.742  1.00  0.00     0.020 C 
ENDBRANCH  31  33
ENDBRANCH  22  31
ENDBRANCH   1  20
TORSDOF 7
ENDMDL
MODEL 3
REMARK VINA RESULT:      -9.2      3.074      5.088
REMARK  7 active torsions:
REMARK  status: ('A' for Active; 'I' for Inactive)
REMARK    1  A    between atoms: C_2  and  C_3 
REMARK    2  A    between atoms: C_3  and  C_4 
REMARK       I    between atoms: C_4  and  N_5 
REMARK    3  A    between atoms: N_5  and  C_6 
REMARK    4  A    between atoms: C_6  and  C_7 
REMARK    5  A    between atoms: C_9  and  N_10 
REMARK    6  A    between atoms: N_10  and  C_11 
REMARK    7  A    between atoms: C_27  and  N_28 
ROOT
HETATM    1  C   UNL     1      25.675  47.073  53.206  1.00  0.00     0.203 C 
ENDROOT
BRANCH   1   2
HETATM    2  N   UNL     1      25.110  46.646  51.936  1.00  0.00    -0.354 N 
HETATM    3  C   UNL     1      25.524  47.203  50.751  1.00  0.00     0.222 C 
HETATM    4  O   UNL     1      26.419  48.042  50.696  1.00  0.00    -0.273 OA
HETATM    5  H   UNL     1      24.247  46.116  51.988  1.00  0.00     0.162 HD
BRANCH   3   6
HETATM    6  C   UNL     1      24.826  46.652  49.518  1.00  0.00     0.141 C 
BRANCH   6   7
HETATM    7  C   UNL     1      23.504  47.308  49.198  1.00  0.00    -0.049 A 
HETATM    8  C   UNL     1      22.432  46.568  48.692  1.00  0.00     0.010 A 
HETATM    9  C   UNL     1      21.187  47.170  48.463  1.00  0.00     0.030 A 
HETATM   10  C   UNL     1      20.969  48.526  48.746  1.00  0.00     0.039 A 
HETATM   11  C   UNL     1      22.051  49.263  49.241  1.00  0.00     0.030 A 
HETATM   12  C   UNL     1      23.300  48.665  49.466  1.00  0.00     0.010 A 
BRANCH  10  13
HETATM   13  N   UNL     1      19.691  49.109  48.549  1.00  0.00    -0.298 N 
HETATM   14  C   UNL     1      18.769  49.491  49.542  1.00  0.00     0.323 C 
HETATM   15  O   UNL     1      18.833  49.396  50.756  1.00  0.00    -0.247 OA
HETATM   16  N   UNL     1      17.656  50.031  48.903  1.00  0.00    -0.341 N 
HETATM   17  C   UNL     1      17.713  49.797  47.493  1.00  0.00     0.144 C 
HETATM   18  H   UNL     1      16.820  50.203  49.446  1.00  0.00     0.164 HD
HETATM   19  C   UNL     1      19.175  49.465  47.242  1.00  0.00     0.153 C 
ENDBRANCH  10  13
ENDBRANCH   6   7
ENDBRANCH   3   6
ENDBRANCH   1   2
BRANCH   1  20
HETATM   20  C   UNL     1      26.719  46.110  53.731  1.00  0.00     0.146 A 
HETATM   21  N   UNL     1      26.625  44.822  53.346  1.00  0.00    -0.219 NA
HETATM   22  C   UNL     1      27.530  43.958  53.834  1.00  0.00     0.118 A 
HETATM   23  C   UNL     1      28.567  44.373  54.687  1.00  0.00     0.035 A 
HETATM   24  C   UNL     1      28.569  45.734  55.023  1.00  0.00     0.072 A 
HETATM   25  C   UNL     1      29.582  43.525  55.200  1.00  0.00     0.041 A 
HETATM   26  N   UNL     1      27.655  46.591  54.566  1.00  0.00    -0.231 NA
HETATM   27  C   UNL     1      29.566  46.213  55.864  1.00  0.00     0.034 A 
HETATM   28  C   UNL     1      30.564  45.379  56.378  1.00  0.00     0.026 A 
HETATM   29  C   UNL     1      30.569  44.034  56.040  1.00  0.00     0.035 A 
HETATM   30 CL   UNL     1      31.793  42.996  56.655  1.00  0.00    -0.084 Cl
BRANCH  22  31
HETATM   31  N   UNL     1      27.440  42.594  53.474  1.00  0.00    -0.272 NA
HETATM   32  H   UNL     1      26.482  42.296  53.642  1.00  0.00     0.129 HD
BRANCH  31  33
HETATM   33  C   UNL     1      27.885  42.247  52.125  1.00  0.00     0.061 C 
HETATM   34  C   UNL     1      28.642  40.912  52.117  1.00  0.00     0.020 C 
HETATM   35  C   UNL     1      28.254  40.264  50.798  1.00  0.00     0.002 C 
HETATM   36  C   UNL     1      26.777  40.592  50.686  1.00  0.00     0.002 C 
HETATM   37  C   UNL     1      26.668  42.022  51.205  1.00  0.00     0.020 C 
ENDBRANCH  31  33
ENDBRANCH  22  31
ENDBRANCH   1  20
TORSDOF 7
ENDMDL
MODEL 4
REMARK VINA RESULT:      -9.2      3.304      5.270
REMARK  7 active torsions:
REMARK  status: ('A' for Active; 'I' for Inactive)
REMARK    1  A    between atoms: C_2  and  C_3 
REMARK    2  A    between atoms: C_3  and  C_4 
REMARK       I    between atoms: C_4  and  N_5 
REMARK    3  A    between atoms: N_5  and  C_6 
REMARK    4  A    between atoms: C_6  and  C_7 
REMARK    5  A    between atoms: C_9  and  N_10 
REMARK    6  A    between atoms: N_10  and  C_11 
REMARK    7  A    between atoms: C_27  and  N_28 
ROOT
HETATM    1  C   UNL     1      25.154  46.726  51.266  1.00  0.00     0.203 C 
ENDROOT
BRANCH   1   2
HETATM    2  N   UNL     1      24.178  46.773  50.190  1.00  0.00    -0.354 N 
HETATM    3  C   UNL     1      23.970  47.923  49.469  1.00  0.00     0.222 C 
HETATM    4  O   UNL     1      24.625  48.945  49.657  1.00  0.00    -0.273 OA
HETATM    5  H   UNL     1      23.505  46.015  50.165  1.00  0.00     0.162 HD
BRANCH   3   6
HETATM    6  C   UNL     1      22.908  47.805  48.387  1.00  0.00     0.141 C 
BRANCH   6   7
HETATM    7  C   UNL     1      21.748  48.760  48.538  1.00  0.00    -0.049 A 
HETATM    8  C   UNL     1      21.850  50.092  48.130  1.00  0.00     0.010 A 
HETATM    9  C   UNL     1      20.748  50.955  48.208  1.00  0.00     0.030 A 
HETATM   10  C   UNL     1      19.505  50.511  48.683  1.00  0.00     0.039 A 
HETATM   11  C   UNL     1      19.415  49.178  49.101  1.00  0.00     0.030 A 
HETATM   12  C   UNL     1      20.517  48.314  49.029  1.00  0.00     0.010 A 
BRANCH  10  13
HETATM   13  N   UNL     1      18.389  51.385  48.715  1.00  0.00    -0.298 N 
HETATM   14  C   UNL     1      17.681  51.901  47.613  1.00  0.00     0.323 C 
HETATM   15  O   UNL     1      17.863  51.747  46.417  1.00  0.00    -0.247 OA
HETATM   16  N   UNL     1      16.654  52.702  48.104  1.00  0.00    -0.341 N 
HETATM   17  C   UNL     1      16.809  52.926  49.509  1.00  0.00     0.144 C 
HETATM   18  H   UNL     1      16.147  53.292  47.459  1.00  0.00     0.164 HD
HETATM   19  C   UNL     1      17.763  51.826  49.946  1.00  0.00     0.153 C 
ENDBRANCH  10  13
ENDBRANCH   6   7
ENDBRANCH   3   6
ENDBRANCH   1   2
BRANCH   1  20
HETATM   20  C   UNL     1      25.874  45.396  51.340  1.00  0.00     0.146 A 
HETATM   21  N   UNL     1      26.447  45.065  52.514  1.00  0.00    -0.219 NA
HETATM   22  C   UNL     1      27.115  43.901  52.576  1.00  0.00     0.118 A 
HETATM   23  C   UNL     1      27.191  43.030  51.475  1.00  0.00     0.035 A 
HETATM   24  C   UNL     1      26.560  43.474  50.305  1.00  0.00     0.072 A 
HETATM   25  C   UNL     1      27.836  41.767  51.484  1.00  0.00     0.041 A 
HETATM   26  N   UNL     1      25.922  44.643  50.228  1.00  0.00    -0.231 NA
HETATM   27  C   UNL     1      26.596  42.663  49.176  1.00  0.00     0.034 A 
HETATM   28  C   UNL     1      27.238  41.421  49.179  1.00  0.00     0.026 A 
HETATM   29  C   UNL     1      27.856  40.975  50.339  1.00  0.00     0.035 A 
HETATM   30 CL   UNL     1      28.642  39.448  50.363  1.00  0.00    -0.084 Cl
BRANCH  22  31
HETATM   31  N   UNL     1      27.753  43.538  53.784  1.00  0.00    -0.272 NA
HETATM   32  H   UNL     1      27.804  42.522  53.809  1.00  0.00     0.129 HD
BRANCH  31  33
HETATM   33  C   UNL     1      29.057  44.149  54.039  1.00  0.00     0.061 C 
HETATM   34  C   UNL     1      29.052  44.937  55.356  1.00  0.00     0.020 C 
HETATM   35  C   UNL     1      30.443  44.726  55.930  1.00  0.00     0.002 C 
HETATM   36  C   UNL     1      30.713  43.264  55.624  1.00  0.00     0.002 C 
HETATM   37  C   UNL     1      30.129  43.057  54.231  1.00  0.00     0.020 C 
ENDBRANCH  31  33
ENDBRANCH  22  31
ENDBRANCH   1  20
TORSDOF 7
ENDMDL
MODEL 5
REMARK VINA RESULT:      -9.1      2.695      4.749
REMARK  7 active torsions:
REMARK  status: ('A' for Active; 'I' for Inactive)
REMARK    1  A    between atoms: C_2  and  C_3 
REMARK    2  A    between atoms: C_3  and  C_4 
REMARK       I    between atoms: C_4  and  N_5 
REMARK    3  A    between atoms: N_5  and  C_6 
REMARK    4  A    between atoms: C_6  and  C_7 
REMARK    5  A    between atoms: C_9  and  N_10 
REMARK    6  A    between atoms: N_10  and  C_11 
REMARK    7  A    between atoms: C_27  and  N_28 
ROOT
HETATM    1  C   UNL     1      23.945  46.936  49.856  1.00  0.00     0.203 C 
ENDROOT
BRANCH   1   2
HETATM    2  N   UNL     1      23.653  48.353  49.995  1.00  0.00    -0.354 N 
HETATM    3  C   UNL     1      23.461  49.150  48.893  1.00  0.00     0.222 C 
HETATM    4  O   UNL     1      23.473  48.705  47.749  1.00  0.00    -0.273 OA
HETATM    5  H   UNL     1      23.841  48.760  50.905  1.00  0.00     0.162 HD
BRANCH   3   6
HETATM    6  C   UNL     1      23.176  50.609  49.214  1.00  0.00     0.141 C 
BRANCH   6   7
HETATM    7  C   UNL     1      21.711  50.975  49.231  1.00  0.00    -0.049 A 
HETATM    8  C   UNL     1      21.035  51.312  48.056  1.00  0.00     0.010 A 
HETATM    9  C   UNL     1      19.660  51.581  48.069  1.00  0.00     0.030 A 
HETATM   10  C   UNL     1      18.913  51.508  49.254  1.00  0.00     0.039 A 
HETATM   11  C   UNL     1      19.600  51.181  50.429  1.00  0.00     0.030 A 
HETATM   12  C   UNL     1      20.977  50.917  50.420  1.00  0.00     0.010 A 
BRANCH  10  13
HETATM   13  N   UNL     1      17.514  51.742  49.243  1.00  0.00    -0.298 N 
HETATM   14  C   UNL     1      16.519  50.916  48.686  1.00  0.00     0.323 C 
HETATM   15  O   UNL     1      16.616  49.860  48.085  1.00  0.00    -0.247 OA
HETATM   16  N   UNL     1      15.287  51.523  48.915  1.00  0.00    -0.341 N 
HETATM   17  C   UNL     1      15.456  52.857  49.402  1.00  0.00     0.144 C 
HETATM   18  H   UNL     1      14.471  51.161  48.438  1.00  0.00     0.164 HD
HETATM   19  C   UNL     1      16.895  52.880  49.893  1.00  0.00     0.153 C 
ENDBRANCH  10  13
ENDBRANCH   6   7
ENDBRANCH   3   6
ENDBRANCH   1   2
BRANCH   1  20
HETATM   20  C   UNL     1      24.824  46.411  50.972  1.00  0.00     0.146 A 
HETATM   21  N   UNL     1      25.000  45.077  51.048  1.00  0.00    -0.219 NA
HETATM   22  C   UNL     1      25.753  44.604  52.055  1.00  0.00     0.118 A 
HETATM   23  C   UNL     1      26.374  45.460  52.983  1.00  0.00     0.035 A 
HETATM   24  C   UNL     1      26.122  46.828  52.810  1.00  0.00     0.072 A 
HETATM   25  C   UNL     1      27.218  45.033  54.040  1.00  0.00     0.041 A 
HETATM   26  N   UNL     1      25.350  47.301  51.830  1.00  0.00    -0.231 NA
HETATM   27  C   UNL     1      26.703  47.731  53.693  1.00  0.00     0.034 A 
HETATM   28  C   UNL     1      27.530  47.314  54.739  1.00  0.00     0.026 A 
HETATM   29  C   UNL     1      27.787  45.961  54.908  1.00  0.00     0.035 A 
HETATM   30 CL   UNL     1      28.808  45.431  56.184  1.00  0.00    -0.084 Cl
BRANCH  22  31
HETATM   31  N   UNL     1      25.933  43.208  52.182  1.00  0.00    -0.272 NA
HETATM   32  H   UNL     1      25.018  42.798  52.356  1.00  0.00     0.129 HD
BRANCH  31  33
HETATM   33  C   UNL     1      26.624  42.539  51.080  1.00  0.00     0.061 C 
HETATM   34  C   UNL     1      27.778  41.670  51.597  1.00  0.00     0.020 C 
HETATM   35  C   UNL     1      27.788  40.464  50.673  1.00  0.00     0.002 C 
HETATM   36  C   UNL     1      26.310  40.176  50.483  1.00  0.00     0.002 C 
HETATM   37  C   UNL     1      25.670  41.556  50.372  1.00  0.00     0.020 C 
ENDBRANCH  31  33
ENDBRANCH  22  31
ENDBRANCH   1  20
TORSDOF 7
ENDMDL
MODEL 6
REMARK VINA RESULT:      -9.0      2.939      6.952
REMARK  7 active torsions:
REMARK  status: ('A' for Active; 'I' for Inactive)
REMARK    1  A    between atoms: C_2  and  C_3 
REMARK    2  A    between atoms: C_3  and  C_4 
REMARK       I    between atoms: C_4  and  N_5 
REMARK    3  A    between atoms: N_5  and  C_6 
REMARK    4  A    between atoms: C_6  and  C_7 
REMARK    5  A    between atoms: C_9  and  N_10 
REMARK    6  A    between atoms: N_10  and  C_11 
REMARK    7  A    between atoms: C_27  and  N_28 
ROOT
HETATM    1  C   UNL     1      21.751  44.507  47.768  1.00  0.00     0.203 C 
ENDROOT
BRANCH   1   2
HETATM    2  N   UNL     1      23.117  44.110  48.066  1.00  0.00    -0.354 N 
HETATM    3  C   UNL     1      23.390  42.925  48.704  1.00  0.00     0.222 C 
HETATM    4  O   UNL     1      22.511  42.122  49.005  1.00  0.00    -0.273 OA
HETATM    5  H   UNL     1      23.817  44.842  48.008  1.00  0.00     0.162 HD
BRANCH   3   6
HETATM    6  C   UNL     1      24.869  42.667  48.950  1.00  0.00     0.141 C 
BRANCH   6   7
HETATM    7  C   UNL     1      25.445  43.399  50.139  1.00  0.00    -0.049 A 
HETATM    8  C   UNL     1      26.688  44.032  50.065  1.00  0.00     0.010 A 
HETATM    9  C   UNL     1      27.185  44.768  51.150  1.00  0.00     0.030 A 
HETATM   10  C   UNL     1      26.451  44.906  52.336  1.00  0.00     0.039 A 
HETATM   11  C   UNL     1      25.212  44.258  52.405  1.00  0.00     0.030 A 
HETATM   12  C   UNL     1      24.714  43.517  51.324  1.00  0.00     0.010 A 
BRANCH  10  13
HETATM   13  N   UNL     1      26.949  45.690  53.408  1.00  0.00    -0.298 N 
HETATM   14  C   UNL     1      26.475  46.944  53.836  1.00  0.00     0.323 C 
HETATM   15  O   UNL     1      25.576  47.641  53.395  1.00  0.00    -0.247 OA
HETATM   16  N   UNL     1      27.245  47.341  54.926  1.00  0.00    -0.341 N 
HETATM   17  C   UNL     1      28.382  46.487  55.086  1.00  0.00     0.144 C 
HETATM   18  H   UNL     1      27.162  48.292  55.260  1.00  0.00     0.164 HD
HETATM   19  C   UNL     1      28.017  45.249  54.283  1.00  0.00     0.153 C 
ENDBRANCH  10  13
ENDBRANCH   6   7
ENDBRANCH   3   6
ENDBRANCH   1   2
BRANCH   1  20
HETATM   20  C   UNL     1      21.492  45.969  48.066  1.00  0.00     0.146 A 
HETATM   21  N   UNL     1      22.485  46.841  47.803  1.00  0.00    -0.219 NA
HETATM   22  C   UNL     1      22.272  48.135  48.095  1.00  0.00     0.118 A 
HETATM   23  C   UNL     1      21.048  48.585  48.621  1.00  0.00     0.035 A 
HETATM   24  C   UNL     1      20.087  47.593  48.856  1.00  0.00     0.072 A 
HETATM   25  C   UNL     1      20.739  49.939  48.908  1.00  0.00     0.041 A 
HETATM   26  N   UNL     1      20.304  46.302  48.596  1.00  0.00    -0.231 NA
HETATM   27  C   UNL     1      18.854  47.967  49.377  1.00  0.00     0.034 A 
HETATM   28  C   UNL     1      18.548  49.299  49.667  1.00  0.00     0.026 A 
HETATM   29  C   UNL     1      19.495  50.284  49.428  1.00  0.00     0.035 A 
HETATM   30 CL   UNL     1      19.133  51.929  49.771  1.00  0.00    -0.084 Cl
BRANCH  22  31
HETATM   31  N   UNL     1      23.305  49.071  47.860  1.00  0.00    -0.272 NA
HETATM   32  H   UNL     1      22.866  49.947  47.585  1.00  0.00     0.129 HD
BRANCH  31  33
HETATM   33  C   UNL     1      24.265  49.266  48.945  1.00  0.00     0.061 C 
HETATM   34  C   UNL     1      24.721  47.923  49.530  1.00  0.00     0.020 C 
HETATM   35  C   UNL     1      26.182  48.140  49.886  1.00  0.00     0.002 C 
HETATM   36  C   UNL     1      26.693  48.961  48.716  1.00  0.00     0.002 C 
HETATM   37  C   UNL     1      25.551  49.924  48.406  1.00  0.00     0.020 C 
ENDBRANCH  31  33
ENDBRANCH  22  31
ENDBRANCH   1  20
TORSDOF 7
ENDMDL
MODEL 7
REMARK VINA RESULT:      -9.0      2.823      4.600
REMARK  7 active torsions:
REMARK  status: ('A' for Active; 'I' for Inactive)
REMARK    1  A    between atoms: C_2  and  C_3 
REMARK    2  A    between atoms: C_3  and  C_4 
REMARK       I    between atoms: C_4  and  N_5 
REMARK    3  A    between atoms: N_5  and  C_6 
REMARK    4  A    between atoms: C_6  and  C_7 
REMARK    5  A    between atoms: C_9  and  N_10 
REMARK    6  A    between atoms: N_10  and  C_11 
REMARK    7  A    between atoms: C_27  and  N_28 
ROOT
HETATM    1  C   UNL     1      28.077  40.676  50.814  1.00  0.00     0.203 C 
ENDROOT
BRANCH   1   2
HETATM    2  N   UNL     1      26.739  40.540  50.263  1.00  0.00    -0.354 N 
HETATM    3  C   UNL     1      26.368  41.209  49.122  1.00  0.00     0.222 C 
HETATM    4  O   UNL     1      27.153  41.905  48.483  1.00  0.00    -0.273 OA
HETATM    5  H   UNL     1      26.040  40.141  50.881  1.00  0.00     0.162 HD
BRANCH   3   6
HETATM    6  C   UNL     1      24.931  40.965  48.687  1.00  0.00     0.141 C 
BRANCH   6   7
HETATM    7  C   UNL     1      24.069  42.204  48.647  1.00  0.00    -0.049 A 
HETATM    8  C   UNL     1      23.841  42.888  47.450  1.00  0.00     0.010 A 
HETATM    9  C   UNL     1      22.983  43.996  47.407  1.00  0.00     0.030 A 
HETATM   10  C   UNL     1      22.314  44.447  48.554  1.00  0.00     0.039 A 
HETATM   11  C   UNL     1      22.557  43.763  49.751  1.00  0.00     0.030 A 
HETATM   12  C   UNL     1      23.419  42.658  49.799  1.00  0.00     0.010 A 
BRANCH  10  13
HETATM   13  N   UNL     1      21.417  45.542  48.485  1.00  0.00    -0.298 N 
HETATM   14  C   UNL     1      20.010  45.489  48.473  1.00  0.00     0.323 C 
HETATM   15  O   UNL     1      19.257  44.530  48.496  1.00  0.00    -0.247 OA
HETATM   16  N   UNL     1      19.536  46.797  48.411  1.00  0.00    -0.341 N 
HETATM   17  C   UNL     1      20.599  47.714  48.137  1.00  0.00     0.144 C 
HETATM   18  H   UNL     1      18.554  46.949  48.222  1.00  0.00     0.164 HD
HETATM   19  C   UNL     1      21.852  46.925  48.484  1.00  0.00     0.153 C 
ENDBRANCH  10  13
ENDBRANCH   6   7
ENDBRANCH   3   6
ENDBRANCH   1   2
BRANCH   1  20
HETATM   20  C   UNL     1      28.176  41.792  51.832  1.00  0.00     0.146 A 
HETATM   21  N   UNL     1      27.209  42.731  51.821  1.00  0.00    -0.219 NA
HETATM   22  C   UNL     1      27.309  43.740  52.701  1.00  0.00     0.118 A 
HETATM   23  C   UNL     1      28.359  43.809  53.634  1.00  0.00     0.035 A 
HETATM   24  C   UNL     1      29.309  42.782  53.556  1.00  0.00     0.072 A 
HETATM   25  C   UNL     1      28.501  44.819  54.621  1.00  0.00     0.041 A 
HETATM   26  N   UNL     1      29.231  41.793  52.663  1.00  0.00    -0.231 NA
HETATM   27  C   UNL     1      30.375  42.789  54.448  1.00  0.00     0.034 A 
HETATM   28  C   UNL     1      30.522  43.785  55.417  1.00  0.00     0.026 A 
HETATM   29  C   UNL     1      29.579  44.799  55.501  1.00  0.00     0.035 A 
HETATM   30 CL   UNL     1      29.739  46.028  56.692  1.00  0.00    -0.084 Cl
BRANCH  22  31
HETATM   31  N   UNL     1      26.328  44.757  52.694  1.00  0.00    -0.272 NA
HETATM   32  H   UNL     1      26.292  45.153  53.631  1.00  0.00     0.129 HD
BRANCH  31  33
HETATM   33  C   UNL     1      26.475  45.796  51.676  1.00  0.00     0.061 C 
HETATM   34  C   UNL     1      26.000  45.299  50.304  1.00  0.00     0.020 C 
HETATM   35  C   UNL     1      25.364  46.519  49.658  1.00  0.00     0.002 C 
HETATM   36  C   UNL     1      24.623  47.162  50.815  1.00  0.00     0.002 C 
HETATM   37  C   UNL     1      25.564  46.996  52.004  1.00  0.00     0.020 C 
ENDBRANCH  31  33
ENDBRANCH  22  31
ENDBRANCH   1  20
TORSDOF 7
ENDMDL
MODEL 8
REMARK VINA RESULT:      -8.9      4.144      9.651
REMARK  7 active torsions:
REMARK  status: ('A' for Active; 'I' for Inactive)
REMARK    1  A    between atoms: C_2  and  C_3 
REMARK    2  A    between atoms: C_3  and  C_4 
REMARK       I    between atoms: C_4  and  N_5 
REMARK    3  A    between atoms: N_5  and  C_6 
REMARK    4  A    between atoms: C_6  and  C_7 
REMARK    5  A    between atoms: C_9  and  N_10 
REMARK    6  A    between atoms: N_10  and  C_11 
REMARK    7  A    between atoms: C_27  and  N_28 
ROOT
HETATM    1  C   UNL     1      24.664  47.668  49.517  1.00  0.00     0.203 C 
ENDROOT
BRANCH   1   2
HETATM    2  N   UNL     1      24.652  47.569  50.967  1.00  0.00    -0.354 N 
HETATM    3  C   UNL     1      25.578  46.806  51.635  1.00  0.00     0.222 C 
HETATM    4  O   UNL     1      26.486  46.217  51.056  1.00  0.00    -0.273 OA
HETATM    5  H   UNL     1      23.802  47.877  51.428  1.00  0.00     0.162 HD
BRANCH   3   6
HETATM    6  C   UNL     1      25.417  46.802  53.147  1.00  0.00     0.141 C 
BRANCH   6   7
HETATM    7  C   UNL     1      26.631  46.322  53.907  1.00  0.00    -0.049 A 
HETATM    8  C   UNL     1      27.586  47.221  54.389  1.00  0.00     0.010 A 
HETATM    9  C   UNL     1      28.673  46.774  55.153  1.00  0.00     0.030 A 
HETATM   10  C   UNL     1      28.833  45.418  55.472  1.00  0.00     0.039 A 
HETATM   11  C   UNL     1      27.879  44.523  54.975  1.00  0.00     0.030 A 
HETATM   12  C   UNL     1      26.793  44.965  54.206  1.00  0.00     0.010 A 
BRANCH  10  13
HETATM   13  N   UNL     1      29.915  44.989  56.282  1.00  0.00    -0.298 N 
HETATM   14  C   UNL     1      30.813  43.938  56.014  1.00  0.00     0.323 C 
HETATM   15  O   UNL     1      30.862  43.163  55.074  1.00  0.00    -0.247 OA
HETATM   16  N   UNL     1      31.721  43.876  57.067  1.00  0.00    -0.341 N 
HETATM   17  C   UNL     1      31.303  44.709  58.153  1.00  0.00     0.144 C 
HETATM   18  H   UNL     1      32.336  43.076  57.133  1.00  0.00     0.164 HD
HETATM   19  C   UNL     1      30.294  45.651  57.515  1.00  0.00     0.153 C 
ENDBRANCH  10  13
ENDBRANCH   6   7
ENDBRANCH   3   6
ENDBRANCH   1   2
BRANCH   1  20
HETATM   20  C   UNL     1      23.276  47.824  48.933  1.00  0.00     0.146 A 
HETATM   21  N   UNL     1      22.914  49.051  48.510  1.00  0.00    -0.219 NA
HETATM   22  C   UNL     1      21.673  49.202  48.020  1.00  0.00     0.118 A 
HETATM   23  C   UNL     1      20.782  48.119  47.911  1.00  0.00     0.035 A 
HETATM   24  C   UNL     1      21.261  46.889  48.382  1.00  0.00     0.072 A 
HETATM   25  C   UNL     1      19.476  48.196  47.361  1.00  0.00     0.041 A 
HETATM   26  N   UNL     1      22.483  46.740  48.897  1.00  0.00    -0.231 NA
HETATM   27  C   UNL     1      20.432  45.776  48.306  1.00  0.00     0.034 A 
HETATM   28  C   UNL     1      19.143  45.849  47.771  1.00  0.00     0.026 A 
HETATM   29  C   UNL     1      18.669  47.064  47.297  1.00  0.00     0.035 A 
HETATM   30 CL   UNL     1      17.089  47.171  46.630  1.00  0.00    -0.084 Cl
BRANCH  22  31
HETATM   31  N   UNL     1      21.252  50.483  47.596  1.00  0.00    -0.272 NA
HETATM   32  H   UNL     1      20.562  50.350  46.860  1.00  0.00     0.129 HD
BRANCH  31  33
HETATM   33  C   UNL     1      20.763  51.385  48.638  1.00  0.00     0.061 C 
HETATM   34  C   UNL     1      19.402  51.984  48.259  1.00  0.00     0.020 C 
HETATM   35  C   UNL     1      18.651  52.086  49.576  1.00  0.00     0.002 C 
HETATM   36  C   UNL     1      19.029  50.794  50.277  1.00  0.00     0.002 C 
HETATM   37  C   UNL     1      20.505  50.602  49.942  1.00  0.00     0.020 C 
ENDBRANCH  31  33
ENDBRANCH  22  31
ENDBRANCH   1  20
TORSDOF 7
ENDMDL
MODEL 9
REMARK VINA RESULT:      -8.8      3.301      5.184
REMARK  7 active torsions:
REMARK  status: ('A' for Active; 'I' for Inactive)
REMARK    1  A    between atoms: C_2  and  C_3 
REMARK    2  A    between atoms: C_3  and  C_4 
REMARK       I    between atoms: C_4  and  N_5 
REMARK    3  A    between atoms: N_5  and  C_6 
REMARK    4  A    between atoms: C_6  and  C_7 
REMARK    5  A    between atoms: C_9  and  N_10 
REMARK    6  A    between atoms: N_10  and  C_11 
REMARK    7  A    between atoms: C_27  and  N_28 
ROOT
HETATM    1  C   UNL     1      24.662  45.041  52.015  1.00  0.00     0.203 C 
ENDROOT
BRANCH   1   2
HETATM    2  N   UNL     1      23.849  45.001  50.811  1.00  0.00    -0.354 N 
HETATM    3  C   UNL     1      24.177  45.748  49.707  1.00  0.00     0.222 C 
HETATM    4  O   UNL     1      25.190  46.440  49.658  1.00  0.00    -0.273 OA
HETATM    5  H   UNL     1      22.921  44.602  50.912  1.00  0.00     0.162 HD
BRANCH   3   6
HETATM    6  C   UNL     1      23.216  45.599  48.537  1.00  0.00     0.141 C 
BRANCH   6   7
HETATM    7  C   UNL     1      22.085  46.600  48.521  1.00  0.00    -0.049 A 
HETATM    8  C   UNL     1      20.753  46.184  48.446  1.00  0.00     0.010 A 
HETATM    9  C   UNL     1      19.706  47.114  48.503  1.00  0.00     0.030 A 
HETATM   10  C   UNL     1      19.955  48.487  48.651  1.00  0.00     0.039 A 
HETATM   11  C   UNL     1      21.292  48.895  48.714  1.00  0.00     0.030 A 
HETATM   12  C   UNL     1      22.342  47.968  48.652  1.00  0.00     0.010 A 
BRANCH  10  13
HETATM   13  N   UNL     1      18.883  49.410  48.750  1.00  0.00    -0.298 N 
HETATM   14  C   UNL     1      18.332  49.950  49.927  1.00  0.00     0.323 C 
HETATM   15  O   UNL     1      18.615  49.746  51.096  1.00  0.00    -0.247 OA
HETATM   16  N   UNL     1      17.311  50.821  49.558  1.00  0.00    -0.341 N 
HETATM   17  C   UNL     1      17.007  50.692  48.166  1.00  0.00     0.144 C 
HETATM   18  H   UNL     1      16.689  51.172  50.274  1.00  0.00     0.164 HD
HETATM   19  C   UNL     1      18.231  49.994  47.595  1.00  0.00     0.153 C 
ENDBRANCH  10  13
ENDBRANCH   6   7
ENDBRANCH   3   6
ENDBRANCH   1   2
BRANCH   1  20
HETATM   20  C   UNL     1      25.683  43.924  52.064  1.00  0.00     0.146 A 
HETATM   21  N   UNL     1      26.477  43.856  53.151  1.00  0.00    -0.219 NA
HETATM   22  C   UNL     1      27.406  42.886  53.186  1.00  0.00     0.118 A 
HETATM   23  C   UNL     1      27.534  41.945  52.149  1.00  0.00     0.035 A 
HETATM   24  C   UNL     1      26.659  42.111  51.067  1.00  0.00     0.072 A 
HETATM   25  C   UNL     1      28.459  40.870  52.141  1.00  0.00     0.041 A 
HETATM   26  N   UNL     1      25.755  43.090  51.013  1.00  0.00    -0.231 NA
HETATM   27  C   UNL     1      26.732  41.216  50.005  1.00  0.00     0.034 A 
HETATM   28  C   UNL     1      27.647  40.159  49.991  1.00  0.00     0.026 A 
HETATM   29  C   UNL     1      28.509  39.988  51.065  1.00  0.00     0.035 A 
HETATM   30 CL   UNL     1      29.634  38.690  51.067  1.00  0.00    -0.084 Cl
BRANCH  22  31
HETATM   31  N   UNL     1      28.274  42.806  54.298  1.00  0.00    -0.272 NA
HETATM   32  H   UNL     1      28.661  41.865  54.316  1.00  0.00     0.129 HD
BRANCH  31  33
HETATM   33  C   UNL     1      29.324  43.822  54.378  1.00  0.00     0.061 C 
HETATM   34  C   UNL     1      28.960  44.916  55.390  1.00  0.00     0.020 C 
HETATM   35  C   UNL     1      30.285  45.300  56.027  1.00  0.00     0.002 C 
HETATM   36  C   UNL     1      30.979  43.960  56.189  1.00  0.00     0.002 C 
HETATM   37  C   UNL     1      30.628  43.198  54.916  1.00  0.00     0.020 C 
ENDBRANCH  31  33
ENDBRANCH  22  31
ENDBRANCH   1  20
TORSDOF 7
ENDMDL
MODEL 10
REMARK VINA RESULT:      -8.6      1.674      2.152
REMARK  7 active torsions:
REMARK  status: ('A' for Active; 'I' for Inactive)
REMARK    1  A    between atoms: C_2  and  C_3 
REMARK    2  A    between atoms: C_3  and  C_4 
REMARK       I    between atoms: C_4  and  N_5 
REMARK    3  A    between atoms: N_5  and  C_6 
REMARK    4  A    between atoms: C_6  and  C_7 
REMARK    5  A    between atoms: C_9  and  N_10 
REMARK    6  A    between atoms: N_10  and  C_11 
REMARK    7  A    between atoms: C_27  and  N_28 
ROOT
HETATM    1  C   UNL     1      23.341  43.978  48.260  1.00  0.00     0.203 C 
ENDROOT
BRANCH   1   2
HETATM    2  N   UNL     1      21.944  44.283  48.002  1.00  0.00    -0.354 N 
HETATM    3  C   UNL     1      21.576  45.106  46.966  1.00  0.00     0.222 C 
HETATM    4  O   UNL     1      22.392  45.580  46.180  1.00  0.00    -0.273 OA
HETATM    5  H   UNL     1      21.295  44.069  48.751  1.00  0.00     0.162 HD
BRANCH   3   6
HETATM    6  C   UNL     1      20.077  45.331  46.842  1.00  0.00     0.141 C 
BRANCH   6   7
HETATM    7  C   UNL     1      19.588  46.639  47.416  1.00  0.00    -0.049 A 
HETATM    8  C   UNL     1      19.332  47.739  46.594  1.00  0.00     0.010 A 
HETATM    9  C   UNL     1      18.811  48.928  47.124  1.00  0.00     0.030 A 
HETATM   10  C   UNL     1      18.516  49.050  48.490  1.00  0.00     0.039 A 
HETATM   11  C   UNL     1      18.787  47.947  49.308  1.00  0.00     0.030 A 
HETATM   12  C   UNL     1      19.313  46.759  48.781  1.00  0.00     0.010 A 
BRANCH  10  13
HETATM   13  N   UNL     1      17.950  50.245  49.003  1.00  0.00    -0.298 N 
HETATM   14  C   UNL     1      16.633  50.707  48.822  1.00  0.00     0.323 C 
HETATM   15  O   UNL     1      15.708  50.226  48.189  1.00  0.00    -0.247 OA
HETATM   16  N   UNL     1      16.506  51.911  49.510  1.00  0.00    -0.341 N 
HETATM   17  C   UNL     1      17.783  52.385  49.949  1.00  0.00     0.144 C 
HETATM   18  H   UNL     1      15.682  52.476  49.354  1.00  0.00     0.164 HD
HETATM   19  C   UNL     1      18.669  51.152  49.876  1.00  0.00     0.153 C 
ENDBRANCH  10  13
ENDBRANCH   6   7
ENDBRANCH   3   6
ENDBRANCH   1   2
BRANCH   1  20
HETATM   20  C   UNL     1      23.931  44.837  49.358  1.00  0.00     0.146 A 
HETATM   21  N   UNL     1      23.925  46.172  49.172  1.00  0.00    -0.219 NA
HETATM   22  C   UNL     1      24.476  46.938  50.129  1.00  0.00     0.118 A 
HETATM   23  C   UNL     1      25.010  46.384  51.306  1.00  0.00     0.035 A 
HETATM   24  C   UNL     1      24.965  44.987  51.394  1.00  0.00     0.072 A 
HETATM   25  C   UNL     1      25.563  47.135  52.376  1.00  0.00     0.041 A 
HETATM   26  N   UNL     1      24.447  44.219  50.434  1.00  0.00    -0.231 NA
HETATM   27  C   UNL     1      25.477  44.372  52.531  1.00  0.00     0.034 A 
HETATM   28  C   UNL     1      26.029  45.107  53.584  1.00  0.00     0.026 A 
HETATM   29  C   UNL     1      26.067  46.492  53.502  1.00  0.00     0.035 A 
HETATM   30 CL   UNL     1      26.735  47.412  54.791  1.00  0.00    -0.084 Cl
BRANCH  22  31
HETATM   31  N   UNL     1      24.513  48.339  49.950  1.00  0.00    -0.272 NA
HETATM   32  H   UNL     1      25.491  48.618  49.922  1.00  0.00     0.129 HD
BRANCH  31  33
HETATM   33  C   UNL     1      23.769  48.870  48.808  1.00  0.00     0.061 C 
HETATM   34  C   UNL     1      22.328  49.224  49.202  1.00  0.00     0.020 C 
HETATM   35  C   UNL     1      22.005  50.463  48.383  1.00  0.00     0.002 C 
HETATM   36  C   UNL     1      23.298  51.255  48.451  1.00  0.00     0.002 C 
HETATM   37  C   UNL     1      24.393  50.199  48.337  1.00  0.00     0.020 C 
ENDBRANCH  31  33
ENDBRANCH  22  31
ENDBRANCH   1  20
TORSDOF 7
ENDMDL
