MODEL 1
REMARK VINA RESULT:      -8.2      0.000      0.000
REMARK  2 active torsions:
REMARK  status: ('A' for Active; 'I' for Inactive)
REMARK    1  A    between atoms: N_4  and  N_5 
REMARK       I    between atoms: N_5  and  C_6 
REMARK    2  A    between atoms: C_6  and  C_7 
ROOT
HETATM    1  C   UNL     1      27.765  45.808  54.425  1.00  0.00     0.158 C 
HETATM    2  N   UNL     1      28.810  44.842  54.752  1.00  0.00    -0.329 N 
HETATM    3  C   UNL     1      29.190  43.775  54.037  1.00  0.00     0.166 A 
HETATM    4  N   UNL     1      28.657  43.400  52.870  1.00  0.00    -0.277 N 
HETATM    5  S   UNL     1      30.481  42.894  54.793  1.00  0.00    -0.050 SA
HETATM    6  C   UNL     1      30.502  43.998  56.113  1.00  0.00     0.035 A 
HETATM    7  C   UNL     1      29.538  44.987  55.931  1.00  0.00     0.053 A 
HETATM    8  C   UNL     1      31.335  43.977  57.244  1.00  0.00     0.021 A 
HETATM    9  C   UNL     1      31.177  44.983  58.201  1.00  0.00     0.002 A 
HETATM   10  C   UNL     1      30.221  45.979  58.036  1.00  0.00     0.002 A 
HETATM   11  C   UNL     1      29.393  45.994  56.906  1.00  0.00     0.031 A 
HETATM   12  H   UNL     1      27.902  43.979  52.505  1.00  0.00     0.189 HD
ENDROOT
BRANCH   4  13
HETATM   13  N   UNL     1      29.019  42.345  52.142  1.00  0.00    -0.263 N 
HETATM   14  C   UNL     1      28.000  41.602  51.567  1.00  0.00     0.286 C 
HETATM   15  O   UNL     1      26.828  41.934  51.742  1.00  0.00    -0.264 OA
HETATM   16  H   UNL     1      30.001  42.109  52.024  1.00  0.00     0.190 HD
BRANCH  14  17
HETATM   17  C   UNL     1      28.401  40.462  50.780  1.00  0.00     0.103 A 
HETATM   18  N   UNL     1      29.115  39.415  51.334  1.00  0.00    -0.360 N 
HETATM   19  H   UNL     1      29.403  39.367  52.305  1.00  0.00     0.165 HD
HETATM   20  C   UNL     1      29.372  38.462  50.385  1.00  0.00     0.112 A 
HETATM   21  C   UNL     1      28.823  38.888  49.202  1.00  0.00     0.051 A 
HETATM   22 CL   UNL     1      28.850  38.089  47.709  1.00  0.00    -0.083 Cl
HETATM   23  C   UNL     1      28.212  40.143  49.442  1.00  0.00     0.060 A 
ENDBRANCH  14  17
ENDBRANCH   4  13
TORSDOF 2
ENDMDL
MODEL 2
REMARK VINA RESULT:      -8.1      4.591      5.953
REMARK  2 active torsions:
REMARK  status: ('A' for Active; 'I' for Inactive)
REMARK    1  A    between atoms: N_4  and  N_5 
REMARK       I    between atoms: N_5  and  C_6 
REMARK    2  A    between atoms: C_6  and  C_7 
ROOT
HETATM    1  C   UNL     1      29.241  42.218  53.008  1.00  0.00     0.158 C 
HETATM    2  N   UNL     1      28.946  43.488  53.665  1.00  0.00    -0.329 N 
HETATM    3  C   UNL     1      28.071  44.425  53.277  1.00  0.00     0.166 A 
HETATM    4  N   UNL     1      27.299  44.355  52.189  1.00  0.00    -0.277 N 
HETATM    5  S   UNL     1      28.032  45.784  54.356  1.00  0.00    -0.050 SA
HETATM    6  C   UNL     1      29.235  45.065  55.354  1.00  0.00     0.035 A 
HETATM    7  C   UNL     1      29.616  43.830  54.837  1.00  0.00     0.053 A 
HETATM    8  C   UNL     1      29.802  45.580  56.533  1.00  0.00     0.021 A 
HETATM    9  C   UNL     1      30.772  44.819  57.188  1.00  0.00     0.002 A 
HETATM   10  C   UNL     1      31.166  43.583  56.686  1.00  0.00     0.002 A 
HETATM   11  C   UNL     1      30.597  43.075  55.511  1.00  0.00     0.031 A 
HETATM   12  H   UNL     1      27.393  43.519  51.614  1.00  0.00     0.189 HD
ENDROOT
BRANCH   4  13
HETATM   13  N   UNL     1      26.422  45.273  51.784  1.00  0.00    -0.263 N 
HETATM   14  C   UNL     1      26.505  45.678  50.462  1.00  0.00     0.286 C 
HETATM   15  O   UNL     1      27.361  45.189  49.725  1.00  0.00    -0.264 OA
HETATM   16  H   UNL     1      25.732  45.649  52.429  1.00  0.00     0.190 HD
BRANCH  14  17
HETATM   17  C   UNL     1      25.552  46.672  50.033  1.00  0.00     0.103 A 
HETATM   18  N   UNL     1      24.196  46.401  49.984  1.00  0.00    -0.360 N 
HETATM   19  H   UNL     1      23.779  45.512  50.239  1.00  0.00     0.165 HD
HETATM   20  C   UNL     1      23.508  47.500  49.546  1.00  0.00     0.112 A 
HETATM   21  C   UNL     1      24.419  48.497  49.305  1.00  0.00     0.051 A 
HETATM   22 CL   UNL     1      24.104  50.066  48.748  1.00  0.00    -0.083 Cl
HETATM   23  C   UNL     1      25.703  47.985  49.608  1.00  0.00     0.060 A 
ENDBRANCH  14  17
ENDBRANCH   4  13
TORSDOF 2
ENDMDL
MODEL 3
REMARK VINA RESULT:      -8.0      1.814      2.231
REMARK  2 active torsions:
REMARK  status: ('A' for Active; 'I' for Inactive)
REMARK    1  A    between atoms: N_4  and  N_5 
REMARK       I    between atoms: N_5  and  C_6 
REMARK    2  A    between atoms: C_6  and  C_7 
ROOT
HETATM    1  C   UNL     1      26.172  44.633  53.594  1.00  0.00     0.158 C 
HETATM    2  N   UNL     1      27.322  43.738  53.682  1.00  0.00    -0.329 N 
HETATM    3  C   UNL     1      27.491  42.561  53.066  1.00  0.00     0.166 A 
HETATM    4  N   UNL     1      26.607  41.987  52.244  1.00  0.00    -0.277 N 
HETATM    5  S   UNL     1      29.017  41.825  53.446  1.00  0.00    -0.050 SA
HETATM    6  C   UNL     1      29.432  43.144  54.470  1.00  0.00     0.035 A 
HETATM    7  C   UNL     1      28.408  44.087  54.482  1.00  0.00     0.053 A 
HETATM    8  C   UNL     1      30.610  43.322  55.216  1.00  0.00     0.021 A 
HETATM    9  C   UNL     1      30.737  44.480  55.986  1.00  0.00     0.002 A 
HETATM   10  C   UNL     1      29.725  45.433  56.011  1.00  0.00     0.002 A 
HETATM   11  C   UNL     1      28.554  45.250  55.264  1.00  0.00     0.031 A 
HETATM   12  H   UNL     1      25.738  42.494  52.082  1.00  0.00     0.189 HD
ENDROOT
BRANCH   4  13
HETATM   13  N   UNL     1      26.754  40.819  51.620  1.00  0.00    -0.263 N 
HETATM   14  C   UNL     1      26.946  40.863  50.249  1.00  0.00     0.286 C 
HETATM   15  O   UNL     1      26.975  41.949  49.669  1.00  0.00    -0.264 OA
HETATM   16  H   UNL     1      26.722  39.946  52.140  1.00  0.00     0.190 HD
BRANCH  14  17
HETATM   17  C   UNL     1      27.104  39.594  49.581  1.00  0.00     0.103 A 
HETATM   18  N   UNL     1      26.492  38.446  50.053  1.00  0.00    -0.360 N 
HETATM   19  H   UNL     1      25.902  38.408  50.877  1.00  0.00     0.165 HD
HETATM   20  C   UNL     1      26.797  37.382  49.249  1.00  0.00     0.112 A 
HETATM   21  C   UNL     1      27.614  37.835  48.244  1.00  0.00     0.051 A 
HETATM   22 CL   UNL     1      28.284  36.931  46.977  1.00  0.00    -0.083 Cl
HETATM   23  C   UNL     1      27.811  39.221  48.446  1.00  0.00     0.060 A 
ENDBRANCH  14  17
ENDBRANCH   4  13
TORSDOF 2
ENDMDL
MODEL 4
REMARK VINA RESULT:      -7.8      4.829      5.838
REMARK  2 active torsions:
REMARK  status: ('A' for Active; 'I' for Inactive)
REMARK    1  A    between atoms: N_4  and  N_5 
REMARK       I    between atoms: N_5  and  C_6 
REMARK    2  A    between atoms: C_6  and  C_7 
ROOT
HETATM    1  C   UNL     1      27.577  47.423  55.375  1.00  0.00     0.158 C 
HETATM    2  N   UNL     1      27.692  46.193  54.598  1.00  0.00    -0.329 N 
HETATM    3  C   UNL     1      26.908  45.785  53.591  1.00  0.00     0.166 A 
HETATM    4  N   UNL     1      25.855  46.455  53.115  1.00  0.00    -0.277 N 
HETATM    5  S   UNL     1      27.406  44.255  52.940  1.00  0.00    -0.050 SA
HETATM    6  C   UNL     1      28.705  44.164  54.064  1.00  0.00     0.035 A 
HETATM    7  C   UNL     1      28.715  45.290  54.883  1.00  0.00     0.053 A 
HETATM    8  C   UNL     1      29.660  43.142  54.201  1.00  0.00     0.021 A 
HETATM    9  C   UNL     1      30.636  43.277  55.192  1.00  0.00     0.002 A 
HETATM   10  C   UNL     1      30.661  44.394  56.019  1.00  0.00     0.002 A 
HETATM   11  C   UNL     1      29.707  45.410  55.877  1.00  0.00     0.031 A 
HETATM   12  H   UNL     1      25.638  47.345  53.563  1.00  0.00     0.189 HD
ENDROOT
BRANCH   4  13
HETATM   13  N   UNL     1      25.063  46.071  52.115  1.00  0.00    -0.263 N 
HETATM   14  C   UNL     1      25.069  46.857  50.974  1.00  0.00     0.286 C 
HETATM   15  O   UNL     1      25.787  47.856  50.924  1.00  0.00    -0.264 OA
HETATM   16  H   UNL     1      24.486  45.238  52.202  1.00  0.00     0.190 HD
BRANCH  14  17
HETATM   17  C   UNL     1      24.209  46.434  49.897  1.00  0.00     0.103 A 
HETATM   18  N   UNL     1      24.186  45.120  49.462  1.00  0.00    -0.360 N 
HETATM   19  H   UNL     1      24.752  44.376  49.855  1.00  0.00     0.165 HD
HETATM   20  C   UNL     1      23.293  44.977  48.434  1.00  0.00     0.112 A 
HETATM   21  C   UNL     1      22.729  46.204  48.194  1.00  0.00     0.051 A 
HETATM   22 CL   UNL     1      21.562  46.588  47.028  1.00  0.00    -0.083 Cl
HETATM   23  C   UNL     1      23.299  47.123  49.107  1.00  0.00     0.060 A 
ENDBRANCH  14  17
ENDBRANCH   4  13
TORSDOF 2
ENDMDL
MODEL 5
REMARK VINA RESULT:      -7.8      3.021      3.368
REMARK  2 active torsions:
REMARK  status: ('A' for Active; 'I' for Inactive)
REMARK    1  A    between atoms: N_4  and  N_5 
REMARK       I    between atoms: N_5  and  C_6 
REMARK    2  A    between atoms: C_6  and  C_7 
ROOT
HETATM    1  C   UNL     1      27.937  46.901  55.898  1.00  0.00     0.158 C 
HETATM    2  N   UNL     1      28.547  45.662  55.425  1.00  0.00    -0.329 N 
HETATM    3  C   UNL     1      28.217  44.951  54.338  1.00  0.00     0.166 A 
HETATM    4  N   UNL     1      27.241  45.263  53.481  1.00  0.00    -0.277 N 
HETATM    5  S   UNL     1      29.208  43.539  54.143  1.00  0.00    -0.050 SA
HETATM    6  C   UNL     1      30.087  43.921  55.572  1.00  0.00     0.035 A 
HETATM    7  C   UNL     1      29.602  45.097  56.137  1.00  0.00     0.053 A 
HETATM    8  C   UNL     1      31.151  43.207  56.149  1.00  0.00     0.021 A 
HETATM    9  C   UNL     1      31.723  43.705  57.322  1.00  0.00     0.002 A 
HETATM   10  C   UNL     1      31.252  44.878  57.902  1.00  0.00     0.002 A 
HETATM   11  C   UNL     1      30.191  45.585  57.321  1.00  0.00     0.031 A 
HETATM   12  H   UNL     1      26.712  46.110  53.679  1.00  0.00     0.189 HD
ENDROOT
BRANCH   4  13
HETATM   13  N   UNL     1      26.896  44.572  52.395  1.00  0.00    -0.263 N 
HETATM   14  C   UNL     1      25.633  44.001  52.391  1.00  0.00     0.286 C 
HETATM   15  O   UNL     1      24.893  44.149  53.364  1.00  0.00    -0.264 OA
HETATM   16  H   UNL     1      27.541  44.476  51.615  1.00  0.00     0.190 HD
BRANCH  14  17
HETATM   17  C   UNL     1      25.268  43.256  51.212  1.00  0.00     0.103 A 
HETATM   18  N   UNL     1      26.225  42.702  50.380  1.00  0.00    -0.360 N 
HETATM   19  H   UNL     1      27.226  42.774  50.529  1.00  0.00     0.165 HD
HETATM   20  C   UNL     1      25.625  42.050  49.336  1.00  0.00     0.112 A 
HETATM   21  C   UNL     1      24.268  42.178  49.486  1.00  0.00     0.051 A 
HETATM   22 CL   UNL     1      23.059  41.559  48.472  1.00  0.00    -0.083 Cl
HETATM   23  C   UNL     1      24.036  42.933  50.660  1.00  0.00     0.060 A 
ENDBRANCH  14  17
ENDBRANCH   4  13
TORSDOF 2
ENDMDL
MODEL 6
REMARK VINA RESULT:      -7.5      4.403      5.298
REMARK  2 active torsions:
REMARK  status: ('A' for Active; 'I' for Inactive)
REMARK    1  A    between atoms: N_4  and  N_5 
REMARK       I    between atoms: N_5  and  C_6 
REMARK    2  A    between atoms: C_6  and  C_7 
ROOT
HETATM    1  C   UNL     1      28.861  41.070  53.105  1.00  0.00     0.158 C 
HETATM    2  N   UNL     1      28.316  42.409  53.314  1.00  0.00    -0.329 N 
HETATM    3  C   UNL     1      27.226  42.944  52.749  1.00  0.00     0.166 A 
HETATM    4  N   UNL     1      26.431  42.327  51.870  1.00  0.00    -0.277 N 
HETATM    5  S   UNL     1      26.932  44.570  53.284  1.00  0.00    -0.050 SA
HETATM    6  C   UNL     1      28.325  44.522  54.293  1.00  0.00     0.035 A 
HETATM    7  C   UNL     1      28.953  43.284  54.190  1.00  0.00     0.053 A 
HETATM    8  C   UNL     1      28.822  45.536  55.129  1.00  0.00     0.021 A 
HETATM    9  C   UNL     1      29.978  45.278  55.867  1.00  0.00     0.002 A 
HETATM   10  C   UNL     1      30.621  44.047  55.777  1.00  0.00     0.002 A 
HETATM   11  C   UNL     1      30.120  43.040  54.942  1.00  0.00     0.031 A 
HETATM   12  H   UNL     1      26.685  41.374  51.615  1.00  0.00     0.189 HD
ENDROOT
BRANCH   4  13
HETATM   13  N   UNL     1      25.342  42.839  51.297  1.00  0.00    -0.263 N 
HETATM   14  C   UNL     1      25.428  43.140  49.947  1.00  0.00     0.286 C 
HETATM   15  O   UNL     1      26.478  42.928  49.339  1.00  0.00    -0.264 OA
HETATM   16  H   UNL     1      24.497  42.997  51.839  1.00  0.00     0.190 HD
BRANCH  14  17
HETATM   17  C   UNL     1      24.245  43.693  49.335  1.00  0.00     0.103 A 
HETATM   18  N   UNL     1      24.226  44.064  48.003  1.00  0.00    -0.360 N 
HETATM   19  H   UNL     1      25.015  43.978  47.371  1.00  0.00     0.165 HD
HETATM   20  C   UNL     1      22.995  44.559  47.667  1.00  0.00     0.112 A 
HETATM   21  C   UNL     1      22.203  44.512  48.786  1.00  0.00     0.051 A 
HETATM   22 CL   UNL     1      20.587  45.002  48.924  1.00  0.00    -0.083 Cl
HETATM   23  C   UNL     1      22.981  43.970  49.837  1.00  0.00     0.060 A 
ENDBRANCH  14  17
ENDBRANCH   4  13
TORSDOF 2
ENDMDL
MODEL 7
REMARK VINA RESULT:      -7.5      6.937      8.708
REMARK  2 active torsions:
REMARK  status: ('A' for Active; 'I' for Inactive)
REMARK    1  A    between atoms: N_4  and  N_5 
REMARK       I    between atoms: N_5  and  C_6 
REMARK    2  A    between atoms: C_6  and  C_7 
ROOT
HETATM    1  C   UNL     1      25.229  43.314  50.962  1.00  0.00     0.158 C 
HETATM    2  N   UNL     1      25.612  44.511  51.706  1.00  0.00    -0.329 N 
HETATM    3  C   UNL     1      25.180  45.765  51.516  1.00  0.00     0.166 A 
HETATM    4  N   UNL     1      24.302  46.144  50.583  1.00  0.00    -0.277 N 
HETATM    5  S   UNL     1      25.891  46.888  52.633  1.00  0.00    -0.050 SA
HETATM    6  C   UNL     1      26.799  45.626  53.371  1.00  0.00     0.035 A 
HETATM    7  C   UNL     1      26.529  44.410  52.749  1.00  0.00     0.053 A 
HETATM    8  C   UNL     1      27.700  45.724  54.445  1.00  0.00     0.021 A 
HETATM    9  C   UNL     1      28.332  44.560  54.886  1.00  0.00     0.002 A 
HETATM   10  C   UNL     1      28.075  43.336  54.278  1.00  0.00     0.002 A 
HETATM   11  C   UNL     1      27.176  43.245  53.208  1.00  0.00     0.031 A 
HETATM   12  H   UNL     1      23.940  45.413  49.972  1.00  0.00     0.189 HD
ENDROOT
BRANCH   4  13
HETATM   13  N   UNL     1      23.857  47.383  50.377  1.00  0.00    -0.263 N 
HETATM   14  C   UNL     1      23.118  47.599  49.225  1.00  0.00     0.286 C 
HETATM   15  O   UNL     1      22.901  46.664  48.453  1.00  0.00    -0.264 OA
HETATM   16  H   UNL     1      24.061  48.124  51.042  1.00  0.00     0.190 HD
BRANCH  14  17
HETATM   17  C   UNL     1      22.640  48.943  49.010  1.00  0.00     0.103 A 
HETATM   18  N   UNL     1      23.513  50.004  48.847  1.00  0.00    -0.360 N 
HETATM   19  H   UNL     1      24.524  49.923  48.865  1.00  0.00     0.165 HD
HETATM   20  C   UNL     1      22.815  51.167  48.661  1.00  0.00     0.112 A 
HETATM   21  C   UNL     1      21.478  50.865  48.702  1.00  0.00     0.051 A 
HETATM   22 CL   UNL     1      20.176  51.936  48.527  1.00  0.00    -0.083 Cl
HETATM   23  C   UNL     1      21.360  49.472  48.921  1.00  0.00     0.060 A 
ENDBRANCH  14  17
ENDBRANCH   4  13
TORSDOF 2
ENDMDL
MODEL 8
REMARK VINA RESULT:      -7.2      5.725      6.948
REMARK  2 active torsions:
REMARK  status: ('A' for Active; 'I' for Inactive)
REMARK    1  A    between atoms: N_4  and  N_5 
REMARK       I    between atoms: N_5  and  C_6 
REMARK    2  A    between atoms: C_6  and  C_7 
ROOT
HETATM    1  C   UNL     1      27.249  42.726  52.466  1.00  0.00     0.158 C 
HETATM    2  N   UNL     1      27.001  44.102  52.884  1.00  0.00    -0.329 N 
HETATM    3  C   UNL     1      26.064  44.941  52.422  1.00  0.00     0.166 A 
HETATM    4  N   UNL     1      25.173  44.652  51.469  1.00  0.00    -0.277 N 
HETATM    5  S   UNL     1      26.116  46.490  53.204  1.00  0.00    -0.050 SA
HETATM    6  C   UNL     1      27.445  45.989  54.176  1.00  0.00     0.035 A 
HETATM    7  C   UNL     1      27.794  44.675  53.876  1.00  0.00     0.053 A 
HETATM    8  C   UNL     1      28.131  46.732  55.151  1.00  0.00     0.021 A 
HETATM    9  C   UNL     1      29.190  46.120  55.826  1.00  0.00     0.002 A 
HETATM   10  C   UNL     1      29.553  44.808  55.540  1.00  0.00     0.002 A 
HETATM   11  C   UNL     1      28.865  44.073  54.567  1.00  0.00     0.031 A 
HETATM   12  H   UNL     1      25.221  43.716  51.068  1.00  0.00     0.189 HD
ENDROOT
BRANCH   4  13
HETATM   13  N   UNL     1      24.233  45.468  50.996  1.00  0.00    -0.263 N 
HETATM   14  C   UNL     1      24.263  45.736  49.637  1.00  0.00     0.286 C 
HETATM   15  O   UNL     1      25.133  45.224  48.932  1.00  0.00    -0.264 OA
HETATM   16  H   UNL     1      23.534  45.868  51.616  1.00  0.00     0.190 HD
BRANCH  14  17
HETATM   17  C   UNL     1      23.241  46.620  49.133  1.00  0.00     0.103 A 
HETATM   18  N   UNL     1      23.053  47.885  49.662  1.00  0.00    -0.360 N 
HETATM   19  H   UNL     1      23.601  48.277  50.419  1.00  0.00     0.165 HD
HETATM   20  C   UNL     1      22.027  48.520  49.016  1.00  0.00     0.112 A 
HETATM   21  C   UNL     1      21.541  47.667  48.058  1.00  0.00     0.051 A 
HETATM   22 CL   UNL     1      20.270  47.954  46.975  1.00  0.00    -0.083 Cl
HETATM   23  C   UNL     1      22.297  46.473  48.126  1.00  0.00     0.060 A 
ENDBRANCH  14  17
ENDBRANCH   4  13
TORSDOF 2
ENDMDL
MODEL 9
REMARK VINA RESULT:      -7.2      3.195      7.881
REMARK  2 active torsions:
REMARK  status: ('A' for Active; 'I' for Inactive)
REMARK    1  A    between atoms: N_4  and  N_5 
REMARK       I    between atoms: N_5  and  C_6 
REMARK    2  A    between atoms: C_6  and  C_7 
ROOT
HETATM    1  C   UNL     1      25.252  41.188  50.245  1.00  0.00     0.158 C 
HETATM    2  N   UNL     1      26.594  40.692  50.534  1.00  0.00    -0.329 N 
HETATM    3  C   UNL     1      27.388  41.029  51.560  1.00  0.00     0.166 A 
HETATM    4  N   UNL     1      27.076  41.906  52.518  1.00  0.00    -0.277 N 
HETATM    5  S   UNL     1      28.908  40.192  51.527  1.00  0.00    -0.050 SA
HETATM    6  C   UNL     1      28.458  39.369  50.084  1.00  0.00     0.035 A 
HETATM    7  C   UNL     1      27.180  39.755  49.687  1.00  0.00     0.053 A 
HETATM    8  C   UNL     1      29.208  38.432  49.354  1.00  0.00     0.021 A 
HETATM    9  C   UNL     1      28.641  37.884  48.201  1.00  0.00     0.002 A 
HETATM   10  C   UNL     1      27.366  38.257  47.788  1.00  0.00     0.002 A 
HETATM   11  C   UNL     1      26.624  39.192  48.521  1.00  0.00     0.031 A 
HETATM   12  H   UNL     1      26.161  42.349  52.453  1.00  0.00     0.189 HD
ENDROOT
BRANCH   4  13
HETATM   13  N   UNL     1      27.848  42.256  53.547  1.00  0.00    -0.263 N 
HETATM   14  C   UNL     1      28.561  43.438  53.422  1.00  0.00     0.286 C 
HETATM   15  O   UNL     1      28.459  44.107  52.393  1.00  0.00    -0.264 OA
HETATM   16  H   UNL     1      27.900  41.672  54.377  1.00  0.00     0.190 HD
BRANCH  14  17
HETATM   17  C   UNL     1      29.392  43.809  54.540  1.00  0.00     0.103 A 
HETATM   18  N   UNL     1      29.232  45.018  55.192  1.00  0.00    -0.360 N 
HETATM   19  H   UNL     1      28.538  45.716  54.944  1.00  0.00     0.165 HD
HETATM   20  C   UNL     1      30.138  45.131  56.211  1.00  0.00     0.112 A 
HETATM   21  C   UNL     1      30.898  43.989  56.226  1.00  0.00     0.051 A 
HETATM   22 CL   UNL     1      32.163  43.610  57.287  1.00  0.00    -0.083 Cl
HETATM   23  C   UNL     1      30.436  43.155  55.181  1.00  0.00     0.060 A 
ENDBRANCH  14  17
ENDBRANCH   4  13
TORSDOF 2
ENDMDL
MODEL 10
REMARK VINA RESULT:      -6.9     10.058     12.027
REMARK  2 active torsions:
REMARK  status: ('A' for Active; 'I' for Inactive)
REMARK    1  A    between atoms: N_4  and  N_5 
REMARK       I    between atoms: N_5  and  C_6 
REMARK    2  A    between atoms: C_6  and  C_7 
ROOT
HETATM    1  C   UNL     1      19.800  51.258  49.356  1.00  0.00     0.158 C 
HETATM    2  N   UNL     1      19.397  49.885  49.064  1.00  0.00    -0.329 N 
HETATM    3  C   UNL     1      20.159  48.784  49.101  1.00  0.00     0.166 A 
HETATM    4  N   UNL     1      21.457  48.755  49.415  1.00  0.00    -0.277 N 
HETATM    5  S   UNL     1      19.272  47.349  48.687  1.00  0.00    -0.050 SA
HETATM    6  C   UNL     1      17.835  48.267  48.455  1.00  0.00     0.035 A 
HETATM    7  C   UNL     1      18.079  49.616  48.701  1.00  0.00     0.053 A 
HETATM    8  C   UNL     1      16.565  47.803  48.076  1.00  0.00     0.021 A 
HETATM    9  C   UNL     1      15.532  48.733  47.946  1.00  0.00     0.002 A 
HETATM   10  C   UNL     1      15.756  50.084  48.187  1.00  0.00     0.002 A 
HETATM   11  C   UNL     1      17.025  50.541  48.565  1.00  0.00     0.031 A 
HETATM   12  H   UNL     1      21.892  49.648  49.642  1.00  0.00     0.189 HD
ENDROOT
BRANCH   4  13
HETATM   13  N   UNL     1      22.233  47.673  49.459  1.00  0.00    -0.263 N 
HETATM   14  C   UNL     1      23.594  47.886  49.608  1.00  0.00     0.286 C 
HETATM   15  O   UNL     1      24.028  49.035  49.694  1.00  0.00    -0.264 OA
HETATM   16  H   UNL     1      21.830  46.743  49.383  1.00  0.00     0.190 HD
BRANCH  14  17
HETATM   17  C   UNL     1      24.428  46.709  49.655  1.00  0.00     0.103 A 
HETATM   18  N   UNL     1      24.014  45.507  49.109  1.00  0.00    -0.360 N 
HETATM   19  H   UNL     1      23.122  45.363  48.647  1.00  0.00     0.165 HD
HETATM   20  C   UNL     1      24.978  44.551  49.283  1.00  0.00     0.112 A 
HETATM   21  C   UNL     1      26.029  45.131  49.947  1.00  0.00     0.051 A 
HETATM   22 CL   UNL     1      27.482  44.394  50.415  1.00  0.00    -0.083 Cl
HETATM   23  C   UNL     1      25.691  46.484  50.184  1.00  0.00     0.060 A 
ENDBRANCH  14  17
ENDBRANCH   4  13
TORSDOF 2
ENDMDL
