MODEL 1
REMARK VINA RESULT:     -10.3      0.000      0.000
REMARK  7 active torsions:
REMARK  status: ('A' for Active; 'I' for Inactive)
REMARK    1  A    between atoms: C_2  and  C_3 
REMARK    2  A    between atoms: N_10  and  C_11 
REMARK    3  A    between atoms: C_11  and  C_12 
REMARK       I    between atoms: C_12  and  N_13 
REMARK    4  A    between atoms: N_13  and  C_14 
REMARK    5  A    between atoms: C_17  and  C_18 
REMARK       I    between atoms: C_18  and  N_19 
REMARK    6  A    between atoms: N_19  and  C_20 
REMARK    7  A    between atoms: C_21  and  O_22 
ROOT
HETATM    1  C   UNL     1      24.562  48.066  49.512  1.00  0.00     0.240 C 
HETATM    2  N   UNL     1      24.254  46.954  50.269  1.00  0.00    -0.326 N 
HETATM    3  O   UNL     1      25.632  48.677  49.540  1.00  0.00    -0.271 OA
HETATM    4  H   UNL     1      23.324  46.570  50.161  1.00  0.00     0.169 HD
ENDROOT
BRANCH   2   5
HETATM    5  C   UNL     1      25.117  46.278  51.166  1.00  0.00     0.034 A 
HETATM    6  C   UNL     1      25.695  45.031  50.906  1.00  0.00     0.030 A 
HETATM    7  C   UNL     1      26.507  44.393  51.855  1.00  0.00     0.019 A 
HETATM    8  C   UNL     1      26.761  45.003  53.085  1.00  0.00     0.032 A 
HETATM    9  C   UNL     1      26.194  46.257  53.351  1.00  0.00     0.019 A 
HETATM   10  C   UNL     1      25.387  46.891  52.395  1.00  0.00     0.030 A 
BRANCH   8  11
HETATM   11  C   UNL     1      27.543  44.319  54.157  1.00  0.00     0.256 C 
HETATM   12  N   UNL     1      28.669  44.990  54.595  1.00  0.00    -0.321 N 
HETATM   13  H   UNL     1      28.796  45.958  54.325  1.00  0.00     0.169 HD
HETATM   14  O   UNL     1      27.127  43.243  54.575  1.00  0.00    -0.267 OA
BRANCH  12  15
HETATM   15  C   UNL     1      29.678  44.510  55.465  1.00  0.00     0.068 A 
HETATM   16  C   UNL     1      29.937  45.260  56.634  1.00  0.00     0.095 A 
HETATM   17  C   UNL     1      30.947  44.853  57.511  1.00  0.00     0.039 A 
HETATM   18  C   UNL     1      31.698  43.708  57.234  1.00  0.00     0.003 A 
HETATM   19  C   UNL     1      31.443  42.969  56.083  1.00  0.00     0.002 A 
HETATM   20  C   UNL     1      30.438  43.368  55.201  1.00  0.00     0.032 A 
BRANCH  16  21
HETATM   21  O   UNL     1      29.148  46.376  56.813  1.00  0.00    -0.354 OA
HETATM   22  C   UNL     1      28.346  46.409  57.988  1.00  0.00     0.210 C 
ENDBRANCH  16  21
ENDBRANCH  12  15
ENDBRANCH   8  11
ENDBRANCH   2   5
BRANCH   1  23
HETATM   23  C   UNL     1      23.448  48.612  48.620  1.00  0.00     0.240 C 
BRANCH  23  24
HETATM   24  N   UNL     1      22.228  49.105  49.223  1.00  0.00    -0.259 N 
HETATM   25  C   UNL     1      22.079  50.362  49.717  1.00  0.00     0.326 C 
HETATM   26  N   UNL     1      20.739  50.591  49.931  1.00  0.00    -0.324 N 
HETATM   27  O   UNL     1      22.957  51.179  49.930  1.00  0.00    -0.247 OA
HETATM   28  C   UNL     1      19.911  49.592  49.277  1.00  0.00     0.116 C 
HETATM   29  H   UNL     1      20.433  51.532  50.149  1.00  0.00     0.165 HD
HETATM   30  C   UNL     1      19.452  50.113  47.903  1.00  0.00     0.041 C 
HETATM   31  C   UNL     1      21.001  48.517  49.055  1.00  0.00     0.256 C 
HETATM   32  C   UNL     1      18.747  49.155  50.162  1.00  0.00     0.041 C 
HETATM   33  C   UNL     1      18.479  49.159  47.211  1.00  0.00     0.007 C 
HETATM   34  C   UNL     1      17.265  48.807  48.082  1.00  0.00    -0.015 C 
HETATM   35  C   UNL     1      17.733  48.261  49.443  1.00  0.00     0.007 C 
HETATM   36  O   UNL     1      20.810  47.375  48.661  1.00  0.00    -0.270 OA
BRANCH  34  37
HETATM   37  C   UNL     1      16.306  50.011  48.190  1.00  0.00     0.000 C 
HETATM   38  C   UNL     1      15.858  50.548  46.838  1.00  0.00     0.005 C 
ENDBRANCH  34  37
ENDBRANCH  23  24
ENDBRANCH   1  23
TORSDOF 7
ENDMDL
MODEL 2
REMARK VINA RESULT:     -10.2      2.216      3.150
REMARK  7 active torsions:
REMARK  status: ('A' for Active; 'I' for Inactive)
REMARK    1  A    between atoms: C_2  and  C_3 
REMARK    2  A    between atoms: N_10  and  C_11 
REMARK    3  A    between atoms: C_11  and  C_12 
REMARK       I    between atoms: C_12  and  N_13 
REMARK    4  A    between atoms: N_13  and  C_14 
REMARK    5  A    between atoms: C_17  and  C_18 
REMARK       I    between atoms: C_18  and  N_19 
REMARK    6  A    between atoms: N_19  and  C_20 
REMARK    7  A    between atoms: C_21  and  O_22 
ROOT
HETATM    1  C   UNL     1      22.284  44.503  48.896  1.00  0.00     0.240 C 
HETATM    2  N   UNL     1      23.618  44.844  48.990  1.00  0.00    -0.326 N 
HETATM    3  O   UNL     1      21.633  43.917  49.762  1.00  0.00    -0.271 OA
HETATM    4  H   UNL     1      24.031  45.302  48.187  1.00  0.00     0.169 HD
ENDROOT
BRANCH   2   5
HETATM    5  C   UNL     1      24.465  44.639  50.106  1.00  0.00     0.034 A 
HETATM    6  C   UNL     1      25.089  43.422  50.403  1.00  0.00     0.030 A 
HETATM    7  C   UNL     1      25.882  43.271  51.549  1.00  0.00     0.019 A 
HETATM    8  C   UNL     1      26.070  44.347  52.419  1.00  0.00     0.032 A 
HETATM    9  C   UNL     1      25.456  45.572  52.126  1.00  0.00     0.019 A 
HETATM   10  C   UNL     1      24.668  45.717  50.975  1.00  0.00     0.030 A 
BRANCH   8  11
HETATM   11  C   UNL     1      26.829  44.204  53.697  1.00  0.00     0.256 C 
HETATM   12  N   UNL     1      28.158  44.579  53.647  1.00  0.00    -0.321 N 
HETATM   13  H   UNL     1      28.488  45.098  52.841  1.00  0.00     0.169 HD
HETATM   14  O   UNL     1      26.226  43.788  54.681  1.00  0.00    -0.267 OA
BRANCH  12  15
HETATM   15  C   UNL     1      29.148  44.394  54.642  1.00  0.00     0.068 A 
HETATM   16  C   UNL     1      29.461  45.503  55.460  1.00  0.00     0.095 A 
HETATM   17  C   UNL     1      30.457  45.387  56.435  1.00  0.00     0.039 A 
HETATM   18  C   UNL     1      31.138  44.180  56.604  1.00  0.00     0.003 A 
HETATM   19  C   UNL     1      30.829  43.087  55.799  1.00  0.00     0.002 A 
HETATM   20  C   UNL     1      29.838  43.193  54.822  1.00  0.00     0.032 A 
BRANCH  16  21
HETATM   21  O   UNL     1      28.739  46.650  55.210  1.00  0.00    -0.354 OA
HETATM   22  C   UNL     1      27.735  46.991  56.160  1.00  0.00     0.210 C 
ENDBRANCH  16  21
ENDBRANCH  12  15
ENDBRANCH   8  11
ENDBRANCH   2   5
BRANCH   1  23
HETATM   23  C   UNL     1      21.590  44.828  47.574  1.00  0.00     0.240 C 
BRANCH  23  24
HETATM   24  N   UNL     1      20.618  45.899  47.521  1.00  0.00    -0.259 N 
HETATM   25  C   UNL     1      19.333  45.778  47.945  1.00  0.00     0.326 C 
HETATM   26  N   UNL     1      18.783  47.037  48.035  1.00  0.00    -0.324 N 
HETATM   27  O   UNL     1      18.741  44.751  48.223  1.00  0.00    -0.247 OA
HETATM   28  C   UNL     1      19.800  48.073  47.979  1.00  0.00     0.116 C 
HETATM   29  H   UNL     1      17.882  47.145  48.486  1.00  0.00     0.165 HD
HETATM   30  C   UNL     1      20.196  48.494  49.405  1.00  0.00     0.041 C 
HETATM   31  C   UNL     1      20.946  47.222  47.382  1.00  0.00     0.256 C 
HETATM   32  C   UNL     1      19.358  49.253  47.117  1.00  0.00     0.041 C 
HETATM   33  C   UNL     1      21.178  49.665  49.418  1.00  0.00     0.007 C 
HETATM   34  C   UNL     1      20.671  50.878  48.625  1.00  0.00    -0.015 C 
HETATM   35  C   UNL     1      20.304  50.455  47.192  1.00  0.00     0.007 C 
HETATM   36  O   UNL     1      22.020  47.648  46.982  1.00  0.00    -0.270 OA
BRANCH  34  37
HETATM   37  C   UNL     1      19.525  51.582  49.381  1.00  0.00     0.000 C 
HETATM   38  C   UNL     1      18.718  52.530  48.506  1.00  0.00     0.005 C 
ENDBRANCH  34  37
ENDBRANCH  23  24
ENDBRANCH   1  23
TORSDOF 7
ENDMDL
MODEL 3
REMARK VINA RESULT:     -10.1      1.674      2.804
REMARK  7 active torsions:
REMARK  status: ('A' for Active; 'I' for Inactive)
REMARK    1  A    between atoms: C_2  and  C_3 
REMARK    2  A    between atoms: N_10  and  C_11 
REMARK    3  A    between atoms: C_11  and  C_12 
REMARK       I    between atoms: C_12  and  N_13 
REMARK    4  A    between atoms: N_13  and  C_14 
REMARK    5  A    between atoms: C_17  and  C_18 
REMARK       I    between atoms: C_18  and  N_19 
REMARK    6  A    between atoms: N_19  and  C_20 
REMARK    7  A    between atoms: C_21  and  O_22 
ROOT
HETATM    1  C   UNL     1      23.535  47.342  49.330  1.00  0.00     0.240 C 
HETATM    2  N   UNL     1      23.882  46.095  49.811  1.00  0.00    -0.326 N 
HETATM    3  O   UNL     1      23.766  48.414  49.891  1.00  0.00    -0.271 OA
HETATM    4  H   UNL     1      23.604  45.297  49.254  1.00  0.00     0.169 HD
ENDROOT
BRANCH   2   5
HETATM    5  C   UNL     1      24.611  45.819  50.994  1.00  0.00     0.034 A 
HETATM    6  C   UNL     1      25.377  46.768  51.680  1.00  0.00     0.030 A 
HETATM    7  C   UNL     1      26.112  46.420  52.822  1.00  0.00     0.019 A 
HETATM    8  C   UNL     1      26.085  45.110  53.303  1.00  0.00     0.032 A 
HETATM    9  C   UNL     1      25.312  44.155  52.628  1.00  0.00     0.019 A 
HETATM   10  C   UNL     1      24.576  44.510  51.488  1.00  0.00     0.030 A 
BRANCH   8  11
HETATM   11  C   UNL     1      26.923  44.677  54.460  1.00  0.00     0.256 C 
HETATM   12  N   UNL     1      28.196  45.214  54.509  1.00  0.00    -0.321 N 
HETATM   13  H   UNL     1      28.420  45.992  53.900  1.00  0.00     0.169 HD
HETATM   14  O   UNL     1      26.426  43.906  55.275  1.00  0.00    -0.267 OA
BRANCH  12  15
HETATM   15  C   UNL     1      29.253  44.857  55.381  1.00  0.00     0.068 A 
HETATM   16  C   UNL     1      29.876  43.607  55.167  1.00  0.00     0.095 A 
HETATM   17  C   UNL     1      30.902  43.188  56.021  1.00  0.00     0.039 A 
HETATM   18  C   UNL     1      31.311  44.001  57.079  1.00  0.00     0.003 A 
HETATM   19  C   UNL     1      30.698  45.232  57.290  1.00  0.00     0.002 A 
HETATM   20  C   UNL     1      29.672  45.659  56.445  1.00  0.00     0.032 A 
BRANCH  16  21
HETATM   21  O   UNL     1      29.396  42.876  54.102  1.00  0.00    -0.354 OA
HETATM   22  C   UNL     1      30.199  42.857  52.927  1.00  0.00     0.210 C 
ENDBRANCH  16  21
ENDBRANCH  12  15
ENDBRANCH   8  11
ENDBRANCH   2   5
BRANCH   1  23
HETATM   23  C   UNL     1      22.738  47.371  48.027  1.00  0.00     0.240 C 
BRANCH  23  24
HETATM   24  N   UNL     1      21.358  47.806  48.043  1.00  0.00    -0.259 N 
HETATM   25  C   UNL     1      20.335  47.067  48.546  1.00  0.00     0.326 C 
HETATM   26  N   UNL     1      19.233  47.881  48.680  1.00  0.00    -0.324 N 
HETATM   27  O   UNL     1      20.358  45.889  48.854  1.00  0.00    -0.247 OA
HETATM   28  C   UNL     1      19.585  49.286  48.565  1.00  0.00     0.116 C 
HETATM   29  H   UNL     1      18.428  47.533  49.187  1.00  0.00     0.165 HD
HETATM   30  C   UNL     1      19.798  49.886  49.967  1.00  0.00     0.041 C 
HETATM   31  C   UNL     1      20.967  49.110  47.891  1.00  0.00     0.256 C 
HETATM   32  C   UNL     1      18.560  50.060  47.741  1.00  0.00     0.041 C 
HETATM   33  C   UNL     1      20.055  51.392  49.925  1.00  0.00     0.007 C 
HETATM   34  C   UNL     1      18.961  52.164  49.174  1.00  0.00    -0.015 C 
HETATM   35  C   UNL     1      18.775  51.576  47.764  1.00  0.00     0.007 C 
HETATM   36  O   UNL     1      21.655  50.008  47.427  1.00  0.00    -0.270 OA
BRANCH  34  37
HETATM   37  C   UNL     1      17.663  52.216  50.005  1.00  0.00     0.000 C 
HETATM   38  C   UNL     1      16.472  52.763  49.231  1.00  0.00     0.005 C 
ENDBRANCH  34  37
ENDBRANCH  23  24
ENDBRANCH   1  23
TORSDOF 7
ENDMDL
MODEL 4
REMARK VINA RESULT:     -10.0      2.721     11.653
REMARK  7 active torsions:
REMARK  status: ('A' for Active; 'I' for Inactive)
REMARK    1  A    between atoms: C_2  and  C_3 
REMARK    2  A    between atoms: N_10  and  C_11 
REMARK    3  A    between atoms: C_11  and  C_12 
REMARK       I    between atoms: C_12  and  N_13 
REMARK    4  A    between atoms: N_13  and  C_14 
REMARK    5  A    between atoms: C_17  and  C_18 
REMARK       I    between atoms: C_18  and  N_19 
REMARK    6  A    between atoms: N_19  and  C_20 
REMARK    7  A    between atoms: C_21  and  O_22 
ROOT
HETATM    1  C   UNL     1      25.319  43.304  48.911  1.00  0.00     0.240 C 
HETATM    2  N   UNL     1      25.172  44.590  49.388  1.00  0.00    -0.326 N 
HETATM    3  O   UNL     1      24.513  42.712  48.191  1.00  0.00    -0.271 OA
HETATM    4  H   UNL     1      25.904  44.941  49.993  1.00  0.00     0.169 HD
ENDROOT
BRANCH   2   5
HETATM    5  C   UNL     1      24.111  45.483  49.098  1.00  0.00     0.034 A 
HETATM    6  C   UNL     1      23.006  45.153  48.305  1.00  0.00     0.030 A 
HETATM    7  C   UNL     1      22.009  46.096  48.019  1.00  0.00     0.019 A 
HETATM    8  C   UNL     1      22.099  47.392  48.532  1.00  0.00     0.032 A 
HETATM    9  C   UNL     1      23.197  47.728  49.335  1.00  0.00     0.019 A 
HETATM   10  C   UNL     1      24.189  46.778  49.621  1.00  0.00     0.030 A 
BRANCH   8  11
HETATM   11  C   UNL     1      21.110  48.451  48.177  1.00  0.00     0.256 C 
HETATM   12  N   UNL     1      20.930  49.443  49.123  1.00  0.00    -0.321 N 
HETATM   13  H   UNL     1      21.592  49.512  49.888  1.00  0.00     0.169 HD
HETATM   14  O   UNL     1      20.552  48.376  47.087  1.00  0.00    -0.267 OA
BRANCH  12  15
HETATM   15  C   UNL     1      19.949  50.463  49.133  1.00  0.00     0.068 A 
HETATM   16  C   UNL     1      18.748  50.201  49.830  1.00  0.00     0.095 A 
HETATM   17  C   UNL     1      17.730  51.160  49.842  1.00  0.00     0.039 A 
HETATM   18  C   UNL     1      17.897  52.372  49.169  1.00  0.00     0.003 A 
HETATM   19  C   UNL     1      19.080  52.630  48.483  1.00  0.00     0.002 A 
HETATM   20  C   UNL     1      20.102  51.680  48.464  1.00  0.00     0.032 A 
BRANCH  16  21
HETATM   21  O   UNL     1      18.677  48.975  50.454  1.00  0.00    -0.354 OA
HETATM   22  C   UNL     1      17.818  48.006  49.862  1.00  0.00     0.210 C 
ENDBRANCH  16  21
ENDBRANCH  12  15
ENDBRANCH   8  11
ENDBRANCH   2   5
BRANCH   1  23
HETATM   23  C   UNL     1      26.557  42.542  49.379  1.00  0.00     0.240 C 
BRANCH  23  24
HETATM   24  N   UNL     1      26.718  42.235  50.785  1.00  0.00    -0.259 N 
HETATM   25  C   UNL     1      26.650  40.981  51.301  1.00  0.00     0.326 C 
HETATM   26  N   UNL     1      27.139  41.011  52.587  1.00  0.00    -0.324 N 
HETATM   27  O   UNL     1      26.246  39.975  50.745  1.00  0.00    -0.247 OA
HETATM   28  C   UNL     1      27.856  42.244  52.862  1.00  0.00     0.116 C 
HETATM   29  H   UNL     1      27.307  40.133  53.066  1.00  0.00     0.165 HD
HETATM   30  C   UNL     1      29.363  42.033  52.635  1.00  0.00     0.041 C 
HETATM   31  C   UNL     1      27.297  43.086  51.690  1.00  0.00     0.256 C 
HETATM   32  C   UNL     1      27.537  42.785  54.253  1.00  0.00     0.041 C 
HETATM   33  C   UNL     1      30.190  43.260  53.021  1.00  0.00     0.007 C 
HETATM   34  C   UNL     1      29.927  43.730  54.458  1.00  0.00    -0.015 C 
HETATM   35  C   UNL     1      28.420  43.966  54.667  1.00  0.00     0.007 C 
HETATM   36  O   UNL     1      27.463  44.287  51.529  1.00  0.00    -0.270 OA
BRANCH  34  37
HETATM   37  C   UNL     1      30.552  42.752  55.474  1.00  0.00     0.000 C 
HETATM   38  C   UNL     1      31.338  43.448  56.576  1.00  0.00     0.005 C 
ENDBRANCH  34  37
ENDBRANCH  23  24
ENDBRANCH   1  23
TORSDOF 7
ENDMDL
MODEL 5
REMARK VINA RESULT:      -9.4      3.573     11.210
REMARK  7 active torsions:
REMARK  status: ('A' for Active; 'I' for Inactive)
REMARK    1  A    between atoms: C_2  and  C_3 
REMARK    2  A    between atoms: N_10  and  C_11 
REMARK    3  A    between atoms: C_11  and  C_12 
REMARK       I    between atoms: C_12  and  N_13 
REMARK    4  A    between atoms: N_13  and  C_14 
REMARK    5  A    between atoms: C_17  and  C_18 
REMARK       I    between atoms: C_18  and  N_19 
REMARK    6  A    between atoms: N_19  and  C_20 
REMARK    7  A    between atoms: C_21  and  O_22 
ROOT
HETATM    1  C   UNL     1      24.442  41.957  48.622  1.00  0.00     0.240 C 
HETATM    2  N   UNL     1      24.997  43.214  48.493  1.00  0.00    -0.326 N 
HETATM    3  O   UNL     1      23.289  41.719  48.985  1.00  0.00    -0.271 OA
HETATM    4  H   UNL     1      25.968  43.258  48.209  1.00  0.00     0.169 HD
ENDROOT
BRANCH   2   5
HETATM    5  C   UNL     1      24.340  44.453  48.693  1.00  0.00     0.034 A 
HETATM    6  C   UNL     1      23.193  44.851  47.997  1.00  0.00     0.030 A 
HETATM    7  C   UNL     1      22.615  46.110  48.210  1.00  0.00     0.019 A 
HETATM    8  C   UNL     1      23.174  46.993  49.135  1.00  0.00     0.032 A 
HETATM    9  C   UNL     1      24.317  46.599  49.844  1.00  0.00     0.019 A 
HETATM   10  C   UNL     1      24.889  45.336  49.629  1.00  0.00     0.030 A 
BRANCH   8  11
HETATM   11  C   UNL     1      22.645  48.376  49.326  1.00  0.00     0.256 C 
HETATM   12  N   UNL     1      21.270  48.503  49.268  1.00  0.00    -0.321 N 
HETATM   13  H   UNL     1      20.702  47.664  49.299  1.00  0.00     0.169 HD
HETATM   14  O   UNL     1      23.451  49.278  49.532  1.00  0.00    -0.267 OA
BRANCH  12  15
HETATM   15  C   UNL     1      20.511  49.698  49.242  1.00  0.00     0.068 A 
HETATM   16  C   UNL     1      19.253  49.681  49.886  1.00  0.00     0.095 A 
HETATM   17  C   UNL     1      18.446  50.823  49.861  1.00  0.00     0.039 A 
HETATM   18  C   UNL     1      18.880  51.976  49.205  1.00  0.00     0.003 A 
HETATM   19  C   UNL     1      20.119  51.993  48.572  1.00  0.00     0.002 A 
HETATM   20  C   UNL     1      20.932  50.859  48.589  1.00  0.00     0.032 A 
BRANCH  16  21
HETATM   21  O   UNL     1      18.913  48.494  50.497  1.00  0.00    -0.354 OA
HETATM   22  C   UNL     1      18.573  48.562  51.878  1.00  0.00     0.210 C 
ENDBRANCH  16  21
ENDBRANCH  12  15
ENDBRANCH   8  11
ENDBRANCH   2   5
BRANCH   1  23
HETATM   23  C   UNL     1      25.369  40.773  48.355  1.00  0.00     0.240 C 
BRANCH  23  24
HETATM   24  N   UNL     1      26.642  40.693  49.040  1.00  0.00    -0.259 N 
HETATM   25  C   UNL     1      27.836  40.976  48.457  1.00  0.00     0.326 C 
HETATM   26  N   UNL     1      28.786  41.093  49.446  1.00  0.00    -0.324 N 
HETATM   27  O   UNL     1      28.060  41.124  47.270  1.00  0.00    -0.247 OA
HETATM   28  C   UNL     1      28.183  41.208  50.762  1.00  0.00     0.116 C 
HETATM   29  H   UNL     1      29.701  41.457  49.203  1.00  0.00     0.165 HD
HETATM   30  C   UNL     1      28.058  42.692  51.152  1.00  0.00     0.041 C 
HETATM   31  C   UNL     1      26.775  40.675  50.404  1.00  0.00     0.256 C 
HETATM   32  C   UNL     1      28.936  40.385  51.803  1.00  0.00     0.041 C 
HETATM   33  C   UNL     1      27.539  42.880  52.577  1.00  0.00     0.007 C 
HETATM   34  C   UNL     1      28.370  42.122  53.621  1.00  0.00    -0.015 C 
HETATM   35  C   UNL     1      28.465  40.635  53.239  1.00  0.00     0.007 C 
HETATM   36  O   UNL     1      25.885  40.414  51.200  1.00  0.00    -0.270 OA
BRANCH  34  37
HETATM   37  C   UNL     1      29.739  42.803  53.826  1.00  0.00     0.000 C 
HETATM   38  C   UNL     1      29.803  43.664  55.079  1.00  0.00     0.005 C 
ENDBRANCH  34  37
ENDBRANCH  23  24
ENDBRANCH   1  23
TORSDOF 7
ENDMDL
MODEL 6
REMARK VINA RESULT:      -9.1      2.601     12.450
REMARK  7 active torsions:
REMARK  status: ('A' for Active; 'I' for Inactive)
REMARK    1  A    between atoms: C_2  and  C_3 
REMARK    2  A    between atoms: N_10  and  C_11 
REMARK    3  A    between atoms: C_11  and  C_12 
REMARK       I    between atoms: C_12  and  N_13 
REMARK    4  A    between atoms: N_13  and  C_14 
REMARK    5  A    between atoms: C_17  and  C_18 
REMARK       I    between atoms: C_18  and  N_19 
REMARK    6  A    between atoms: N_19  and  C_20 
REMARK    7  A    between atoms: C_21  and  O_22 
ROOT
HETATM    1  C   UNL     1      23.729  47.132  49.621  1.00  0.00     0.240 C 
HETATM    2  N   UNL     1      22.545  47.180  48.913  1.00  0.00    -0.326 N 
HETATM    3  O   UNL     1      24.256  48.085  50.196  1.00  0.00    -0.271 OA
HETATM    4  H   UNL     1      22.243  46.322  48.468  1.00  0.00     0.169 HD
ENDROOT
BRANCH   2   5
HETATM    5  C   UNL     1      21.694  48.303  48.767  1.00  0.00     0.034 A 
HETATM    6  C   UNL     1      22.069  49.492  48.132  1.00  0.00     0.030 A 
HETATM    7  C   UNL     1      21.194  50.584  48.058  1.00  0.00     0.019 A 
HETATM    8  C   UNL     1      19.917  50.500  48.615  1.00  0.00     0.032 A 
HETATM    9  C   UNL     1      19.528  49.310  49.245  1.00  0.00     0.019 A 
HETATM   10  C   UNL     1      20.407  48.219  49.311  1.00  0.00     0.030 A 
BRANCH   8  11
HETATM   11  C   UNL     1      18.989  51.669  48.640  1.00  0.00     0.256 C 
HETATM   12  N   UNL     1      17.694  51.396  49.041  1.00  0.00    -0.321 N 
HETATM   13  H   UNL     1      17.496  50.500  49.471  1.00  0.00     0.169 HD
HETATM   14  O   UNL     1      19.437  52.767  48.325  1.00  0.00    -0.267 OA
BRANCH  12  15
HETATM   15  C   UNL     1      16.574  52.261  48.996  1.00  0.00     0.068 A 
HETATM   16  C   UNL     1      15.822  52.286  47.801  1.00  0.00     0.095 A 
HETATM   17  C   UNL     1      14.726  53.149  47.689  1.00  0.00     0.039 A 
HETATM   18  C   UNL     1      14.374  53.980  48.754  1.00  0.00     0.003 A 
HETATM   19  C   UNL     1      15.114  53.954  49.932  1.00  0.00     0.002 A 
HETATM   20  C   UNL     1      16.211  53.098  50.054  1.00  0.00     0.032 A 
BRANCH  16  21
HETATM   21  O   UNL     1      16.254  51.436  46.807  1.00  0.00    -0.354 OA
HETATM   22  C   UNL     1      15.386  50.359  46.466  1.00  0.00     0.210 C 
ENDBRANCH  16  21
ENDBRANCH  12  15
ENDBRANCH   8  11
ENDBRANCH   2   5
BRANCH   1  23
HETATM   23  C   UNL     1      24.467  45.795  49.622  1.00  0.00     0.240 C 
BRANCH  23  24
HETATM   24  N   UNL     1      24.723  45.120  50.877  1.00  0.00    -0.259 N 
HETATM   25  C   UNL     1      24.166  43.933  51.228  1.00  0.00     0.326 C 
HETATM   26  N   UNL     1      24.841  43.439  52.321  1.00  0.00    -0.324 N 
HETATM   27  O   UNL     1      23.237  43.364  50.682  1.00  0.00    -0.247 OA
HETATM   28  C   UNL     1      26.094  44.141  52.541  1.00  0.00     0.116 C 
HETATM   29  H   UNL     1      24.659  42.488  52.618  1.00  0.00     0.165 HD
HETATM   30  C   UNL     1      27.249  43.366  51.881  1.00  0.00     0.041 C 
HETATM   31  C   UNL     1      25.794  45.396  51.687  1.00  0.00     0.256 C 
HETATM   32  C   UNL     1      26.337  44.414  54.022  1.00  0.00     0.041 C 
HETATM   33  C   UNL     1      28.614  43.988  52.175  1.00  0.00     0.007 C 
HETATM   34  C   UNL     1      28.879  44.165  53.676  1.00  0.00    -0.015 C 
HETATM   35  C   UNL     1      27.734  44.965  54.323  1.00  0.00     0.007 C 
HETATM   36  O   UNL     1      26.476  46.409  51.640  1.00  0.00    -0.270 OA
BRANCH  34  37
HETATM   37  C   UNL     1      29.143  42.801  54.346  1.00  0.00     0.000 C 
HETATM   38  C   UNL     1      30.291  42.830  55.345  1.00  0.00     0.005 C 
ENDBRANCH  34  37
ENDBRANCH  23  24
ENDBRANCH   1  23
TORSDOF 7
ENDMDL
MODEL 7
REMARK VINA RESULT:      -9.1      3.619     13.128
REMARK  7 active torsions:
REMARK  status: ('A' for Active; 'I' for Inactive)
REMARK    1  A    between atoms: C_2  and  C_3 
REMARK    2  A    between atoms: N_10  and  C_11 
REMARK    3  A    between atoms: C_11  and  C_12 
REMARK       I    between atoms: C_12  and  N_13 
REMARK    4  A    between atoms: N_13  and  C_14 
REMARK    5  A    between atoms: C_17  and  C_18 
REMARK       I    between atoms: C_18  and  N_19 
REMARK    6  A    between atoms: N_19  and  C_20 
REMARK    7  A    between atoms: C_21  and  O_22 
ROOT
HETATM    1  C   UNL     1      22.516  49.907  49.368  1.00  0.00     0.240 C 
HETATM    2  N   UNL     1      21.262  49.695  48.832  1.00  0.00    -0.326 N 
HETATM    3  O   UNL     1      22.835  50.855  50.087  1.00  0.00    -0.271 OA
HETATM    4  H   UNL     1      21.151  48.885  48.235  1.00  0.00     0.169 HD
ENDROOT
BRANCH   2   5
HETATM    5  C   UNL     1      20.106  50.482  49.052  1.00  0.00     0.034 A 
HETATM    6  C   UNL     1      19.043  50.099  49.878  1.00  0.00     0.030 A 
HETATM    7  C   UNL     1      17.905  50.905  50.020  1.00  0.00     0.019 A 
HETATM    8  C   UNL     1      17.816  52.120  49.338  1.00  0.00     0.032 A 
HETATM    9  C   UNL     1      18.879  52.517  48.516  1.00  0.00     0.019 A 
HETATM   10  C   UNL     1      20.017  51.708  48.382  1.00  0.00     0.030 A 
BRANCH   8  11
HETATM   11  C   UNL     1      16.585  52.964  49.388  1.00  0.00     0.256 C 
HETATM   12  N   UNL     1      15.736  52.847  48.304  1.00  0.00    -0.321 N 
HETATM   13  H   UNL     1      15.879  52.084  47.652  1.00  0.00     0.169 HD
HETATM   14  O   UNL     1      16.412  53.671  50.376  1.00  0.00    -0.267 OA
BRANCH  12  15
HETATM   15  C   UNL     1      14.601  53.639  48.004  1.00  0.00     0.068 A 
HETATM   16  C   UNL     1      14.381  53.969  46.648  1.00  0.00     0.095 A 
HETATM   17  C   UNL     1      13.295  54.779  46.299  1.00  0.00     0.039 A 
HETATM   18  C   UNL     1      12.429  55.257  47.285  1.00  0.00     0.003 A 
HETATM   19  C   UNL     1      12.646  54.932  48.620  1.00  0.00     0.002 A 
HETATM   20  C   UNL     1      13.727  54.125  48.980  1.00  0.00     0.032 A 
BRANCH  16  21
HETATM   21  O   UNL     1      15.294  53.455  45.754  1.00  0.00    -0.354 OA
HETATM   22  C   UNL     1      15.258  53.982  44.432  1.00  0.00     0.210 C 
ENDBRANCH  16  21
ENDBRANCH  12  15
ENDBRANCH   8  11
ENDBRANCH   2   5
BRANCH   1  23
HETATM   23  C   UNL     1      23.604  48.911  48.969  1.00  0.00     0.240 C 
BRANCH  23  24
HETATM   24  N   UNL     1      23.611  47.588  49.556  1.00  0.00    -0.259 N 
HETATM   25  C   UNL     1      22.875  46.546  49.088  1.00  0.00     0.326 C 
HETATM   26  N   UNL     1      23.338  45.388  49.671  1.00  0.00    -0.324 N 
HETATM   27  O   UNL     1      21.966  46.590  48.279  1.00  0.00    -0.247 OA
HETATM   28  C   UNL     1      24.625  45.587  50.314  1.00  0.00     0.116 C 
HETATM   29  H   UNL     1      23.007  44.498  49.318  1.00  0.00     0.165 HD
HETATM   30  C   UNL     1      25.757  45.176  49.355  1.00  0.00     0.041 C 
HETATM   31  C   UNL     1      24.591  47.132  50.399  1.00  0.00     0.256 C 
HETATM   32  C   UNL     1      24.702  44.870  51.659  1.00  0.00     0.041 C 
HETATM   33  C   UNL     1      27.135  45.248  50.012  1.00  0.00     0.007 C 
HETATM   34  C   UNL     1      27.220  44.440  51.314  1.00  0.00    -0.015 C 
HETATM   35  C   UNL     1      26.103  44.878  52.278  1.00  0.00     0.007 C 
HETATM   36  O   UNL     1      25.389  47.833  51.004  1.00  0.00    -0.270 OA
BRANCH  34  37
HETATM   37  C   UNL     1      27.230  42.927  51.016  1.00  0.00     0.000 C 
HETATM   38  C   UNL     1      27.429  42.069  52.258  1.00  0.00     0.005 C 
ENDBRANCH  34  37
ENDBRANCH  23  24
ENDBRANCH   1  23
TORSDOF 7
ENDMDL
MODEL 8
REMARK VINA RESULT:      -9.0      5.563      9.410
REMARK  7 active torsions:
REMARK  status: ('A' for Active; 'I' for Inactive)
REMARK    1  A    between atoms: C_2  and  C_3 
REMARK    2  A    between atoms: N_10  and  C_11 
REMARK    3  A    between atoms: C_11  and  C_12 
REMARK       I    between atoms: C_12  and  N_13 
REMARK    4  A    between atoms: N_13  and  C_14 
REMARK    5  A    between atoms: C_17  and  C_18 
REMARK       I    between atoms: C_18  and  N_19 
REMARK    6  A    between atoms: N_19  and  C_20 
REMARK    7  A    between atoms: C_21  and  O_22 
ROOT
HETATM    1  C   UNL     1      16.089  51.673  49.069  1.00  0.00     0.240 C 
HETATM    2  N   UNL     1      17.276  51.638  49.771  1.00  0.00    -0.326 N 
HETATM    3  O   UNL     1      15.891  51.148  47.972  1.00  0.00    -0.271 OA
HETATM    4  H   UNL     1      17.302  52.138  50.651  1.00  0.00     0.169 HD
ENDROOT
BRANCH   2   5
HETATM    5  C   UNL     1      18.458  50.951  49.398  1.00  0.00     0.034 A 
HETATM    6  C   UNL     1      18.638  49.571  49.537  1.00  0.00     0.030 A 
HETATM    7  C   UNL     1      19.849  48.957  49.189  1.00  0.00     0.019 A 
HETATM    8  C   UNL     1      20.905  49.721  48.686  1.00  0.00     0.032 A 
HETATM    9  C   UNL     1      20.731  51.103  48.535  1.00  0.00     0.019 A 
HETATM   10  C   UNL     1      19.514  51.710  48.880  1.00  0.00     0.030 A 
BRANCH   8  11
HETATM   11  C   UNL     1      22.240  49.122  48.391  1.00  0.00     0.256 C 
HETATM   12  N   UNL     1      23.265  49.501  49.237  1.00  0.00    -0.321 N 
HETATM   13  H   UNL     1      23.033  49.985  50.097  1.00  0.00     0.169 HD
HETATM   14  O   UNL     1      22.325  48.340  47.449  1.00  0.00    -0.267 OA
BRANCH  12  15
HETATM   15  C   UNL     1      24.648  49.231  49.097  1.00  0.00     0.068 A 
HETATM   16  C   UNL     1      25.142  48.049  49.694  1.00  0.00     0.095 A 
HETATM   17  C   UNL     1      26.506  47.752  49.617  1.00  0.00     0.039 A 
HETATM   18  C   UNL     1      27.378  48.616  48.952  1.00  0.00     0.003 A 
HETATM   19  C   UNL     1      26.892  49.779  48.363  1.00  0.00     0.002 A 
HETATM   20  C   UNL     1      25.532  50.087  48.435  1.00  0.00     0.032 A 
BRANCH  16  21
HETATM   21  O   UNL     1      24.204  47.268  50.333  1.00  0.00    -0.354 OA
HETATM   22  C   UNL     1      24.117  45.908  49.918  1.00  0.00     0.210 C 
ENDBRANCH  16  21
ENDBRANCH  12  15
ENDBRANCH   8  11
ENDBRANCH   2   5
BRANCH   1  23
HETATM   23  C   UNL     1      14.958  52.494  49.685  1.00  0.00     0.240 C 
BRANCH  23  24
HETATM   24  N   UNL     1      14.949  53.933  49.525  1.00  0.00    -0.259 N 
HETATM   25  C   UNL     1      14.498  54.570  48.413  1.00  0.00     0.326 C 
HETATM   26  N   UNL     1      14.350  55.907  48.706  1.00  0.00    -0.324 N 
HETATM   27  O   UNL     1      14.241  54.073  47.332  1.00  0.00    -0.247 OA
HETATM   28  C   UNL     1      14.397  56.153  50.137  1.00  0.00     0.116 C 
HETATM   29  H   UNL     1      13.874  56.503  48.039  1.00  0.00     0.165 HD
HETATM   30  C   UNL     1      12.967  56.200  50.705  1.00  0.00     0.041 C 
HETATM   31  C   UNL     1      15.051  54.818  50.567  1.00  0.00     0.256 C 
HETATM   32  C   UNL     1      15.206  57.403  50.470  1.00  0.00     0.041 C 
HETATM   33  C   UNL     1      12.938  56.573  52.187  1.00  0.00     0.007 C 
HETATM   34  C   UNL     1      13.676  57.886  52.487  1.00  0.00    -0.015 C 
HETATM   35  C   UNL     1      15.113  57.819  51.941  1.00  0.00     0.007 C 
HETATM   36  O   UNL     1      15.463  54.551  51.686  1.00  0.00    -0.270 OA
BRANCH  34  37
HETATM   37  C   UNL     1      12.868  59.094  51.971  1.00  0.00     0.000 C 
HETATM   38  C   UNL     1      11.570  59.322  52.732  1.00  0.00     0.005 C 
ENDBRANCH  34  37
ENDBRANCH  23  24
ENDBRANCH   1  23
TORSDOF 7
ENDMDL
MODEL 9
REMARK VINA RESULT:      -9.0      2.642     11.359
REMARK  7 active torsions:
REMARK  status: ('A' for Active; 'I' for Inactive)
REMARK    1  A    between atoms: C_2  and  C_3 
REMARK    2  A    between atoms: N_10  and  C_11 
REMARK    3  A    between atoms: C_11  and  C_12 
REMARK       I    between atoms: C_12  and  N_13 
REMARK    4  A    between atoms: N_13  and  C_14 
REMARK    5  A    between atoms: C_17  and  C_18 
REMARK       I    between atoms: C_18  and  N_19 
REMARK    6  A    between atoms: N_19  and  C_20 
REMARK    7  A    between atoms: C_21  and  O_22 
ROOT
HETATM    1  C   UNL     1      23.339  44.127  49.811  1.00  0.00     0.240 C 
HETATM    2  N   UNL     1      23.733  45.282  49.168  1.00  0.00    -0.326 N 
HETATM    3  O   UNL     1      22.240  43.941  50.337  1.00  0.00    -0.271 OA
HETATM    4  H   UNL     1      24.679  45.304  48.805  1.00  0.00     0.169 HD
ENDROOT
BRANCH   2   5
HETATM    5  C   UNL     1      22.941  46.434  48.940  1.00  0.00     0.034 A 
HETATM    6  C   UNL     1      23.317  47.729  49.315  1.00  0.00     0.030 A 
HETATM    7  C   UNL     1      22.468  48.823  49.101  1.00  0.00     0.019 A 
HETATM    8  C   UNL     1      21.223  48.639  48.497  1.00  0.00     0.032 A 
HETATM    9  C   UNL     1      20.841  47.347  48.109  1.00  0.00     0.019 A 
HETATM   10  C   UNL     1      21.698  46.257  48.322  1.00  0.00     0.030 A 
BRANCH   8  11
HETATM   11  C   UNL     1      20.251  49.760  48.334  1.00  0.00     0.256 C 
HETATM   12  N   UNL     1      19.206  49.781  49.238  1.00  0.00    -0.321 N 
HETATM   13  H   UNL     1      19.255  49.182  50.054  1.00  0.00     0.169 HD
HETATM   14  O   UNL     1      20.456  50.574  47.440  1.00  0.00    -0.267 OA
BRANCH  12  15
HETATM   15  C   UNL     1      18.061  50.613  49.218  1.00  0.00     0.068 A 
HETATM   16  C   UNL     1      16.932  50.145  48.509  1.00  0.00     0.095 A 
HETATM   17  C   UNL     1      15.785  50.943  48.426  1.00  0.00     0.039 A 
HETATM   18  C   UNL     1      15.754  52.195  49.043  1.00  0.00     0.003 A 
HETATM   19  C   UNL     1      16.865  52.655  49.742  1.00  0.00     0.002 A 
HETATM   20  C   UNL     1      18.015  51.868  49.830  1.00  0.00     0.032 A 
BRANCH  16  21
HETATM   21  O   UNL     1      17.065  48.903  47.929  1.00  0.00    -0.354 OA
HETATM   22  C   UNL     1      16.284  47.851  48.488  1.00  0.00     0.210 C 
ENDBRANCH  16  21
ENDBRANCH  12  15
ENDBRANCH   8  11
ENDBRANCH   2   5
BRANCH   1  23
HETATM   23  C   UNL     1      24.389  43.024  49.933  1.00  0.00     0.240 C 
BRANCH  23  24
HETATM   24  N   UNL     1      25.578  43.253  50.727  1.00  0.00    -0.259 N 
HETATM   25  C   UNL     1      26.824  43.393  50.205  1.00  0.00     0.326 C 
HETATM   26  N   UNL     1      27.654  43.891  51.183  1.00  0.00    -0.324 N 
HETATM   27  O   UNL     1      27.178  43.146  49.066  1.00  0.00    -0.247 OA
HETATM   28  C   UNL     1      26.903  44.406  52.315  1.00  0.00     0.116 C 
HETATM   29  H   UNL     1      28.582  44.204  50.923  1.00  0.00     0.165 HD
HETATM   30  C   UNL     1      26.703  45.924  52.162  1.00  0.00     0.041 C 
HETATM   31  C   UNL     1      25.556  43.702  52.022  1.00  0.00     0.256 C 
HETATM   32  C   UNL     1      27.551  44.026  53.644  1.00  0.00     0.041 C 
HETATM   33  C   UNL     1      26.022  46.551  53.378  1.00  0.00     0.007 C 
HETATM   34  C   UNL     1      26.746  46.237  54.695  1.00  0.00    -0.015 C 
HETATM   35  C   UNL     1      26.915  44.716  54.854  1.00  0.00     0.007 C 
HETATM   36  O   UNL     1      24.587  43.673  52.766  1.00  0.00    -0.270 OA
BRANCH  34  37
HETATM   37  C   UNL     1      28.068  47.026  54.791  1.00  0.00     0.000 C 
HETATM   38  C   UNL     1      29.095  46.374  55.706  1.00  0.00     0.005 C 
ENDBRANCH  34  37
ENDBRANCH  23  24
ENDBRANCH   1  23
TORSDOF 7
ENDMDL
MODEL 10
REMARK VINA RESULT:      -8.9      3.762     11.126
REMARK  7 active torsions:
REMARK  status: ('A' for Active; 'I' for Inactive)
REMARK    1  A    between atoms: C_2  and  C_3 
REMARK    2  A    between atoms: N_10  and  C_11 
REMARK    3  A    between atoms: C_11  and  C_12 
REMARK       I    between atoms: C_12  and  N_13 
REMARK    4  A    between atoms: N_13  and  C_14 
REMARK    5  A    between atoms: C_17  and  C_18 
REMARK       I    between atoms: C_18  and  N_19 
REMARK    6  A    between atoms: N_19  and  C_20 
REMARK    7  A    between atoms: C_21  and  O_22 
ROOT
HETATM    1  C   UNL     1      26.340  44.043  51.911  1.00  0.00     0.240 C 
HETATM    2  N   UNL     1      26.457  45.008  50.932  1.00  0.00    -0.326 N 
HETATM    3  O   UNL     1      25.304  43.759  52.515  1.00  0.00    -0.271 OA
HETATM    4  H   UNL     1      27.379  45.153  50.540  1.00  0.00     0.169 HD
ENDROOT
BRANCH   2   5
HETATM    5  C   UNL     1      25.411  45.803  50.400  1.00  0.00     0.034 A 
HETATM    6  C   UNL     1      24.353  45.295  49.638  1.00  0.00     0.030 A 
HETATM    7  C   UNL     1      23.372  46.141  49.103  1.00  0.00     0.019 A 
HETATM    8  C   UNL     1      23.431  47.518  49.329  1.00  0.00     0.032 A 
HETATM    9  C   UNL     1      24.483  48.034  50.098  1.00  0.00     0.019 A 
HETATM   10  C   UNL     1      25.459  47.181  50.635  1.00  0.00     0.030 A 
BRANCH   8  11
HETATM   11  C   UNL     1      22.461  48.463  48.702  1.00  0.00     0.256 C 
HETATM   12  N   UNL     1      21.707  49.216  49.581  1.00  0.00    -0.321 N 
HETATM   13  H   UNL     1      21.976  49.239  50.558  1.00  0.00     0.169 HD
HETATM   14  O   UNL     1      22.416  48.513  47.477  1.00  0.00    -0.267 OA
BRANCH  12  15
HETATM   15  C   UNL     1      20.607  50.055  49.280  1.00  0.00     0.068 A 
HETATM   16  C   UNL     1      19.314  49.496  49.398  1.00  0.00     0.095 A 
HETATM   17  C   UNL     1      18.193  50.269  49.078  1.00  0.00     0.039 A 
HETATM   18  C   UNL     1      18.348  51.587  48.645  1.00  0.00     0.003 A 
HETATM   19  C   UNL     1      19.620  52.138  48.530  1.00  0.00     0.002 A 
HETATM   20  C   UNL     1      20.746  51.375  48.845  1.00  0.00     0.032 A 
BRANCH  16  21
HETATM   21  O   UNL     1      19.268  48.187  49.824  1.00  0.00    -0.354 OA
HETATM   22  C   UNL     1      18.879  47.215  48.859  1.00  0.00     0.210 C 
ENDBRANCH  16  21
ENDBRANCH  12  15
ENDBRANCH   8  11
ENDBRANCH   2   5
BRANCH   1  23
HETATM   23  C   UNL     1      27.626  43.326  52.317  1.00  0.00     0.240 C 
BRANCH  23  24
HETATM   24  N   UNL     1      28.069  42.172  51.563  1.00  0.00    -0.259 N 
HETATM   25  C   UNL     1      28.488  41.010  52.129  1.00  0.00     0.326 C 
HETATM   26  N   UNL     1      28.543  40.043  51.151  1.00  0.00    -0.324 N 
HETATM   27  O   UNL     1      28.759  40.817  53.300  1.00  0.00    -0.247 OA
HETATM   28  C   UNL     1      27.847  40.457  49.945  1.00  0.00     0.116 C 
HETATM   29  H   UNL     1      28.685  39.079  51.426  1.00  0.00     0.165 HD
HETATM   30  C   UNL     1      26.410  39.907  49.957  1.00  0.00     0.041 C 
HETATM   31  C   UNL     1      27.794  41.976  50.235  1.00  0.00     0.256 C 
HETATM   32  C   UNL     1      28.618  40.069  48.686  1.00  0.00     0.041 C 
HETATM   33  C   UNL     1      25.658  40.206  48.660  1.00  0.00     0.007 C 
HETATM   34  C   UNL     1      26.405  39.721  47.410  1.00  0.00    -0.015 C 
HETATM   35  C   UNL     1      27.832  40.299  47.392  1.00  0.00     0.007 C 
HETATM   36  O   UNL     1      27.432  42.842  49.451  1.00  0.00    -0.270 OA
BRANCH  34  37
HETATM   37  C   UNL     1      26.354  38.183  47.309  1.00  0.00     0.000 C 
HETATM   38  C   UNL     1      25.049  37.659  46.726  1.00  0.00     0.005 C 
ENDBRANCH  34  37
ENDBRANCH  23  24
ENDBRANCH   1  23
TORSDOF 7
ENDMDL
