MODEL 1
REMARK VINA RESULT:      -9.8      0.000      0.000
REMARK  9 active torsions:
REMARK  status: ('A' for Active; 'I' for Inactive)
REMARK    1  A    between atoms: C_2  and  O_3 
REMARK    2  A    between atoms: O_3  and  C_4 
REMARK    3  A    between atoms: C_4  and  C_5 
REMARK    4  A    between atoms: C_8  and  N_9 
REMARK       I    between atoms: N_9  and  C_10 
REMARK    5  A    between atoms: C_10  and  C_11 
REMARK    6  A    between atoms: C_11  and  C_12 
REMARK    7  A    between atoms: N_13  and  C_14 
REMARK    8  A    between atoms: C_14  and  C_15 
REMARK    9  A    between atoms: N_23  and  C_24 
ROOT
HETATM    1  C   UNL     1      26.147  44.281  50.641  1.00  0.00     0.191 A 
HETATM    2  N   UNL     1      25.894  45.486  51.403  1.00  0.00    -0.315 N 
HETATM    3  C   UNL     1      26.742  45.612  52.496  1.00  0.00     0.333 A 
HETATM    4  O   UNL     1      26.672  46.554  53.271  1.00  0.00    -0.246 OA
HETATM    5  N   UNL     1      27.596  44.530  52.519  1.00  0.00    -0.232 N 
HETATM    6  C   UNL     1      27.336  43.723  51.431  1.00  0.00     0.256 A 
HETATM    7  O   UNL     1      27.920  42.703  51.074  1.00  0.00    -0.270 OA
ENDROOT
BRANCH   1   8
HETATM    8  C   UNL     1      25.057  43.215  50.641  1.00  0.00     0.138 C 
BRANCH   8   9
HETATM    9  C   UNL     1      24.583  42.805  49.276  1.00  0.00     0.224 C 
HETATM   10  N   UNL     1      25.232  41.928  48.473  1.00  0.00    -0.327 N 
HETATM   11  H   UNL     1      24.797  41.928  47.554  1.00  0.00     0.169 HD
HETATM   12  O   UNL     1      23.569  43.338  48.808  1.00  0.00    -0.273 OA
BRANCH  10  13
HETATM   13  C   UNL     1      26.307  41.038  48.611  1.00  0.00     0.034 A 
HETATM   14  C   UNL     1      27.530  41.123  47.950  1.00  0.00     0.030 A 
HETATM   15  C   UNL     1      28.546  40.190  48.221  1.00  0.00     0.020 A 
HETATM   16  C   UNL     1      28.353  39.164  49.156  1.00  0.00     0.039 A 
HETATM   17  C   UNL     1      27.125  39.073  49.812  1.00  0.00     0.020 A 
HETATM   18  C   UNL     1      26.120  40.008  49.546  1.00  0.00     0.030 A 
BRANCH  16  19
HETATM   19  C   UNL     1      29.476  38.228  49.439  1.00  0.00     0.293 C 
HETATM   20  O   UNL     1      30.597  38.363  48.979  1.00  0.00    -0.259 OA
BRANCH  19  21
HETATM   21  O   UNL     1      29.070  37.250  50.288  1.00  0.00    -0.318 OA
BRANCH  21  22
HETATM   22  C   UNL     1      29.880  37.051  51.456  1.00  0.00     0.174 C 
HETATM   23  C   UNL     1      29.873  35.592  51.868  1.00  0.00     0.034 C 
ENDBRANCH  21  22
ENDBRANCH  19  21
ENDBRANCH  16  19
ENDBRANCH  10  13
ENDBRANCH   8   9
ENDBRANCH   1   8
BRANCH   2  24
HETATM   24  C   UNL     1      24.923  46.514  51.051  1.00  0.00     0.168 C 
BRANCH  24  25
HETATM   25  C   UNL     1      25.448  47.572  50.121  1.00  0.00    -0.023 A 
HETATM   26  C   UNL     1      24.558  48.385  49.423  1.00  0.00     0.125 A 
HETATM   27  N   UNL     1      24.928  49.369  48.573  1.00  0.00    -0.273 NA
HETATM   28  C   UNL     1      26.254  49.578  48.431  1.00  0.00     0.116 A 
HETATM   29  C   UNL     1      27.222  48.853  49.102  1.00  0.00     0.020 A 
HETATM   30  C   UNL     1      26.810  47.844  49.968  1.00  0.00     0.012 A 
ENDBRANCH  24  25
ENDBRANCH   2  24
BRANCH   5  31
HETATM   31  C   UNL     1      28.582  44.290  53.525  1.00  0.00     0.047 A 
HETATM   32  C   UNL     1      28.621  45.043  54.710  1.00  0.00     0.031 A 
HETATM   33  C   UNL     1      29.557  44.784  55.720  1.00  0.00     0.009 A 
HETATM   34  C   UNL     1      30.493  43.763  55.574  1.00  0.00    -0.062 A 
HETATM   35  C   UNL     1      31.454  43.448  56.681  1.00  0.00     0.048 C 
HETATM   36  C   UNL     1      30.468  42.999  54.406  1.00  0.00     0.009 A 
HETATM   37  C   UNL     1      29.534  43.267  53.394  1.00  0.00     0.031 A 
ENDBRANCH   5  31
TORSDOF 9
ENDMDL
MODEL 2
REMARK VINA RESULT:      -9.7      2.860      6.105
REMARK  9 active torsions:
REMARK  status: ('A' for Active; 'I' for Inactive)
REMARK    1  A    between atoms: C_2  and  O_3 
REMARK    2  A    between atoms: O_3  and  C_4 
REMARK    3  A    between atoms: C_4  and  C_5 
REMARK    4  A    between atoms: C_8  and  N_9 
REMARK       I    between atoms: N_9  and  C_10 
REMARK    5  A    between atoms: C_10  and  C_11 
REMARK    6  A    between atoms: C_11  and  C_12 
REMARK    7  A    between atoms: N_13  and  C_14 
REMARK    8  A    between atoms: C_14  and  C_15 
REMARK    9  A    between atoms: N_23  and  C_24 
ROOT
HETATM    1  C   UNL     1      26.989  44.194  51.186  1.00  0.00     0.191 A 
HETATM    2  N   UNL     1      26.223  44.959  52.148  1.00  0.00    -0.315 N 
HETATM    3  C   UNL     1      26.865  45.066  53.374  1.00  0.00     0.333 A 
HETATM    4  O   UNL     1      26.370  45.660  54.321  1.00  0.00    -0.246 OA
HETATM    5  N   UNL     1      28.073  44.406  53.300  1.00  0.00    -0.232 N 
HETATM    6  C   UNL     1      28.237  43.902  52.026  1.00  0.00     0.256 A 
HETATM    7  O   UNL     1      29.202  43.307  51.553  1.00  0.00    -0.270 OA
ENDROOT
BRANCH   1   8
HETATM    8  C   UNL     1      26.412  42.855  50.742  1.00  0.00     0.138 C 
BRANCH   8   9
HETATM    9  C   UNL     1      26.441  42.621  49.259  1.00  0.00     0.224 C 
HETATM   10  N   UNL     1      25.375  42.785  48.438  1.00  0.00    -0.327 N 
HETATM   11  H   UNL     1      25.603  42.427  47.515  1.00  0.00     0.169 HD
HETATM   12  O   UNL     1      27.477  42.188  48.739  1.00  0.00    -0.273 OA
BRANCH  10  13
HETATM   13  C   UNL     1      24.088  43.332  48.553  1.00  0.00     0.034 A 
HETATM   14  C   UNL     1      23.294  43.325  49.697  1.00  0.00     0.030 A 
HETATM   15  C   UNL     1      22.039  43.957  49.691  1.00  0.00     0.020 A 
HETATM   16  C   UNL     1      21.564  44.606  48.543  1.00  0.00     0.039 A 
HETATM   17  C   UNL     1      22.356  44.607  47.393  1.00  0.00     0.020 A 
HETATM   18  C   UNL     1      23.606  43.983  47.407  1.00  0.00     0.030 A 
BRANCH  16  19
HETATM   19  C   UNL     1      20.248  45.299  48.601  1.00  0.00     0.293 C 
HETATM   20  O   UNL     1      19.178  44.722  48.494  1.00  0.00    -0.259 OA
BRANCH  19  21
HETATM   21  O   UNL     1      20.424  46.627  48.817  1.00  0.00    -0.318 OA
BRANCH  21  22
HETATM   22  C   UNL     1      19.279  47.462  48.592  1.00  0.00     0.174 C 
HETATM   23  C   UNL     1      19.456  48.282  47.329  1.00  0.00     0.034 C 
ENDBRANCH  21  22
ENDBRANCH  19  21
ENDBRANCH  16  19
ENDBRANCH  10  13
ENDBRANCH   8   9
ENDBRANCH   1   8
BRANCH   2  24
HETATM   24  C   UNL     1      24.955  45.623  51.874  1.00  0.00     0.168 C 
BRANCH  24  25
HETATM   25  C   UNL     1      25.044  46.746  50.878  1.00  0.00    -0.023 A 
HETATM   26  C   UNL     1      26.207  47.508  50.795  1.00  0.00     0.125 A 
HETATM   27  N   UNL     1      26.391  48.530  49.929  1.00  0.00    -0.273 NA
HETATM   28  C   UNL     1      25.377  48.789  49.077  1.00  0.00     0.116 A 
HETATM   29  C   UNL     1      24.194  48.073  49.049  1.00  0.00     0.020 A 
HETATM   30  C   UNL     1      24.033  47.030  49.956  1.00  0.00     0.012 A 
ENDBRANCH  24  25
ENDBRANCH   2  24
BRANCH   5  31
HETATM   31  C   UNL     1      28.993  44.261  54.383  1.00  0.00     0.047 A 
HETATM   32  C   UNL     1      29.695  43.064  54.597  1.00  0.00     0.031 A 
HETATM   33  C   UNL     1      30.630  42.929  55.631  1.00  0.00     0.009 A 
HETATM   34  C   UNL     1      30.890  43.991  56.494  1.00  0.00    -0.062 A 
HETATM   35  C   UNL     1      31.934  43.865  57.563  1.00  0.00     0.048 C 
HETATM   36  C   UNL     1      30.206  45.191  56.298  1.00  0.00     0.009 A 
HETATM   37  C   UNL     1      29.264  45.319  55.265  1.00  0.00     0.031 A 
ENDBRANCH   5  31
TORSDOF 9
ENDMDL
MODEL 3
REMARK VINA RESULT:      -9.7      3.287      7.539
REMARK  9 active torsions:
REMARK  status: ('A' for Active; 'I' for Inactive)
REMARK    1  A    between atoms: C_2  and  O_3 
REMARK    2  A    between atoms: O_3  and  C_4 
REMARK    3  A    between atoms: C_4  and  C_5 
REMARK    4  A    between atoms: C_8  and  N_9 
REMARK       I    between atoms: N_9  and  C_10 
REMARK    5  A    between atoms: C_10  and  C_11 
REMARK    6  A    between atoms: C_11  and  C_12 
REMARK    7  A    between atoms: N_13  and  C_14 
REMARK    8  A    between atoms: C_14  and  C_15 
REMARK    9  A    between atoms: N_23  and  C_24 
ROOT
HETATM    1  C   UNL     1      25.152  44.912  49.813  1.00  0.00     0.191 A 
HETATM    2  N   UNL     1      25.144  46.109  50.629  1.00  0.00    -0.315 N 
HETATM    3  C   UNL     1      26.035  46.033  51.692  1.00  0.00     0.333 A 
HETATM    4  O   UNL     1      26.161  46.938  52.504  1.00  0.00    -0.246 OA
HETATM    5  N   UNL     1      26.682  44.816  51.640  1.00  0.00    -0.232 N 
HETATM    6  C   UNL     1      26.246  44.117  50.533  1.00  0.00     0.256 A 
HETATM    7  O   UNL     1      26.625  43.026  50.115  1.00  0.00    -0.270 OA
ENDROOT
BRANCH   1   8
HETATM    8  C   UNL     1      23.889  44.059  49.815  1.00  0.00     0.138 C 
BRANCH   8   9
HETATM    9  C   UNL     1      23.443  43.598  48.457  1.00  0.00     0.224 C 
HETATM   10  N   UNL     1      22.394  44.123  47.779  1.00  0.00    -0.327 N 
HETATM   11  H   UNL     1      22.202  43.551  46.961  1.00  0.00     0.169 HD
HETATM   12  O   UNL     1      24.014  42.635  47.932  1.00  0.00    -0.273 OA
BRANCH  10  13
HETATM   13  C   UNL     1      21.556  45.239  47.921  1.00  0.00     0.034 A 
HETATM   14  C   UNL     1      20.384  45.293  48.671  1.00  0.00     0.030 A 
HETATM   15  C   UNL     1      19.663  46.496  48.772  1.00  0.00     0.020 A 
HETATM   16  C   UNL     1      20.108  47.659  48.128  1.00  0.00     0.039 A 
HETATM   17  C   UNL     1      21.279  47.604  47.371  1.00  0.00     0.020 A 
HETATM   18  C   UNL     1      21.995  46.408  47.279  1.00  0.00     0.030 A 
BRANCH  16  19
HETATM   19  C   UNL     1      19.333  48.918  48.303  1.00  0.00     0.293 C 
HETATM   20  O   UNL     1      18.215  48.959  48.789  1.00  0.00    -0.259 OA
BRANCH  19  21
HETATM   21  O   UNL     1      20.061  49.981  47.877  1.00  0.00    -0.318 OA
BRANCH  21  22
HETATM   22  C   UNL     1      20.285  51.021  48.840  1.00  0.00     0.174 C 
HETATM   23  C   UNL     1      19.429  52.233  48.526  1.00  0.00     0.034 C 
ENDBRANCH  21  22
ENDBRANCH  19  21
ENDBRANCH  16  19
ENDBRANCH  10  13
ENDBRANCH   8   9
ENDBRANCH   1   8
BRANCH   2  24
HETATM   24  C   UNL     1      24.363  47.308  50.355  1.00  0.00     0.168 C 
BRANCH  24  25
HETATM   25  C   UNL     1      25.038  48.293  49.442  1.00  0.00    -0.023 A 
HETATM   26  C   UNL     1      24.273  49.074  48.578  1.00  0.00     0.125 A 
HETATM   27  N   UNL     1      24.781  49.993  47.727  1.00  0.00    -0.273 NA
HETATM   28  C   UNL     1      26.119  50.170  47.757  1.00  0.00     0.116 A 
HETATM   29  C   UNL     1      26.968  49.474  48.599  1.00  0.00     0.020 A 
HETATM   30  C   UNL     1      26.415  48.531  49.461  1.00  0.00     0.012 A 
ENDBRANCH  24  25
ENDBRANCH   2  24
BRANCH   5  31
HETATM   31  C   UNL     1      27.640  44.360  52.597  1.00  0.00     0.047 A 
HETATM   32  C   UNL     1      28.763  43.609  52.212  1.00  0.00     0.031 A 
HETATM   33  C   UNL     1      29.728  43.195  53.139  1.00  0.00     0.009 A 
HETATM   34  C   UNL     1      29.598  43.513  54.489  1.00  0.00    -0.062 A 
HETATM   35  C   UNL     1      30.662  43.121  55.469  1.00  0.00     0.048 C 
HETATM   36  C   UNL     1      28.491  44.261  54.892  1.00  0.00     0.009 A 
HETATM   37  C   UNL     1      27.522  44.668  53.961  1.00  0.00     0.031 A 
ENDBRANCH   5  31
TORSDOF 9
ENDMDL
MODEL 4
REMARK VINA RESULT:      -9.6      4.087      8.952
REMARK  9 active torsions:
REMARK  status: ('A' for Active; 'I' for Inactive)
REMARK    1  A    between atoms: C_2  and  O_3 
REMARK    2  A    between atoms: O_3  and  C_4 
REMARK    3  A    between atoms: C_4  and  C_5 
REMARK    4  A    between atoms: C_8  and  N_9 
REMARK       I    between atoms: N_9  and  C_10 
REMARK    5  A    between atoms: C_10  and  C_11 
REMARK    6  A    between atoms: C_11  and  C_12 
REMARK    7  A    between atoms: N_13  and  C_14 
REMARK    8  A    between atoms: C_14  and  C_15 
REMARK    9  A    between atoms: N_23  and  C_24 
ROOT
HETATM    1  C   UNL     1      23.176  48.378  48.335  1.00  0.00     0.191 A 
HETATM    2  N   UNL     1      22.082  47.527  47.915  1.00  0.00    -0.315 N 
HETATM    3  C   UNL     1      20.843  48.132  48.081  1.00  0.00     0.333 A 
HETATM    4  O   UNL     1      19.797  47.565  47.799  1.00  0.00    -0.246 OA
HETATM    5  N   UNL     1      21.034  49.395  48.599  1.00  0.00    -0.232 N 
HETATM    6  C   UNL     1      22.387  49.630  48.735  1.00  0.00     0.256 A 
HETATM    7  O   UNL     1      22.956  50.654  49.105  1.00  0.00    -0.270 OA
ENDROOT
BRANCH   1   8
HETATM    8  C   UNL     1      23.977  47.933  49.554  1.00  0.00     0.138 C 
BRANCH   8   9
HETATM    9  C   UNL     1      25.442  48.255  49.492  1.00  0.00     0.224 C 
HETATM   10  N   UNL     1      26.385  47.679  50.276  1.00  0.00    -0.327 N 
HETATM   11  H   UNL     1      27.269  48.164  50.150  1.00  0.00     0.169 HD
HETATM   12  O   UNL     1      25.829  49.147  48.727  1.00  0.00    -0.273 OA
BRANCH  10  13
HETATM   13  C   UNL     1      26.432  46.599  51.170  1.00  0.00     0.034 A 
HETATM   14  C   UNL     1      26.759  45.284  50.848  1.00  0.00     0.030 A 
HETATM   15  C   UNL     1      26.819  44.304  51.854  1.00  0.00     0.020 A 
HETATM   16  C   UNL     1      26.556  44.627  53.192  1.00  0.00     0.039 A 
HETATM   17  C   UNL     1      26.220  45.943  53.514  1.00  0.00     0.020 A 
HETATM   18  C   UNL     1      26.169  46.915  52.512  1.00  0.00     0.030 A 
BRANCH  16  19
HETATM   19  C   UNL     1      26.676  43.562  54.226  1.00  0.00     0.293 C 
HETATM   20  O   UNL     1      25.965  43.501  55.215  1.00  0.00    -0.259 OA
BRANCH  19  21
HETATM   21  O   UNL     1      27.651  42.683  53.885  1.00  0.00    -0.318 OA
BRANCH  21  22
HETATM   22  C   UNL     1      28.954  42.940  54.430  1.00  0.00     0.174 C 
HETATM   23  C   UNL     1      30.009  42.886  53.342  1.00  0.00     0.034 C 
ENDBRANCH  21  22
ENDBRANCH  19  21
ENDBRANCH  16  19
ENDBRANCH  10  13
ENDBRANCH   8   9
ENDBRANCH   1   8
BRANCH   2  24
HETATM   24  C   UNL     1      22.228  46.210  47.308  1.00  0.00     0.168 C 
BRANCH  24  25
HETATM   25  C   UNL     1      22.635  45.126  48.267  1.00  0.00    -0.023 A 
HETATM   26  C   UNL     1      21.722  44.655  49.208  1.00  0.00     0.125 A 
HETATM   27  N   UNL     1      21.984  43.679  50.106  1.00  0.00    -0.273 NA
HETATM   28  C   UNL     1      23.210  43.117  50.046  1.00  0.00     0.116 A 
HETATM   29  C   UNL     1      24.180  43.484  49.129  1.00  0.00     0.020 A 
HETATM   30  C   UNL     1      23.881  44.494  48.221  1.00  0.00     0.012 A 
ENDBRANCH  24  25
ENDBRANCH   2  24
BRANCH   5  31
HETATM   31  C   UNL     1      19.986  50.302  48.947  1.00  0.00     0.047 A 
HETATM   32  C   UNL     1      19.869  51.560  48.334  1.00  0.00     0.031 A 
HETATM   33  C   UNL     1      18.819  52.436  48.640  1.00  0.00     0.009 A 
HETATM   34  C   UNL     1      17.852  52.083  49.578  1.00  0.00    -0.062 A 
HETATM   35  C   UNL     1      16.697  52.996  49.860  1.00  0.00     0.048 C 
HETATM   36  C   UNL     1      17.948  50.836  50.197  1.00  0.00     0.009 A 
HETATM   37  C   UNL     1      19.006  49.965  49.893  1.00  0.00     0.031 A 
ENDBRANCH   5  31
TORSDOF 9
ENDMDL
MODEL 5
REMARK VINA RESULT:      -9.3      3.150      8.483
REMARK  9 active torsions:
REMARK  status: ('A' for Active; 'I' for Inactive)
REMARK    1  A    between atoms: C_2  and  O_3 
REMARK    2  A    between atoms: O_3  and  C_4 
REMARK    3  A    between atoms: C_4  and  C_5 
REMARK    4  A    between atoms: C_8  and  N_9 
REMARK       I    between atoms: N_9  and  C_10 
REMARK    5  A    between atoms: C_10  and  C_11 
REMARK    6  A    between atoms: C_11  and  C_12 
REMARK    7  A    between atoms: N_13  and  C_14 
REMARK    8  A    between atoms: C_14  and  C_15 
REMARK    9  A    between atoms: N_23  and  C_24 
ROOT
HETATM    1  C   UNL     1      25.113  45.790  51.795  1.00  0.00     0.191 A 
HETATM    2  N   UNL     1      25.954  45.073  50.859  1.00  0.00    -0.315 N 
HETATM    3  C   UNL     1      27.081  44.532  51.463  1.00  0.00     0.333 A 
HETATM    4  O   UNL     1      27.921  43.905  50.834  1.00  0.00    -0.246 OA
HETATM    5  N   UNL     1      27.052  44.839  52.806  1.00  0.00    -0.232 N 
HETATM    6  C   UNL     1      25.899  45.542  53.087  1.00  0.00     0.256 A 
HETATM    7  O   UNL     1      25.487  45.941  54.173  1.00  0.00    -0.270 OA
ENDROOT
BRANCH   1   8
HETATM    8  C   UNL     1      24.996  47.299  51.613  1.00  0.00     0.138 C 
BRANCH   8   9
HETATM    9  C   UNL     1      25.767  47.851  50.448  1.00  0.00     0.224 C 
HETATM   10  N   UNL     1      25.200  48.308  49.305  1.00  0.00    -0.327 N 
HETATM   11  H   UNL     1      25.928  48.489  48.618  1.00  0.00     0.169 HD
HETATM   12  O   UNL     1      27.003  47.837  50.485  1.00  0.00    -0.273 OA
BRANCH  10  13
HETATM   13  C   UNL     1      23.899  48.602  48.870  1.00  0.00     0.034 A 
HETATM   14  C   UNL     1      22.834  47.706  48.813  1.00  0.00     0.030 A 
HETATM   15  C   UNL     1      21.563  48.145  48.405  1.00  0.00     0.020 A 
HETATM   16  C   UNL     1      21.340  49.484  48.053  1.00  0.00     0.039 A 
HETATM   17  C   UNL     1      22.409  50.380  48.103  1.00  0.00     0.020 A 
HETATM   18  C   UNL     1      23.670  49.940  48.516  1.00  0.00     0.030 A 
BRANCH  16  19
HETATM   19  C   UNL     1      19.965  49.908  47.671  1.00  0.00     0.293 C 
HETATM   20  O   UNL     1      19.686  50.384  46.583  1.00  0.00    -0.259 OA
BRANCH  19  21
HETATM   21  O   UNL     1      19.098  49.658  48.684  1.00  0.00    -0.318 OA
BRANCH  21  22
HETATM   22  C   UNL     1      18.256  50.752  49.080  1.00  0.00     0.174 C 
HETATM   23  C   UNL     1      19.053  51.785  49.853  1.00  0.00     0.034 C 
ENDBRANCH  21  22
ENDBRANCH  19  21
ENDBRANCH  16  19
ENDBRANCH  10  13
ENDBRANCH   8   9
ENDBRANCH   1   8
BRANCH   2  24
HETATM   24  C   UNL     1      25.646  44.854  49.451  1.00  0.00     0.168 C 
BRANCH  24  25
HETATM   25  C   UNL     1      24.752  43.674  49.187  1.00  0.00    -0.023 A 
HETATM   26  C   UNL     1      23.374  43.853  49.107  1.00  0.00     0.125 A 
HETATM   27  N   UNL     1      22.487  42.862  48.864  1.00  0.00    -0.273 NA
HETATM   28  C   UNL     1      23.000  41.630  48.658  1.00  0.00     0.116 A 
HETATM   29  C   UNL     1      24.354  41.348  48.679  1.00  0.00     0.020 A 
HETATM   30  C   UNL     1      25.241  42.389  48.936  1.00  0.00     0.012 A 
ENDBRANCH  24  25
ENDBRANCH   2  24
BRANCH   5  31
HETATM   31  C   UNL     1      28.071  44.489  53.745  1.00  0.00     0.047 A 
HETATM   32  C   UNL     1      28.661  43.214  53.750  1.00  0.00     0.031 A 
HETATM   33  C   UNL     1      29.690  42.879  54.639  1.00  0.00     0.009 A 
HETATM   34  C   UNL     1      30.161  43.810  55.562  1.00  0.00    -0.062 A 
HETATM   35  C   UNL     1      31.303  43.468  56.472  1.00  0.00     0.048 C 
HETATM   36  C   UNL     1      29.591  45.083  55.572  1.00  0.00     0.009 A 
HETATM   37  C   UNL     1      28.555  45.413  54.685  1.00  0.00     0.031 A 
ENDBRANCH   5  31
TORSDOF 9
ENDMDL
MODEL 6
REMARK VINA RESULT:      -9.3      2.354      6.439
REMARK  9 active torsions:
REMARK  status: ('A' for Active; 'I' for Inactive)
REMARK    1  A    between atoms: C_2  and  O_3 
REMARK    2  A    between atoms: O_3  and  C_4 
REMARK    3  A    between atoms: C_4  and  C_5 
REMARK    4  A    between atoms: C_8  and  N_9 
REMARK       I    between atoms: N_9  and  C_10 
REMARK    5  A    between atoms: C_10  and  C_11 
REMARK    6  A    between atoms: C_11  and  C_12 
REMARK    7  A    between atoms: N_13  and  C_14 
REMARK    8  A    between atoms: C_14  and  C_15 
REMARK    9  A    between atoms: N_23  and  C_24 
ROOT
HETATM    1  C   UNL     1      26.788  43.407  52.003  1.00  0.00     0.191 A 
HETATM    2  N   UNL     1      26.669  44.362  53.085  1.00  0.00    -0.315 N 
HETATM    3  C   UNL     1      26.276  45.619  52.644  1.00  0.00     0.333 A 
HETATM    4  O   UNL     1      26.137  46.564  53.407  1.00  0.00    -0.246 OA
HETATM    5  N   UNL     1      26.104  45.574  51.277  1.00  0.00    -0.232 N 
HETATM    6  C   UNL     1      26.346  44.291  50.831  1.00  0.00     0.256 A 
HETATM    7  O   UNL     1      26.241  43.840  49.694  1.00  0.00    -0.270 OA
ENDROOT
BRANCH   1   8
HETATM    8  C   UNL     1      28.186  42.889  51.682  1.00  0.00     0.138 C 
BRANCH   8   9
HETATM    9  C   UNL     1      28.359  41.407  51.855  1.00  0.00     0.224 C 
HETATM   10  N   UNL     1      27.874  40.476  50.997  1.00  0.00    -0.327 N 
HETATM   11  H   UNL     1      27.991  39.552  51.404  1.00  0.00     0.169 HD
HETATM   12  O   UNL     1      28.922  40.983  52.871  1.00  0.00    -0.273 OA
BRANCH  10  13
HETATM   13  C   UNL     1      27.292  40.485  49.721  1.00  0.00     0.034 A 
HETATM   14  C   UNL     1      25.932  40.381  49.441  1.00  0.00     0.030 A 
HETATM   15  C   UNL     1      25.475  40.457  48.114  1.00  0.00     0.020 A 
HETATM   16  C   UNL     1      26.372  40.641  47.052  1.00  0.00     0.039 A 
HETATM   17  C   UNL     1      27.736  40.738  47.331  1.00  0.00     0.020 A 
HETATM   18  C   UNL     1      28.184  40.669  48.653  1.00  0.00     0.030 A 
BRANCH  16  19
HETATM   19  C   UNL     1      25.834  40.760  45.669  1.00  0.00     0.293 C 
HETATM   20  O   UNL     1      26.531  40.719  44.670  1.00  0.00    -0.259 OA
BRANCH  19  21
HETATM   21  O   UNL     1      24.483  40.886  45.699  1.00  0.00    -0.318 OA
BRANCH  21  22
HETATM   22  C   UNL     1      23.948  42.100  45.151  1.00  0.00     0.174 C 
HETATM   23  C   UNL     1      23.139  42.846  46.193  1.00  0.00     0.034 C 
ENDBRANCH  21  22
ENDBRANCH  19  21
ENDBRANCH  16  19
ENDBRANCH  10  13
ENDBRANCH   8   9
ENDBRANCH   1   8
BRANCH   2  24
HETATM   24  C   UNL     1      26.853  44.057  54.498  1.00  0.00     0.168 C 
BRANCH  24  25
HETATM   25  C   UNL     1      28.213  44.406  55.037  1.00  0.00    -0.023 A 
HETATM   26  C   UNL     1      28.390  45.582  55.762  1.00  0.00     0.125 A 
HETATM   27  N   UNL     1      29.566  45.982  56.295  1.00  0.00    -0.273 NA
HETATM   28  C   UNL     1      30.618  45.153  56.126  1.00  0.00     0.116 A 
HETATM   29  C   UNL     1      30.546  43.945  55.454  1.00  0.00     0.020 A 
HETATM   30  C   UNL     1      29.321  43.564  54.913  1.00  0.00     0.012 A 
ENDBRANCH  24  25
ENDBRANCH   2  24
BRANCH   5  31
HETATM   31  C   UNL     1      25.747  46.691  50.462  1.00  0.00     0.047 A 
HETATM   32  C   UNL     1      24.405  47.006  50.194  1.00  0.00     0.031 A 
HETATM   33  C   UNL     1      24.046  48.125  49.432  1.00  0.00     0.009 A 
HETATM   34  C   UNL     1      25.023  48.966  48.904  1.00  0.00    -0.062 A 
HETATM   35  C   UNL     1      24.635  50.196  48.139  1.00  0.00     0.048 C 
HETATM   36  C   UNL     1      26.362  48.673  49.161  1.00  0.00     0.009 A 
HETATM   37  C   UNL     1      26.718  47.547  49.920  1.00  0.00     0.031 A 
ENDBRANCH   5  31
TORSDOF 9
ENDMDL
MODEL 7
REMARK VINA RESULT:      -9.2      2.334      6.003
REMARK  9 active torsions:
REMARK  status: ('A' for Active; 'I' for Inactive)
REMARK    1  A    between atoms: C_2  and  O_3 
REMARK    2  A    between atoms: O_3  and  C_4 
REMARK    3  A    between atoms: C_4  and  C_5 
REMARK    4  A    between atoms: C_8  and  N_9 
REMARK       I    between atoms: N_9  and  C_10 
REMARK    5  A    between atoms: C_10  and  C_11 
REMARK    6  A    between atoms: C_11  and  C_12 
REMARK    7  A    between atoms: N_13  and  C_14 
REMARK    8  A    between atoms: C_14  and  C_15 
REMARK    9  A    between atoms: N_23  and  C_24 
ROOT
HETATM    1  C   UNL     1      26.538  43.531  52.176  1.00  0.00     0.191 A 
HETATM    2  N   UNL     1      26.565  44.523  53.231  1.00  0.00    -0.315 N 
HETATM    3  C   UNL     1      26.282  45.800  52.766  1.00  0.00     0.333 A 
HETATM    4  O   UNL     1      26.274  46.776  53.503  1.00  0.00    -0.246 OA
HETATM    5  N   UNL     1      26.045  45.735  51.410  1.00  0.00    -0.232 N 
HETATM    6  C   UNL     1      26.134  44.422  50.996  1.00  0.00     0.256 A 
HETATM    7  O   UNL     1      25.932  43.952  49.879  1.00  0.00    -0.270 OA
ENDROOT
BRANCH   1   8
HETATM    8  C   UNL     1      27.860  42.863  51.814  1.00  0.00     0.138 C 
BRANCH   8   9
HETATM    9  C   UNL     1      27.923  41.393  52.117  1.00  0.00     0.224 C 
HETATM   10  N   UNL     1      27.696  40.415  51.208  1.00  0.00    -0.327 N 
HETATM   11  H   UNL     1      27.652  39.518  51.683  1.00  0.00     0.169 HD
HETATM   12  O   UNL     1      28.130  41.029  53.281  1.00  0.00    -0.273 OA
BRANCH  10  13
HETATM   13  C   UNL     1      27.537  40.348  49.816  1.00  0.00     0.034 A 
HETATM   14  C   UNL     1      28.551  40.467  48.869  1.00  0.00     0.030 A 
HETATM   15  C   UNL     1      28.260  40.328  47.500  1.00  0.00     0.020 A 
HETATM   16  C   UNL     1      26.955  40.066  47.063  1.00  0.00     0.039 A 
HETATM   17  C   UNL     1      25.937  39.954  48.011  1.00  0.00     0.020 A 
HETATM   18  C   UNL     1      26.232  40.085  49.371  1.00  0.00     0.030 A 
BRANCH  16  19
HETATM   19  C   UNL     1      26.708  39.883  45.606  1.00  0.00     0.293 C 
HETATM   20  O   UNL     1      25.782  40.408  45.010  1.00  0.00    -0.259 OA
BRANCH  19  21
HETATM   21  O   UNL     1      27.665  39.090  45.063  1.00  0.00    -0.318 OA
BRANCH  21  22
HETATM   22  C   UNL     1      27.358  37.690  44.985  1.00  0.00     0.174 C 
HETATM   23  C   UNL     1      28.233  36.899  45.937  1.00  0.00     0.034 C 
ENDBRANCH  21  22
ENDBRANCH  19  21
ENDBRANCH  16  19
ENDBRANCH  10  13
ENDBRANCH   8   9
ENDBRANCH   1   8
BRANCH   2  24
HETATM   24  C   UNL     1      26.781  44.240  54.644  1.00  0.00     0.168 C 
BRANCH  24  25
HETATM   25  C   UNL     1      28.170  44.547  55.133  1.00  0.00    -0.023 A 
HETATM   26  C   UNL     1      28.391  45.664  55.935  1.00  0.00     0.125 A 
HETATM   27  N   UNL     1      29.596  46.022  56.433  1.00  0.00    -0.273 NA
HETATM   28  C   UNL     1      30.634  45.208  56.144  1.00  0.00     0.116 A 
HETATM   29  C   UNL     1      30.520  44.055  55.387  1.00  0.00     0.020 A 
HETATM   30  C   UNL     1      29.266  43.717  54.885  1.00  0.00     0.012 A 
ENDBRANCH  24  25
ENDBRANCH   2  24
BRANCH   5  31
HETATM   31  C   UNL     1      25.766  46.860  50.574  1.00  0.00     0.047 A 
HETATM   32  C   UNL     1      26.796  47.643  50.028  1.00  0.00     0.031 A 
HETATM   33  C   UNL     1      26.531  48.721  49.173  1.00  0.00     0.009 A 
HETATM   34  C   UNL     1      25.221  49.057  48.841  1.00  0.00    -0.062 A 
HETATM   35  C   UNL     1      24.942  50.173  47.879  1.00  0.00     0.048 C 
HETATM   36  C   UNL     1      24.183  48.290  49.371  1.00  0.00     0.009 A 
HETATM   37  C   UNL     1      24.452  47.215  50.232  1.00  0.00     0.031 A 
ENDBRANCH   5  31
TORSDOF 9
ENDMDL
MODEL 8
REMARK VINA RESULT:      -9.1      3.140      7.301
REMARK  9 active torsions:
REMARK  status: ('A' for Active; 'I' for Inactive)
REMARK    1  A    between atoms: C_2  and  O_3 
REMARK    2  A    between atoms: O_3  and  C_4 
REMARK    3  A    between atoms: C_4  and  C_5 
REMARK    4  A    between atoms: C_8  and  N_9 
REMARK       I    between atoms: N_9  and  C_10 
REMARK    5  A    between atoms: C_10  and  C_11 
REMARK    6  A    between atoms: C_11  and  C_12 
REMARK    7  A    between atoms: N_13  and  C_14 
REMARK    8  A    between atoms: C_14  and  C_15 
REMARK    9  A    between atoms: N_23  and  C_24 
ROOT
HETATM    1  C   UNL     1      22.752  45.676  48.965  1.00  0.00     0.191 A 
HETATM    2  N   UNL     1      23.814  46.587  49.339  1.00  0.00    -0.315 N 
HETATM    3  C   UNL     1      23.404  47.913  49.331  1.00  0.00     0.333 A 
HETATM    4  O   UNL     1      24.162  48.834  49.601  1.00  0.00    -0.246 OA
HETATM    5  N   UNL     1      22.074  47.962  48.971  1.00  0.00    -0.232 N 
HETATM    6  C   UNL     1      21.607  46.678  48.782  1.00  0.00     0.256 A 
HETATM    7  O   UNL     1      20.468  46.306  48.513  1.00  0.00    -0.270 OA
ENDROOT
BRANCH   1   8
HETATM    8  C   UNL     1      22.913  44.919  47.651  1.00  0.00     0.138 C 
BRANCH   8   9
HETATM    9  C   UNL     1      22.275  43.560  47.629  1.00  0.00     0.224 C 
HETATM   10  N   UNL     1      22.884  42.423  48.045  1.00  0.00    -0.327 N 
HETATM   11  H   UNL     1      22.309  41.624  47.795  1.00  0.00     0.169 HD
HETATM   12  O   UNL     1      21.144  43.436  47.144  1.00  0.00    -0.273 OA
BRANCH  10  13
HETATM   13  C   UNL     1      24.064  42.104  48.732  1.00  0.00     0.034 A 
HETATM   14  C   UNL     1      24.274  42.232  50.103  1.00  0.00     0.030 A 
HETATM   15  C   UNL     1      25.493  41.824  50.673  1.00  0.00     0.020 A 
HETATM   16  C   UNL     1      26.514  41.282  49.880  1.00  0.00     0.039 A 
HETATM   17  C   UNL     1      26.308  41.161  48.505  1.00  0.00     0.020 A 
HETATM   18  C   UNL     1      25.092  41.561  47.945  1.00  0.00     0.030 A 
BRANCH  16  19
HETATM   19  C   UNL     1      27.769  40.825  50.538  1.00  0.00     0.293 C 
HETATM   20  O   UNL     1      28.645  40.205  49.960  1.00  0.00    -0.259 OA
BRANCH  19  21
HETATM   21  O   UNL     1      27.792  41.225  51.835  1.00  0.00    -0.318 OA
BRANCH  21  22
HETATM   22  C   UNL     1      28.848  42.127  52.200  1.00  0.00     0.174 C 
HETATM   23  C   UNL     1      28.346  43.557  52.219  1.00  0.00     0.034 C 
ENDBRANCH  21  22
ENDBRANCH  19  21
ENDBRANCH  16  19
ENDBRANCH  10  13
ENDBRANCH   8   9
ENDBRANCH   1   8
BRANCH   2  24
HETATM   24  C   UNL     1      25.152  46.191  49.760  1.00  0.00     0.168 C 
BRANCH  24  25
HETATM   25  C   UNL     1      25.333  46.100  51.250  1.00  0.00    -0.023 A 
HETATM   26  C   UNL     1      24.802  45.018  51.948  1.00  0.00     0.125 A 
HETATM   27  N   UNL     1      24.917  44.839  53.283  1.00  0.00    -0.273 NA
HETATM   28  C   UNL     1      25.626  45.769  53.958  1.00  0.00     0.116 A 
HETATM   29  C   UNL     1      26.226  46.863  53.359  1.00  0.00     0.020 A 
HETATM   30  C   UNL     1      26.085  47.022  51.984  1.00  0.00     0.012 A 
ENDBRANCH  24  25
ENDBRANCH   2  24
BRANCH   5  31
HETATM   31  C   UNL     1      21.315  49.162  48.809  1.00  0.00     0.047 A 
HETATM   32  C   UNL     1      20.809  49.549  47.557  1.00  0.00     0.031 A 
HETATM   33  C   UNL     1      20.028  50.701  47.399  1.00  0.00     0.009 A 
HETATM   34  C   UNL     1      19.732  51.512  48.493  1.00  0.00    -0.062 A 
HETATM   35  C   UNL     1      18.847  52.711  48.332  1.00  0.00     0.048 C 
HETATM   36  C   UNL     1      20.222  51.144  49.746  1.00  0.00     0.009 A 
HETATM   37  C   UNL     1      21.010  49.993  49.899  1.00  0.00     0.031 A 
ENDBRANCH   5  31
TORSDOF 9
ENDMDL
MODEL 9
REMARK VINA RESULT:      -9.1     17.355     19.973
REMARK  9 active torsions:
REMARK  status: ('A' for Active; 'I' for Inactive)
REMARK    1  A    between atoms: C_2  and  O_3 
REMARK    2  A    between atoms: O_3  and  C_4 
REMARK    3  A    between atoms: C_4  and  C_5 
REMARK    4  A    between atoms: C_8  and  N_9 
REMARK       I    between atoms: N_9  and  C_10 
REMARK    5  A    between atoms: C_10  and  C_11 
REMARK    6  A    between atoms: C_11  and  C_12 
REMARK    7  A    between atoms: N_13  and  C_14 
REMARK    8  A    between atoms: C_14  and  C_15 
REMARK    9  A    between atoms: N_23  and  C_24 
ROOT
HETATM    1  C   UNL     1      37.372  43.584  64.896  1.00  0.00     0.191 A 
HETATM    2  N   UNL     1      38.645  44.105  64.441  1.00  0.00    -0.315 N 
HETATM    3  C   UNL     1      39.599  43.109  64.279  1.00  0.00     0.333 A 
HETATM    4  O   UNL     1      40.741  43.352  63.917  1.00  0.00    -0.246 OA
HETATM    5  N   UNL     1      39.028  41.895  64.596  1.00  0.00    -0.232 N 
HETATM    6  C   UNL     1      37.703  42.088  64.927  1.00  0.00     0.256 A 
HETATM    7  O   UNL     1      36.851  41.250  65.211  1.00  0.00    -0.270 OA
ENDROOT
BRANCH   1   8
HETATM    8  C   UNL     1      36.916  43.982  66.295  1.00  0.00     0.138 C 
BRANCH   8   9
HETATM    9  C   UNL     1      35.520  44.529  66.367  1.00  0.00     0.224 C 
HETATM   10  N   UNL     1      35.220  45.844  66.504  1.00  0.00    -0.327 N 
HETATM   11  H   UNL     1      34.224  45.945  66.676  1.00  0.00     0.169 HD
HETATM   12  O   UNL     1      34.566  43.742  66.368  1.00  0.00    -0.273 OA
BRANCH  10  13
HETATM   13  C   UNL     1      35.930  47.052  66.446  1.00  0.00     0.034 A 
HETATM   14  C   UNL     1      36.349  47.809  67.537  1.00  0.00     0.030 A 
HETATM   15  C   UNL     1      37.102  48.980  67.338  1.00  0.00     0.020 A 
HETATM   16  C   UNL     1      37.447  49.405  66.048  1.00  0.00     0.039 A 
HETATM   17  C   UNL     1      37.021  48.651  64.954  1.00  0.00     0.020 A 
HETATM   18  C   UNL     1      36.279  47.484  65.157  1.00  0.00     0.030 A 
BRANCH  16  19
HETATM   19  C   UNL     1      38.284  50.627  65.893  1.00  0.00     0.293 C 
HETATM   20  O   UNL     1      39.467  50.600  65.598  1.00  0.00    -0.259 OA
BRANCH  19  21
HETATM   21  O   UNL     1      37.533  51.739  66.097  1.00  0.00    -0.318 OA
BRANCH  21  22
HETATM   22  C   UNL     1      38.104  52.739  66.954  1.00  0.00     0.174 C 
HETATM   23  C   UNL     1      37.769  54.129  66.450  1.00  0.00     0.034 C 
ENDBRANCH  21  22
ENDBRANCH  19  21
ENDBRANCH  16  19
ENDBRANCH  10  13
ENDBRANCH   8   9
ENDBRANCH   1   8
BRANCH   2  24
HETATM   24  C   UNL     1      38.911  45.498  64.106  1.00  0.00     0.168 C 
BRANCH  24  25
HETATM   25  C   UNL     1      39.791  46.217  65.092  1.00  0.00    -0.023 A 
HETATM   26  C   UNL     1      40.873  46.966  64.637  1.00  0.00     0.125 A 
HETATM   27  N   UNL     1      41.716  47.655  65.438  1.00  0.00    -0.273 NA
HETATM   28  C   UNL     1      41.452  47.625  66.761  1.00  0.00     0.116 A 
HETATM   29  C   UNL     1      40.384  46.942  67.316  1.00  0.00     0.020 A 
HETATM   30  C   UNL     1      39.536  46.239  66.466  1.00  0.00     0.012 A 
ENDBRANCH  24  25
ENDBRANCH   2  24
BRANCH   5  31
HETATM   31  C   UNL     1      39.717  40.643  64.592  1.00  0.00     0.047 A 
HETATM   32  C   UNL     1      39.678  39.787  63.479  1.00  0.00     0.031 A 
HETATM   33  C   UNL     1      40.387  38.578  63.451  1.00  0.00     0.009 A 
HETATM   34  C   UNL     1      41.155  38.181  64.543  1.00  0.00    -0.062 A 
HETATM   35  C   UNL     1      41.959  36.918  64.488  1.00  0.00     0.048 C 
HETATM   36  C   UNL     1      41.210  39.020  65.658  1.00  0.00     0.009 A 
HETATM   37  C   UNL     1      40.493  40.226  65.684  1.00  0.00     0.031 A 
ENDBRANCH   5  31
TORSDOF 9
ENDMDL
MODEL 10
REMARK VINA RESULT:      -9.1      6.157     10.683
REMARK  9 active torsions:
REMARK  status: ('A' for Active; 'I' for Inactive)
REMARK    1  A    between atoms: C_2  and  O_3 
REMARK    2  A    between atoms: O_3  and  C_4 
REMARK    3  A    between atoms: C_4  and  C_5 
REMARK    4  A    between atoms: C_8  and  N_9 
REMARK       I    between atoms: N_9  and  C_10 
REMARK    5  A    between atoms: C_10  and  C_11 
REMARK    6  A    between atoms: C_11  and  C_12 
REMARK    7  A    between atoms: N_13  and  C_14 
REMARK    8  A    between atoms: C_14  and  C_15 
REMARK    9  A    between atoms: N_23  and  C_24 
ROOT
HETATM    1  C   UNL     1      21.361  45.825  47.894  1.00  0.00     0.191 A 
HETATM    2  N   UNL     1      21.953  47.129  48.106  1.00  0.00    -0.315 N 
HETATM    3  C   UNL     1      23.117  47.068  48.861  1.00  0.00     0.333 A 
HETATM    4  O   UNL     1      23.754  48.067  49.162  1.00  0.00    -0.246 OA
HETATM    5  N   UNL     1      23.370  45.750  49.178  1.00  0.00    -0.232 N 
HETATM    6  C   UNL     1      22.401  44.952  48.605  1.00  0.00     0.256 A 
HETATM    7  O   UNL     1      22.312  43.727  48.610  1.00  0.00    -0.270 OA
ENDROOT
BRANCH   1   8
HETATM    8  C   UNL     1      20.012  45.556  48.550  1.00  0.00     0.138 C 
BRANCH   8   9
HETATM    9  C   UNL     1      18.965  45.004  47.626  1.00  0.00     0.224 C 
HETATM   10  N   UNL     1      17.842  45.669  47.260  1.00  0.00    -0.327 N 
HETATM   11  H   UNL     1      17.227  45.038  46.754  1.00  0.00     0.169 HD
HETATM   12  O   UNL     1      19.080  43.845  47.211  1.00  0.00    -0.273 OA
BRANCH  10  13
HETATM   13  C   UNL     1      17.358  46.979  47.389  1.00  0.00     0.034 A 
HETATM   14  C   UNL     1      16.466  47.431  48.359  1.00  0.00     0.030 A 
HETATM   15  C   UNL     1      16.101  48.787  48.407  1.00  0.00     0.020 A 
HETATM   16  C   UNL     1      16.624  49.708  47.489  1.00  0.00     0.039 A 
HETATM   17  C   UNL     1      17.512  49.255  46.512  1.00  0.00     0.020 A 
HETATM   18  C   UNL     1      17.877  47.907  46.473  1.00  0.00     0.030 A 
BRANCH  16  19
HETATM   19  C   UNL     1      16.240  51.142  47.611  1.00  0.00     0.293 C 
HETATM   20  O   UNL     1      16.559  51.995  46.799  1.00  0.00    -0.259 OA
BRANCH  19  21
HETATM   21  O   UNL     1      15.477  51.332  48.716  1.00  0.00    -0.318 OA
BRANCH  21  22
HETATM   22  C   UNL     1      15.781  52.494  49.502  1.00  0.00     0.174 C 
HETATM   23  C   UNL     1      14.592  52.886  50.358  1.00  0.00     0.034 C 
ENDBRANCH  21  22
ENDBRANCH  19  21
ENDBRANCH  16  19
ENDBRANCH  10  13
ENDBRANCH   8   9
ENDBRANCH   1   8
BRANCH   2  24
HETATM   24  C   UNL     1      21.458  48.379  47.543  1.00  0.00     0.168 C 
BRANCH  24  25
HETATM   25  C   UNL     1      20.589  49.178  48.474  1.00  0.00    -0.023 A 
HETATM   26  C   UNL     1      19.951  48.547  49.539  1.00  0.00     0.125 A 
HETATM   27  N   UNL     1      19.159  49.176  50.437  1.00  0.00    -0.273 NA
HETATM   28  C   UNL     1      19.017  50.510  50.287  1.00  0.00     0.116 A 
HETATM   29  C   UNL     1      19.633  51.241  49.286  1.00  0.00     0.020 A 
HETATM   30  C   UNL     1      20.439  50.564  48.375  1.00  0.00     0.012 A 
ENDBRANCH  24  25
ENDBRANCH   2  24
BRANCH   5  31
HETATM   31  C   UNL     1      24.459  45.298  49.985  1.00  0.00     0.047 A 
HETATM   32  C   UNL     1      25.768  45.230  49.482  1.00  0.00     0.031 A 
HETATM   33  C   UNL     1      26.847  44.830  50.280  1.00  0.00     0.009 A 
HETATM   34  C   UNL     1      26.650  44.476  51.613  1.00  0.00    -0.062 A 
HETATM   35  C   UNL     1      27.814  44.105  52.482  1.00  0.00     0.048 C 
HETATM   36  C   UNL     1      25.357  44.540  52.134  1.00  0.00     0.009 A 
HETATM   37  C   UNL     1      24.278  44.935  51.328  1.00  0.00     0.031 A 
ENDBRANCH   5  31
TORSDOF 9
ENDMDL
