MODEL 1
REMARK VINA RESULT:      -9.6      0.000      0.000
REMARK  5 active torsions:
REMARK  status: ('A' for Active; 'I' for Inactive)
REMARK    1  A    between atoms: C_2  and  C_3 
REMARK    2  A    between atoms: C_6  and  N_7 
REMARK       I    between atoms: N_7  and  C_8 
REMARK       I    between atoms: C_8  and  N_9 
REMARK    3  A    between atoms: N_9  and  C_10 
REMARK    4  A    between atoms: N_20  and  N_21 
REMARK       I    between atoms: N_21  and  C_22 
REMARK    5  A    between atoms: C_22  and  C_23 
ROOT
HETATM    1  C   UNL     1      26.116  47.811  49.862  1.00  0.00    -0.010 A 
HETATM    2  C   UNL     1      26.755  46.621  49.503  1.00  0.00     0.016 A 
HETATM    3  C   UNL     1      26.681  45.506  50.346  1.00  0.00     0.030 A 
HETATM    4  C   UNL     1      25.971  45.578  51.550  1.00  0.00     0.036 A 
HETATM    5  C   UNL     1      25.362  46.783  51.916  1.00  0.00     0.030 A 
HETATM    6  C   UNL     1      25.406  47.887  51.063  1.00  0.00     0.016 A 
ENDROOT
BRANCH   1   7
HETATM    7  C   UNL     1      26.175  49.001  48.973  1.00  0.00     0.061 C 
HETATM    8  C   UNL     1      27.521  49.675  48.824  1.00  0.00     0.073 C 
HETATM    9  N   UNL     1      25.189  49.493  48.282  1.00  0.00    -0.176 NA
BRANCH   9  10
HETATM   10  N   UNL     1      23.933  48.991  48.455  1.00  0.00    -0.243 N 
HETATM   11  C   UNL     1      22.968  49.754  49.097  1.00  0.00     0.273 C 
HETATM   12  O   UNL     1      23.145  50.877  49.561  1.00  0.00    -0.266 OA
HETATM   13  H   UNL     1      23.777  48.015  48.240  1.00  0.00     0.192 HD
BRANCH  11  14
HETATM   14  C   UNL     1      21.621  49.140  49.214  1.00  0.00     0.051 A 
HETATM   15  C   UNL     1      21.329  47.866  48.742  1.00  0.00     0.133 A 
HETATM   16  N   UNL     1      20.107  47.284  48.824  1.00  0.00    -0.272 NA
HETATM   17  C   UNL     1      19.122  48.021  49.382  1.00  0.00     0.116 A 
HETATM   18  C   UNL     1      19.301  49.309  49.860  1.00  0.00     0.020 A 
HETATM   19  C   UNL     1      20.571  49.875  49.770  1.00  0.00     0.020 A 
ENDBRANCH  11  14
ENDBRANCH   9  10
ENDBRANCH   1   7
BRANCH   4  20
HETATM   20  N   UNL     1      25.882  44.519  52.466  1.00  0.00    -0.309 N 
HETATM   21  C   UNL     1      26.624  44.174  53.563  1.00  0.00     0.325 C 
HETATM   22  N   UNL     1      27.877  44.723  53.648  1.00  0.00    -0.309 N 
HETATM   23  O   UNL     1      26.155  43.323  54.315  1.00  0.00    -0.247 OA
HETATM   24  H   UNL     1      28.166  45.264  52.849  1.00  0.00     0.170 HD
HETATM   25  H   UNL     1      25.149  43.837  52.307  1.00  0.00     0.170 HD
BRANCH  22  26
HETATM   26  C   UNL     1      28.890  44.414  54.578  1.00  0.00     0.036 A 
HETATM   27  C   UNL     1      29.610  43.215  54.585  1.00  0.00     0.031 A 
HETATM   28  C   UNL     1      30.643  43.010  55.508  1.00  0.00     0.026 A 
HETATM   29  C   UNL     1      30.952  43.998  56.437  1.00  0.00     0.034 A 
HETATM   30 CL   UNL     1      32.231  43.751  57.560  1.00  0.00    -0.084 Cl
HETATM   31  C   UNL     1      30.231  45.188  56.458  1.00  0.00     0.026 A 
HETATM   32  C   UNL     1      29.204  45.394  55.531  1.00  0.00     0.031 A 
ENDBRANCH  22  26
ENDBRANCH   4  20
TORSDOF 5
ENDMDL
MODEL 2
REMARK VINA RESULT:      -9.4      2.176      2.930
REMARK  5 active torsions:
REMARK  status: ('A' for Active; 'I' for Inactive)
REMARK    1  A    between atoms: C_2  and  C_3 
REMARK    2  A    between atoms: C_6  and  N_7 
REMARK       I    between atoms: N_7  and  C_8 
REMARK       I    between atoms: C_8  and  N_9 
REMARK    3  A    between atoms: N_9  and  C_10 
REMARK    4  A    between atoms: N_20  and  N_21 
REMARK       I    between atoms: N_21  and  C_22 
REMARK    5  A    between atoms: C_22  and  C_23 
ROOT
HETATM    1  C   UNL     1      24.420  45.583  50.362  1.00  0.00    -0.010 A 
HETATM    2  C   UNL     1      25.012  46.847  50.279  1.00  0.00     0.016 A 
HETATM    3  C   UNL     1      25.599  47.420  51.414  1.00  0.00     0.030 A 
HETATM    4  C   UNL     1      25.592  46.734  52.634  1.00  0.00     0.036 A 
HETATM    5  C   UNL     1      24.969  45.484  52.714  1.00  0.00     0.030 A 
HETATM    6  C   UNL     1      24.413  44.895  51.578  1.00  0.00     0.016 A 
ENDROOT
BRANCH   1   7
HETATM    7  C   UNL     1      23.804  44.955  49.164  1.00  0.00     0.061 C 
HETATM    8  C   UNL     1      24.586  43.844  48.498  1.00  0.00     0.073 C 
HETATM    9  N   UNL     1      22.639  45.242  48.660  1.00  0.00    -0.176 NA
BRANCH   9  10
HETATM   10  N   UNL     1      21.937  46.300  49.156  1.00  0.00    -0.243 N 
HETATM   11  C   UNL     1      21.864  47.480  48.429  1.00  0.00     0.273 C 
HETATM   12  O   UNL     1      22.408  47.680  47.347  1.00  0.00    -0.266 OA
HETATM   13  H   UNL     1      21.607  46.246  50.110  1.00  0.00     0.192 HD
BRANCH  11  14
HETATM   14  C   UNL     1      21.053  48.568  49.031  1.00  0.00     0.051 A 
HETATM   15  C   UNL     1      19.724  48.402  49.403  1.00  0.00     0.133 A 
HETATM   16  N   UNL     1      18.955  49.380  49.943  1.00  0.00    -0.272 NA
HETATM   17  C   UNL     1      19.535  50.591  50.096  1.00  0.00     0.116 A 
HETATM   18  C   UNL     1      20.844  50.868  49.733  1.00  0.00     0.020 A 
HETATM   19  C   UNL     1      21.611  49.839  49.190  1.00  0.00     0.020 A 
ENDBRANCH  11  14
ENDBRANCH   9  10
ENDBRANCH   1   7
BRANCH   4  20
HETATM   20  N   UNL     1      26.124  47.256  53.822  1.00  0.00    -0.309 N 
HETATM   21  C   UNL     1      27.258  46.975  54.534  1.00  0.00     0.325 C 
HETATM   22  N   UNL     1      27.852  45.767  54.281  1.00  0.00    -0.309 N 
HETATM   23  O   UNL     1      27.583  47.771  55.412  1.00  0.00    -0.247 OA
HETATM   24  H   UNL     1      27.348  45.161  53.653  1.00  0.00     0.170 HD
HETATM   25  H   UNL     1      25.580  47.971  54.292  1.00  0.00     0.170 HD
BRANCH  22  26
HETATM   26  C   UNL     1      28.924  45.171  54.979  1.00  0.00     0.036 A 
HETATM   27  C   UNL     1      29.549  45.742  56.092  1.00  0.00     0.031 A 
HETATM   28  C   UNL     1      30.568  45.058  56.765  1.00  0.00     0.026 A 
HETATM   29  C   UNL     1      30.977  43.805  56.319  1.00  0.00     0.034 A 
HETATM   30 CL   UNL     1      32.219  42.959  57.156  1.00  0.00    -0.084 Cl
HETATM   31  C   UNL     1      30.380  43.233  55.201  1.00  0.00     0.026 A 
HETATM   32  C   UNL     1      29.357  43.914  54.533  1.00  0.00     0.031 A 
ENDBRANCH  22  26
ENDBRANCH   4  20
TORSDOF 5
ENDMDL
MODEL 3
REMARK VINA RESULT:      -9.0      4.063     10.155
REMARK  5 active torsions:
REMARK  status: ('A' for Active; 'I' for Inactive)
REMARK    1  A    between atoms: C_2  and  C_3 
REMARK    2  A    between atoms: C_6  and  N_7 
REMARK       I    between atoms: N_7  and  C_8 
REMARK       I    between atoms: C_8  and  N_9 
REMARK    3  A    between atoms: N_9  and  C_10 
REMARK    4  A    between atoms: N_20  and  N_21 
REMARK       I    between atoms: N_21  and  C_22 
REMARK    5  A    between atoms: C_22  and  C_23 
ROOT
HETATM    1  C   UNL     1      26.493  43.139  51.341  1.00  0.00    -0.010 A 
HETATM    2  C   UNL     1      25.459  43.700  52.097  1.00  0.00     0.016 A 
HETATM    3  C   UNL     1      25.021  45.002  51.823  1.00  0.00     0.030 A 
HETATM    4  C   UNL     1      25.616  45.745  50.797  1.00  0.00     0.036 A 
HETATM    5  C   UNL     1      26.672  45.186  50.069  1.00  0.00     0.030 A 
HETATM    6  C   UNL     1      27.089  43.878  50.316  1.00  0.00     0.016 A 
ENDROOT
BRANCH   1   7
HETATM    7  C   UNL     1      26.962  41.755  51.611  1.00  0.00     0.061 C 
HETATM    8  C   UNL     1      26.538  40.687  50.626  1.00  0.00     0.073 C 
HETATM    9  N   UNL     1      27.735  41.382  52.589  1.00  0.00    -0.176 NA
BRANCH   9  10
HETATM   10  N   UNL     1      28.064  42.279  53.561  1.00  0.00    -0.243 N 
HETATM   11  C   UNL     1      29.366  42.754  53.648  1.00  0.00     0.273 C 
HETATM   12  O   UNL     1      30.293  42.417  52.918  1.00  0.00    -0.266 OA
HETATM   13  H   UNL     1      27.384  42.466  54.286  1.00  0.00     0.192 HD
BRANCH  11  14
HETATM   14  C   UNL     1      29.627  43.751  54.717  1.00  0.00     0.051 A 
HETATM   15  C   UNL     1      28.892  44.923  54.852  1.00  0.00     0.133 A 
HETATM   16  N   UNL     1      29.116  45.856  55.810  1.00  0.00    -0.272 NA
HETATM   17  C   UNL     1      30.140  45.619  56.659  1.00  0.00     0.116 A 
HETATM   18  C   UNL     1      30.949  44.496  56.594  1.00  0.00     0.020 A 
HETATM   19  C   UNL     1      30.687  43.551  55.605  1.00  0.00     0.020 A 
ENDBRANCH  11  14
ENDBRANCH   9  10
ENDBRANCH   1   7
BRANCH   4  20
HETATM   20  N   UNL     1      25.261  47.066  50.487  1.00  0.00    -0.309 N 
HETATM   21  C   UNL     1      24.129  47.623  49.956  1.00  0.00     0.325 C 
HETATM   22  N   UNL     1      23.291  46.774  49.283  1.00  0.00    -0.309 N 
HETATM   23  O   UNL     1      24.016  48.844  50.027  1.00  0.00    -0.247 OA
HETATM   24  H   UNL     1      23.630  45.831  49.171  1.00  0.00     0.170 HD
HETATM   25  H   UNL     1      25.960  47.781  50.655  1.00  0.00     0.170 HD
BRANCH  22  26
HETATM   26  C   UNL     1      22.157  47.112  48.516  1.00  0.00     0.036 A 
HETATM   27  C   UNL     1      21.251  48.121  48.857  1.00  0.00     0.031 A 
HETATM   28  C   UNL     1      20.182  48.435  48.010  1.00  0.00     0.026 A 
HETATM   29  C   UNL     1      20.005  47.731  46.823  1.00  0.00     0.034 A 
HETATM   30 CL   UNL     1      18.699  48.128  45.776  1.00  0.00    -0.084 Cl
HETATM   31  C   UNL     1      20.884  46.710  46.479  1.00  0.00     0.026 A 
HETATM   32  C   UNL     1      21.957  46.402  47.322  1.00  0.00     0.031 A 
ENDBRANCH  22  26
ENDBRANCH   4  20
TORSDOF 5
ENDMDL
MODEL 4
REMARK VINA RESULT:      -8.9      4.310      9.850
REMARK  5 active torsions:
REMARK  status: ('A' for Active; 'I' for Inactive)
REMARK    1  A    between atoms: C_2  and  C_3 
REMARK    2  A    between atoms: C_6  and  N_7 
REMARK       I    between atoms: N_7  and  C_8 
REMARK       I    between atoms: C_8  and  N_9 
REMARK    3  A    between atoms: N_9  and  C_10 
REMARK    4  A    between atoms: N_20  and  N_21 
REMARK       I    between atoms: N_21  and  C_22 
REMARK    5  A    between atoms: C_22  and  C_23 
ROOT
HETATM    1  C   UNL     1      25.892  46.243  52.280  1.00  0.00    -0.010 A 
HETATM    2  C   UNL     1      24.949  45.248  52.004  1.00  0.00     0.016 A 
HETATM    3  C   UNL     1      24.157  45.336  50.853  1.00  0.00     0.030 A 
HETATM    4  C   UNL     1      24.302  46.419  49.978  1.00  0.00     0.036 A 
HETATM    5  C   UNL     1      25.226  47.425  50.280  1.00  0.00     0.030 A 
HETATM    6  C   UNL     1      26.040  47.325  51.409  1.00  0.00     0.016 A 
ENDROOT
BRANCH   1   7
HETATM    7  C   UNL     1      26.749  46.159  53.492  1.00  0.00     0.061 C 
HETATM    8  C   UNL     1      26.634  47.292  54.488  1.00  0.00     0.073 C 
HETATM    9  N   UNL     1      27.557  45.186  53.795  1.00  0.00    -0.176 NA
BRANCH   9  10
HETATM   10  N   UNL     1      27.777  44.191  52.889  1.00  0.00    -0.243 N 
HETATM   11  C   UNL     1      27.696  42.865  53.290  1.00  0.00     0.273 C 
HETATM   12  O   UNL     1      27.456  42.483  54.432  1.00  0.00    -0.266 OA
HETATM   13  H   UNL     1      28.136  44.447  51.979  1.00  0.00     0.192 HD
BRANCH  11  14
HETATM   14  C   UNL     1      27.919  41.848  52.231  1.00  0.00     0.051 A 
HETATM   15  C   UNL     1      28.757  40.752  52.402  1.00  0.00     0.133 A 
HETATM   16  N   UNL     1      28.991  39.815  51.450  1.00  0.00    -0.272 NA
HETATM   17  C   UNL     1      28.377  39.996  50.260  1.00  0.00     0.116 A 
HETATM   18  C   UNL     1      27.543  41.067  49.979  1.00  0.00     0.020 A 
HETATM   19  C   UNL     1      27.316  42.007  50.981  1.00  0.00     0.020 A 
ENDBRANCH  11  14
ENDBRANCH   9  10
ENDBRANCH   1   7
BRANCH   4  20
HETATM   20  N   UNL     1      23.522  46.598  48.826  1.00  0.00    -0.309 N 
HETATM   21  C   UNL     1      22.643  47.574  48.443  1.00  0.00     0.325 C 
HETATM   22  N   UNL     1      22.141  48.368  49.440  1.00  0.00    -0.309 N 
HETATM   23  O   UNL     1      22.292  47.585  47.265  1.00  0.00    -0.247 OA
HETATM   24  H   UNL     1      22.404  48.103  50.376  1.00  0.00     0.170 HD
HETATM   25  H   UNL     1      23.573  45.872  48.120  1.00  0.00     0.170 HD
BRANCH  22  26
HETATM   26  C   UNL     1      21.113  49.329  49.341  1.00  0.00     0.036 A 
HETATM   27  C   UNL     1      19.807  49.130  49.796  1.00  0.00     0.031 A 
HETATM   28  C   UNL     1      18.860  50.158  49.714  1.00  0.00     0.026 A 
HETATM   29  C   UNL     1      19.212  51.386  49.163  1.00  0.00     0.034 A 
HETATM   30 CL   UNL     1      18.051  52.653  49.077  1.00  0.00    -0.084 Cl
HETATM   31  C   UNL     1      20.502  51.593  48.686  1.00  0.00     0.026 A 
HETATM   32  C   UNL     1      21.449  50.568  48.775  1.00  0.00     0.031 A 
ENDBRANCH  22  26
ENDBRANCH   4  20
TORSDOF 5
ENDMDL
MODEL 5
REMARK VINA RESULT:      -8.5      4.202     10.030
REMARK  5 active torsions:
REMARK  status: ('A' for Active; 'I' for Inactive)
REMARK    1  A    between atoms: C_2  and  C_3 
REMARK    2  A    between atoms: C_6  and  N_7 
REMARK       I    between atoms: N_7  and  C_8 
REMARK       I    between atoms: C_8  and  N_9 
REMARK    3  A    between atoms: N_9  and  C_10 
REMARK    4  A    between atoms: N_20  and  N_21 
REMARK       I    between atoms: N_21  and  C_22 
REMARK    5  A    between atoms: C_22  and  C_23 
ROOT
HETATM    1  C   UNL     1      23.853  44.888  50.132  1.00  0.00    -0.010 A 
HETATM    2  C   UNL     1      22.995  45.382  49.146  1.00  0.00     0.016 A 
HETATM    3  C   UNL     1      23.010  46.746  48.826  1.00  0.00     0.030 A 
HETATM    4  C   UNL     1      23.880  47.617  49.492  1.00  0.00     0.036 A 
HETATM    5  C   UNL     1      24.712  47.117  50.500  1.00  0.00     0.030 A 
HETATM    6  C   UNL     1      24.723  45.754  50.799  1.00  0.00     0.016 A 
ENDROOT
BRANCH   1   7
HETATM    7  C   UNL     1      23.858  43.442  50.476  1.00  0.00     0.061 C 
HETATM    8  C   UNL     1      23.003  42.534  49.618  1.00  0.00     0.073 C 
HETATM    9  N   UNL     1      24.557  42.878  51.417  1.00  0.00    -0.176 NA
BRANCH   9  10
HETATM   10  N   UNL     1      25.265  43.657  52.283  1.00  0.00    -0.243 N 
HETATM   11  C   UNL     1      26.586  43.343  52.572  1.00  0.00     0.273 C 
HETATM   12  O   UNL     1      27.200  42.380  52.120  1.00  0.00    -0.266 OA
HETATM   13  H   UNL     1      24.764  44.363  52.807  1.00  0.00     0.192 HD
BRANCH  11  14
HETATM   14  C   UNL     1      27.288  44.263  53.502  1.00  0.00     0.051 A 
HETATM   15  C   UNL     1      28.491  43.940  54.119  1.00  0.00     0.133 A 
HETATM   16  N   UNL     1      29.148  44.754  54.981  1.00  0.00    -0.272 NA
HETATM   17  C   UNL     1      28.562  45.939  55.261  1.00  0.00     0.116 A 
HETATM   18  C   UNL     1      27.353  46.346  54.720  1.00  0.00     0.020 A 
HETATM   19  C   UNL     1      26.707  45.491  53.830  1.00  0.00     0.020 A 
ENDBRANCH  11  14
ENDBRANCH   9  10
ENDBRANCH   1   7
BRANCH   4  20
HETATM   20  N   UNL     1      23.928  48.998  49.256  1.00  0.00    -0.309 N 
HETATM   21  C   UNL     1      23.000  49.996  49.386  1.00  0.00     0.325 C 
HETATM   22  N   UNL     1      21.688  49.605  49.432  1.00  0.00    -0.309 N 
HETATM   23  O   UNL     1      23.408  51.154  49.337  1.00  0.00    -0.247 OA
HETATM   24  H   UNL     1      21.525  48.622  49.281  1.00  0.00     0.170 HD
HETATM   25  H   UNL     1      24.800  49.372  48.897  1.00  0.00     0.170 HD
BRANCH  22  26
HETATM   26  C   UNL     1      20.543  50.427  49.402  1.00  0.00     0.036 A 
HETATM   27  C   UNL     1      20.410  51.558  48.591  1.00  0.00     0.031 A 
HETATM   28  C   UNL     1      19.216  52.288  48.577  1.00  0.00     0.026 A 
HETATM   29  C   UNL     1      18.152  51.898  49.385  1.00  0.00     0.034 A 
HETATM   30 CL   UNL     1      16.680  52.788  49.356  1.00  0.00    -0.084 Cl
HETATM   31  C   UNL     1      18.276  50.789  50.214  1.00  0.00     0.026 A 
HETATM   32  C   UNL     1      19.467  50.055  50.222  1.00  0.00     0.031 A 
ENDBRANCH  22  26
ENDBRANCH   4  20
TORSDOF 5
ENDMDL
MODEL 6
REMARK VINA RESULT:      -8.5      6.003      9.790
REMARK  5 active torsions:
REMARK  status: ('A' for Active; 'I' for Inactive)
REMARK    1  A    between atoms: C_2  and  C_3 
REMARK    2  A    between atoms: C_6  and  N_7 
REMARK       I    between atoms: N_7  and  C_8 
REMARK       I    between atoms: C_8  and  N_9 
REMARK    3  A    between atoms: N_9  and  C_10 
REMARK    4  A    between atoms: N_20  and  N_21 
REMARK       I    between atoms: N_21  and  C_22 
REMARK    5  A    between atoms: C_22  and  C_23 
ROOT
HETATM    1  C   UNL     1      27.469  43.304  52.196  1.00  0.00    -0.010 A 
HETATM    2  C   UNL     1      26.716  42.278  51.618  1.00  0.00     0.016 A 
HETATM    3  C   UNL     1      27.284  41.011  51.437  1.00  0.00     0.030 A 
HETATM    4  C   UNL     1      28.606  40.768  51.831  1.00  0.00     0.036 A 
HETATM    5  C   UNL     1      29.360  41.810  52.380  1.00  0.00     0.030 A 
HETATM    6  C   UNL     1      28.788  43.065  52.592  1.00  0.00     0.016 A 
ENDROOT
BRANCH   1   7
HETATM    7  C   UNL     1      26.878  44.651  52.406  1.00  0.00     0.061 C 
HETATM    8  C   UNL     1      25.971  45.175  51.314  1.00  0.00     0.073 C 
HETATM    9  N   UNL     1      27.034  45.405  53.455  1.00  0.00    -0.176 NA
BRANCH   9  10
HETATM   10  N   UNL     1      27.919  45.030  54.422  1.00  0.00    -0.243 N 
HETATM   11  C   UNL     1      28.651  45.996  55.098  1.00  0.00     0.273 C 
HETATM   12  O   UNL     1      28.593  47.204  54.889  1.00  0.00    -0.266 OA
HETATM   13  H   UNL     1      28.125  44.045  54.522  1.00  0.00     0.192 HD
BRANCH  11  14
HETATM   14  C   UNL     1      29.567  45.499  56.156  1.00  0.00     0.051 A 
HETATM   15  C   UNL     1      30.506  44.499  55.932  1.00  0.00     0.133 A 
HETATM   16  N   UNL     1      31.347  44.016  56.880  1.00  0.00    -0.272 NA
HETATM   17  C   UNL     1      31.227  44.542  58.120  1.00  0.00     0.116 A 
HETATM   18  C   UNL     1      30.307  45.523  58.453  1.00  0.00     0.020 A 
HETATM   19  C   UNL     1      29.464  46.005  57.454  1.00  0.00     0.020 A 
ENDBRANCH  11  14
ENDBRANCH   9  10
ENDBRANCH   1   7
BRANCH   4  20
HETATM   20  N   UNL     1      29.258  39.539  51.650  1.00  0.00    -0.309 N 
HETATM   21  C   UNL     1      29.292  38.650  50.610  1.00  0.00     0.325 C 
HETATM   22  N   UNL     1      28.282  38.751  49.689  1.00  0.00    -0.309 N 
HETATM   23  O   UNL     1      30.151  37.773  50.647  1.00  0.00    -0.247 OA
HETATM   24  H   UNL     1      27.560  39.418  49.912  1.00  0.00     0.170 HD
HETATM   25  H   UNL     1      29.807  39.192  52.428  1.00  0.00     0.170 HD
BRANCH  22  26
HETATM   26  C   UNL     1      27.997  37.870  48.625  1.00  0.00     0.036 A 
HETATM   27  C   UNL     1      28.734  37.808  47.439  1.00  0.00     0.031 A 
HETATM   28  C   UNL     1      28.421  36.863  46.455  1.00  0.00     0.026 A 
HETATM   29  C   UNL     1      27.359  35.985  46.646  1.00  0.00     0.034 A 
HETATM   30 CL   UNL     1      26.985  34.814  45.442  1.00  0.00    -0.084 Cl
HETATM   31  C   UNL     1      26.602  36.048  47.811  1.00  0.00     0.026 A 
HETATM   32  C   UNL     1      26.920  36.987  48.797  1.00  0.00     0.031 A 
ENDBRANCH  22  26
ENDBRANCH   4  20
TORSDOF 5
ENDMDL
MODEL 7
REMARK VINA RESULT:      -8.3      4.563      9.976
REMARK  5 active torsions:
REMARK  status: ('A' for Active; 'I' for Inactive)
REMARK    1  A    between atoms: C_2  and  C_3 
REMARK    2  A    between atoms: C_6  and  N_7 
REMARK       I    between atoms: N_7  and  C_8 
REMARK       I    between atoms: C_8  and  N_9 
REMARK    3  A    between atoms: N_9  and  C_10 
REMARK    4  A    between atoms: N_20  and  N_21 
REMARK       I    between atoms: N_21  and  C_22 
REMARK    5  A    between atoms: C_22  and  C_23 
ROOT
HETATM    1  C   UNL     1      25.427  45.397  52.022  1.00  0.00    -0.010 A 
HETATM    2  C   UNL     1      24.530  45.165  50.975  1.00  0.00     0.016 A 
HETATM    3  C   UNL     1      24.405  46.101  49.941  1.00  0.00     0.030 A 
HETATM    4  C   UNL     1      25.172  47.272  49.953  1.00  0.00     0.036 A 
HETATM    5  C   UNL     1      26.043  47.510  51.022  1.00  0.00     0.030 A 
HETATM    6  C   UNL     1      26.195  46.565  52.037  1.00  0.00     0.016 A 
ENDROOT
BRANCH   1   7
HETATM    7  C   UNL     1      25.581  44.409  53.120  1.00  0.00     0.061 C 
HETATM    8  C   UNL     1      25.228  44.878  54.515  1.00  0.00     0.073 C 
HETATM    9  N   UNL     1      25.952  43.168  52.991  1.00  0.00    -0.176 NA
BRANCH   9  10
HETATM   10  N   UNL     1      26.379  42.720  51.777  1.00  0.00    -0.243 N 
HETATM   11  C   UNL     1      27.281  41.667  51.709  1.00  0.00     0.273 C 
HETATM   12  O   UNL     1      27.768  41.088  52.676  1.00  0.00    -0.266 OA
HETATM   13  H   UNL     1      26.138  43.263  50.958  1.00  0.00     0.192 HD
BRANCH  11  14
HETATM   14  C   UNL     1      27.667  41.225  50.345  1.00  0.00     0.051 A 
HETATM   15  C   UNL     1      27.271  41.896  49.194  1.00  0.00     0.133 A 
HETATM   16  N   UNL     1      27.598  41.510  47.936  1.00  0.00    -0.272 NA
HETATM   17  C   UNL     1      28.335  40.383  47.821  1.00  0.00     0.116 A 
HETATM   18  C   UNL     1      28.759  39.627  48.902  1.00  0.00     0.020 A 
HETATM   19  C   UNL     1      28.415  40.056  50.182  1.00  0.00     0.020 A 
ENDBRANCH  11  14
ENDBRANCH   9  10
ENDBRANCH   1   7
BRANCH   4  20
HETATM   20  N   UNL     1      25.076  48.275  48.977  1.00  0.00    -0.309 N 
HETATM   21  C   UNL     1      24.177  49.285  48.767  1.00  0.00     0.325 C 
HETATM   22  N   UNL     1      22.958  49.152  49.379  1.00  0.00    -0.309 N 
HETATM   23  O   UNL     1      24.491  50.160  47.965  1.00  0.00    -0.247 OA
HETATM   24  H   UNL     1      22.810  48.279  49.860  1.00  0.00     0.170 HD
HETATM   25  H   UNL     1      25.783  48.275  48.249  1.00  0.00     0.170 HD
BRANCH  22  26
HETATM   26  C   UNL     1      21.814  49.957  49.203  1.00  0.00     0.036 A 
HETATM   27  C   UNL     1      21.250  50.748  50.207  1.00  0.00     0.031 A 
HETATM   28  C   UNL     1      20.146  51.566  49.934  1.00  0.00     0.026 A 
HETATM   29  C   UNL     1      19.594  51.585  48.657  1.00  0.00     0.034 A 
HETATM   30 CL   UNL     1      18.248  52.601  48.319  1.00  0.00    -0.084 Cl
HETATM   31  C   UNL     1      20.130  50.787  47.652  1.00  0.00     0.026 A 
HETATM   32  C   UNL     1      21.237  49.976  47.924  1.00  0.00     0.031 A 
ENDBRANCH  22  26
ENDBRANCH   4  20
TORSDOF 5
ENDMDL
MODEL 8
REMARK VINA RESULT:      -8.3      4.946     10.151
REMARK  5 active torsions:
REMARK  status: ('A' for Active; 'I' for Inactive)
REMARK    1  A    between atoms: C_2  and  C_3 
REMARK    2  A    between atoms: C_6  and  N_7 
REMARK       I    between atoms: N_7  and  C_8 
REMARK       I    between atoms: C_8  and  N_9 
REMARK    3  A    between atoms: N_9  and  C_10 
REMARK    4  A    between atoms: N_20  and  N_21 
REMARK       I    between atoms: N_21  and  C_22 
REMARK    5  A    between atoms: C_22  and  C_23 
ROOT
HETATM    1  C   UNL     1      25.568  44.261  51.449  1.00  0.00    -0.010 A 
HETATM    2  C   UNL     1      24.321  43.641  51.332  1.00  0.00     0.016 A 
HETATM    3  C   UNL     1      23.471  43.974  50.270  1.00  0.00     0.030 A 
HETATM    4  C   UNL     1      23.865  44.929  49.325  1.00  0.00     0.036 A 
HETATM    5  C   UNL     1      25.102  45.567  49.469  1.00  0.00     0.030 A 
HETATM    6  C   UNL     1      25.965  45.213  50.507  1.00  0.00     0.016 A 
ENDROOT
BRANCH   1   7
HETATM    7  C   UNL     1      26.487  43.910  52.563  1.00  0.00     0.061 C 
HETATM    8  C   UNL     1      26.444  44.798  53.787  1.00  0.00     0.073 C 
HETATM    9  N   UNL     1      27.294  42.890  52.602  1.00  0.00    -0.176 NA
BRANCH   9  10
HETATM   10  N   UNL     1      27.449  42.117  51.490  1.00  0.00    -0.243 N 
HETATM   11  C   UNL     1      28.274  41.001  51.536  1.00  0.00     0.273 C 
HETATM   12  O   UNL     1      28.921  40.639  52.514  1.00  0.00    -0.266 OA
HETATM   13  H   UNL     1      27.071  42.458  50.616  1.00  0.00     0.192 HD
BRANCH  11  14
HETATM   14  C   UNL     1      28.359  40.200  50.289  1.00  0.00     0.051 A 
HETATM   15  C   UNL     1      28.877  38.911  50.254  1.00  0.00     0.133 A 
HETATM   16  N   UNL     1      28.979  38.161  49.128  1.00  0.00    -0.272 NA
HETATM   17  C   UNL     1      28.567  38.737  47.978  1.00  0.00     0.116 A 
HETATM   18  C   UNL     1      28.059  40.024  47.900  1.00  0.00     0.020 A 
HETATM   19  C   UNL     1      27.958  40.765  49.075  1.00  0.00     0.020 A 
ENDBRANCH  11  14
ENDBRANCH   9  10
ENDBRANCH   1   7
BRANCH   4  20
HETATM   20  N   UNL     1      23.057  45.345  48.256  1.00  0.00    -0.309 N 
HETATM   21  C   UNL     1      22.475  46.543  47.943  1.00  0.00     0.325 C 
HETATM   22  N   UNL     1      22.342  47.442  48.968  1.00  0.00    -0.309 N 
HETATM   23  O   UNL     1      22.023  46.669  46.808  1.00  0.00    -0.247 OA
HETATM   24  H   UNL     1      22.611  47.102  49.878  1.00  0.00     0.170 HD
HETATM   25  H   UNL     1      22.814  44.643  47.566  1.00  0.00     0.170 HD
BRANCH  22  26
HETATM   26  C   UNL     1      21.645  48.668  48.953  1.00  0.00     0.036 A 
HETATM   27  C   UNL     1      22.216  49.890  48.588  1.00  0.00     0.031 A 
HETATM   28  C   UNL     1      21.439  51.054  48.543  1.00  0.00     0.026 A 
HETATM   29  C   UNL     1      20.089  51.003  48.875  1.00  0.00     0.034 A 
HETATM   30 CL   UNL     1      19.132  52.430  48.804  1.00  0.00    -0.084 Cl
HETATM   31  C   UNL     1      19.510  49.798  49.261  1.00  0.00     0.026 A 
HETATM   32  C   UNL     1      20.286  48.635  49.300  1.00  0.00     0.031 A 
ENDBRANCH  22  26
ENDBRANCH   4  20
TORSDOF 5
ENDMDL
MODEL 9
REMARK VINA RESULT:      -8.3      5.368      9.525
REMARK  5 active torsions:
REMARK  status: ('A' for Active; 'I' for Inactive)
REMARK    1  A    between atoms: C_2  and  C_3 
REMARK    2  A    between atoms: C_6  and  N_7 
REMARK       I    between atoms: N_7  and  C_8 
REMARK       I    between atoms: C_8  and  N_9 
REMARK    3  A    between atoms: N_9  and  C_10 
REMARK    4  A    between atoms: N_20  and  N_21 
REMARK       I    between atoms: N_21  and  C_22 
REMARK    5  A    between atoms: C_22  and  C_23 
ROOT
HETATM    1  C   UNL     1      26.845  44.178  52.229  1.00  0.00    -0.010 A 
HETATM    2  C   UNL     1      25.880  43.306  51.714  1.00  0.00     0.016 A 
HETATM    3  C   UNL     1      26.243  42.008  51.335  1.00  0.00     0.030 A 
HETATM    4  C   UNL     1      27.569  41.579  51.467  1.00  0.00     0.036 A 
HETATM    5  C   UNL     1      28.533  42.469  51.953  1.00  0.00     0.030 A 
HETATM    6  C   UNL     1      28.169  43.753  52.363  1.00  0.00     0.016 A 
ENDROOT
BRANCH   1   7
HETATM    7  C   UNL     1      26.475  45.555  52.647  1.00  0.00     0.061 C 
HETATM    8  C   UNL     1      25.457  46.277  51.792  1.00  0.00     0.073 C 
HETATM    9  N   UNL     1      26.912  46.182  53.700  1.00  0.00    -0.176 NA
BRANCH   9  10
HETATM   10  N   UNL     1      27.904  45.622  54.449  1.00  0.00    -0.243 N 
HETATM   11  C   UNL     1      28.331  46.252  55.610  1.00  0.00     0.273 C 
HETATM   12  O   UNL     1      27.900  47.320  56.036  1.00  0.00    -0.266 OA
HETATM   13  H   UNL     1      28.405  44.833  54.062  1.00  0.00     0.192 HD
BRANCH  11  14
HETATM   14  C   UNL     1      29.394  45.556  56.378  1.00  0.00     0.051 A 
HETATM   15  C   UNL     1      29.751  45.919  57.671  1.00  0.00     0.133 A 
HETATM   16  N   UNL     1      30.725  45.310  58.392  1.00  0.00    -0.272 NA
HETATM   17  C   UNL     1      31.392  44.306  57.782  1.00  0.00     0.116 A 
HETATM   18  C   UNL     1      31.131  43.884  56.488  1.00  0.00     0.020 A 
HETATM   19  C   UNL     1      30.118  44.523  55.777  1.00  0.00     0.020 A 
ENDBRANCH  11  14
ENDBRANCH   9  10
ENDBRANCH   1   7
BRANCH   4  20
HETATM   20  N   UNL     1      28.019  40.310  51.075  1.00  0.00    -0.309 N 
HETATM   21  C   UNL     1      28.393  39.789  49.865  1.00  0.00     0.325 C 
HETATM   22  N   UNL     1      27.967  40.466  48.753  1.00  0.00    -0.309 N 
HETATM   23  O   UNL     1      28.976  38.708  49.874  1.00  0.00    -0.247 OA
HETATM   24  H   UNL     1      27.346  41.240  48.930  1.00  0.00     0.170 HD
HETATM   25  H   UNL     1      28.071  39.599  51.796  1.00  0.00     0.170 HD
BRANCH  22  26
HETATM   26  C   UNL     1      28.077  40.063  47.406  1.00  0.00     0.036 A 
HETATM   27  C   UNL     1      27.935  38.744  46.968  1.00  0.00     0.031 A 
HETATM   28  C   UNL     1      28.000  38.435  45.604  1.00  0.00     0.026 A 
HETATM   29  C   UNL     1      28.220  39.445  44.672  1.00  0.00     0.034 A 
HETATM   30 CL   UNL     1      28.284  39.066  42.995  1.00  0.00    -0.084 Cl
HETATM   31  C   UNL     1      28.384  40.760  45.093  1.00  0.00     0.026 A 
HETATM   32  C   UNL     1      28.313  41.068  46.456  1.00  0.00     0.031 A 
ENDBRANCH  22  26
ENDBRANCH   4  20
TORSDOF 5
ENDMDL
MODEL 10
REMARK VINA RESULT:      -8.2     17.581     20.070
REMARK  5 active torsions:
REMARK  status: ('A' for Active; 'I' for Inactive)
REMARK    1  A    between atoms: C_2  and  C_3 
REMARK    2  A    between atoms: C_6  and  N_7 
REMARK       I    between atoms: N_7  and  C_8 
REMARK       I    between atoms: C_8  and  N_9 
REMARK    3  A    between atoms: N_9  and  C_10 
REMARK    4  A    between atoms: N_20  and  N_21 
REMARK       I    between atoms: N_21  and  C_22 
REMARK    5  A    between atoms: C_22  and  C_23 
ROOT
HETATM    1  C   UNL     1      37.540  48.554  65.992  1.00  0.00    -0.010 A 
HETATM    2  C   UNL     1      37.008  48.259  64.733  1.00  0.00     0.016 A 
HETATM    3  C   UNL     1      36.337  47.048  64.525  1.00  0.00     0.030 A 
HETATM    4  C   UNL     1      36.200  46.129  65.572  1.00  0.00     0.036 A 
HETATM    5  C   UNL     1      36.764  46.420  66.819  1.00  0.00     0.030 A 
HETATM    6  C   UNL     1      37.404  47.640  67.040  1.00  0.00     0.016 A 
ENDROOT
BRANCH   1   7
HETATM    7  C   UNL     1      38.245  49.841  66.233  1.00  0.00     0.061 C 
HETATM    8  C   UNL     1      37.430  50.960  66.843  1.00  0.00     0.073 C 
HETATM    9  N   UNL     1      39.503  50.082  66.007  1.00  0.00    -0.176 NA
BRANCH   9  10
HETATM   10  N   UNL     1      40.259  49.146  65.366  1.00  0.00    -0.243 N 
HETATM   11  C   UNL     1      41.027  48.256  66.105  1.00  0.00     0.273 C 
HETATM   12  O   UNL     1      41.111  48.240  67.330  1.00  0.00    -0.266 OA
HETATM   13  H   UNL     1      40.355  49.217  64.362  1.00  0.00     0.192 HD
BRANCH  11  14
HETATM   14  C   UNL     1      41.794  47.252  65.325  1.00  0.00     0.051 A 
HETATM   15  C   UNL     1      41.198  46.384  64.419  1.00  0.00     0.133 A 
HETATM   16  N   UNL     1      41.871  45.449  63.702  1.00  0.00    -0.272 NA
HETATM   17  C   UNL     1      43.201  45.361  63.921  1.00  0.00     0.116 A 
HETATM   18  C   UNL     1      43.888  46.161  64.821  1.00  0.00     0.020 A 
HETATM   19  C   UNL     1      43.169  47.118  65.534  1.00  0.00     0.020 A 
ENDBRANCH  11  14
ENDBRANCH   9  10
ENDBRANCH   1   7
BRANCH   4  20
HETATM   20  N   UNL     1      35.576  44.880  65.434  1.00  0.00    -0.309 N 
HETATM   21  C   UNL     1      36.063  43.612  65.262  1.00  0.00     0.325 C 
HETATM   22  N   UNL     1      37.352  43.512  64.807  1.00  0.00    -0.309 N 
HETATM   23  O   UNL     1      35.277  42.681  65.418  1.00  0.00    -0.247 OA
HETATM   24  H   UNL     1      37.793  44.384  64.563  1.00  0.00     0.170 HD
HETATM   25  H   UNL     1      34.562  44.871  65.435  1.00  0.00     0.170 HD
BRANCH  22  26
HETATM   26  C   UNL     1      38.032  42.345  64.400  1.00  0.00     0.036 A 
HETATM   27  C   UNL     1      38.380  41.299  65.259  1.00  0.00     0.031 A 
HETATM   28  C   UNL     1      39.003  40.148  64.764  1.00  0.00     0.026 A 
HETATM   29  C   UNL     1      39.293  40.042  63.407  1.00  0.00     0.034 A 
HETATM   30 CL   UNL     1      40.045  38.620  62.797  1.00  0.00    -0.084 Cl
HETATM   31  C   UNL     1      38.972  41.083  62.542  1.00  0.00     0.026 A 
HETATM   32  C   UNL     1      38.344  42.230  63.037  1.00  0.00     0.031 A 
ENDBRANCH  22  26
ENDBRANCH   4  20
TORSDOF 5
ENDMDL
