MODEL 1
REMARK VINA RESULT:      -9.2      0.000      0.000
REMARK  6 active torsions:
REMARK  status: ('A' for Active; 'I' for Inactive)
REMARK    1  A    between atoms: C_3  and  N_4 
REMARK    2  A    between atoms: N_4  and  C_5 
REMARK    3  A    between atoms: C_5  and  C_6 
REMARK    4  A    between atoms: N_8  and  C_10 
REMARK    5  A    between atoms: C_10  and  C_11 
REMARK    6  A    between atoms: C_12  and  C_13 
ROOT
HETATM    1  C   UNL     1      25.930  46.964  50.533  1.00  0.00     0.031 C 
HETATM    2  C   UNL     1      26.729  45.891  49.796  1.00  0.00     0.241 C 
HETATM    3  N   UNL     1      26.606  44.651  50.660  1.00  0.00    -0.067 N 
HETATM    4  H   UNL     1      26.219  43.895  50.078  1.00  0.00     0.280 HD
HETATM    5  C   UNL     1      25.603  44.944  51.752  1.00  0.00     0.235 C 
HETATM    6  C   UNL     1      24.843  46.151  51.232  1.00  0.00     0.035 C 
ENDROOT
BRANCH   3   7
HETATM    7  C   UNL     1      27.909  44.097  51.194  1.00  0.00     0.277 C 
BRANCH   7   8
HETATM    8  C   UNL     1      27.772  42.835  51.965  1.00  0.00     0.016 A 
HETATM    9  C   UNL     1      28.215  42.610  53.312  1.00  0.00     0.102 A 
HETATM   10  N   UNL     1      27.955  41.352  53.685  1.00  0.00    -0.174 NA
HETATM   11  N   UNL     1      27.307  40.798  52.661  1.00  0.00    -0.288 N 
HETATM   12  H   UNL     1      26.978  39.840  52.764  1.00  0.00     0.188 HD
HETATM   13  C   UNL     1      27.182  41.639  51.592  1.00  0.00     0.120 A 
BRANCH   9  14
HETATM   14  C   UNL     1      28.839  43.540  54.247  1.00  0.00     0.072 A 
HETATM   15  C   UNL     1      28.094  44.558  54.850  1.00  0.00     0.132 A 
HETATM   16  F   UNL     1      26.808  44.743  54.514  1.00  0.00    -0.205 F 
HETATM   17  C   UNL     1      28.662  45.420  55.787  1.00  0.00     0.043 A 
HETATM   18  C   UNL     1      30.003  45.275  56.138  1.00  0.00     0.006 A 
HETATM   19  C   UNL     1      30.767  44.276  55.537  1.00  0.00     0.043 A 
HETATM   20  C   UNL     1      30.186  43.420  54.600  1.00  0.00     0.132 A 
HETATM   21  F   UNL     1      30.970  42.508  54.006  1.00  0.00    -0.205 F 
ENDBRANCH   9  14
ENDBRANCH   7   8
ENDBRANCH   3   7
BRANCH   1  22
HETATM   22  C   UNL     1      25.385  48.047  49.591  1.00  0.00     0.127 C 
BRANCH  22  23
HETATM   23  N   UNL     1      23.951  47.835  49.352  1.00  0.00    -0.376 N 
HETATM   24  H   UNL     1      23.563  47.068  49.895  1.00  0.00     0.161 HD
BRANCH  23  25
HETATM   25  C   UNL     1      23.111  48.932  49.191  1.00  0.00     0.100 A 
HETATM   26  C   UNL     1      23.508  50.155  48.631  1.00  0.00     0.048 A 
HETATM   27  C   UNL     1      22.589  51.194  48.480  1.00  0.00     0.005 A 
HETATM   28  C   UNL     1      21.272  51.008  48.874  1.00  0.00     0.017 A 
HETATM   29  C   UNL     1      20.905  49.781  49.398  1.00  0.00     0.089 A 
HETATM   30  N   UNL     1      21.814  48.802  49.528  1.00  0.00    -0.353 N 
HETATM   31  H   UNL     1      21.499  47.908  49.893  1.00  0.00     0.166 HD
ENDBRANCH  23  25
ENDBRANCH  22  23
ENDBRANCH   1  22
TORSDOF 6
ENDMDL
MODEL 2
REMARK VINA RESULT:      -9.1      2.082      2.901
REMARK  6 active torsions:
REMARK  status: ('A' for Active; 'I' for Inactive)
REMARK    1  A    between atoms: C_3  and  N_4 
REMARK    2  A    between atoms: N_4  and  C_5 
REMARK    3  A    between atoms: C_5  and  C_6 
REMARK    4  A    between atoms: N_8  and  C_10 
REMARK    5  A    between atoms: C_10  and  C_11 
REMARK    6  A    between atoms: C_12  and  C_13 
ROOT
HETATM    1  C   UNL     1      26.286  45.019  51.857  1.00  0.00     0.031 C 
HETATM    2  C   UNL     1      26.361  43.513  52.102  1.00  0.00     0.241 C 
HETATM    3  N   UNL     1      25.962  43.334  53.554  1.00  0.00    -0.067 N 
HETATM    4  H   UNL     1      25.166  42.681  53.587  1.00  0.00     0.280 HD
HETATM    5  C   UNL     1      25.477  44.669  54.070  1.00  0.00     0.235 C 
HETATM    6  C   UNL     1      25.175  45.458  52.809  1.00  0.00     0.035 C 
ENDROOT
BRANCH   3   7
HETATM    7  C   UNL     1      27.011  42.706  54.445  1.00  0.00     0.277 C 
BRANCH   7   8
HETATM    8  C   UNL     1      28.346  42.552  53.813  1.00  0.00     0.016 A 
HETATM    9  C   UNL     1      29.552  43.233  54.193  1.00  0.00     0.102 A 
HETATM   10  N   UNL     1      30.562  42.876  53.394  1.00  0.00    -0.174 NA
HETATM   11  N   UNL     1      30.065  41.950  52.575  1.00  0.00    -0.288 N 
HETATM   12  H   UNL     1      30.697  41.513  51.906  1.00  0.00     0.188 HD
HETATM   13  C   UNL     1      28.732  41.726  52.770  1.00  0.00     0.120 A 
BRANCH   9  14
HETATM   14  C   UNL     1      29.776  44.172  55.287  1.00  0.00     0.072 A 
HETATM   15  C   UNL     1      29.123  45.407  55.315  1.00  0.00     0.132 A 
HETATM   16  F   UNL     1      28.340  45.781  54.292  1.00  0.00    -0.205 F 
HETATM   17  C   UNL     1      29.283  46.293  56.381  1.00  0.00     0.043 A 
HETATM   18  C   UNL     1      30.112  45.949  57.447  1.00  0.00     0.006 A 
HETATM   19  C   UNL     1      30.785  44.728  57.431  1.00  0.00     0.043 A 
HETATM   20  C   UNL     1      30.616  43.852  56.357  1.00  0.00     0.132 A 
HETATM   21  F   UNL     1      31.323  42.712  56.355  1.00  0.00    -0.205 F 
ENDBRANCH   9  14
ENDBRANCH   7   8
ENDBRANCH   3   7
BRANCH   1  22
HETATM   22  C   UNL     1      26.016  45.366  50.386  1.00  0.00     0.127 C 
BRANCH  22  23
HETATM   23  N   UNL     1      25.183  46.572  50.295  1.00  0.00    -0.376 N 
HETATM   24  H   UNL     1      24.616  46.731  51.124  1.00  0.00     0.161 HD
BRANCH  23  25
HETATM   25  C   UNL     1      25.696  47.719  49.699  1.00  0.00     0.100 A 
HETATM   26  C   UNL     1      27.065  48.001  49.578  1.00  0.00     0.048 A 
HETATM   27  C   UNL     1      27.492  49.164  48.936  1.00  0.00     0.005 A 
HETATM   28  C   UNL     1      26.556  50.038  48.405  1.00  0.00     0.017 A 
HETATM   29  C   UNL     1      25.214  49.720  48.517  1.00  0.00     0.089 A 
HETATM   30  N   UNL     1      24.837  48.591  49.139  1.00  0.00    -0.353 N 
HETATM   31  H   UNL     1      23.844  48.381  49.178  1.00  0.00     0.166 HD
ENDBRANCH  23  25
ENDBRANCH  22  23
ENDBRANCH   1  22
TORSDOF 6
ENDMDL
MODEL 3
REMARK VINA RESULT:      -9.0     11.984     14.740
REMARK  6 active torsions:
REMARK  status: ('A' for Active; 'I' for Inactive)
REMARK    1  A    between atoms: C_3  and  N_4 
REMARK    2  A    between atoms: N_4  and  C_5 
REMARK    3  A    between atoms: C_5  and  C_6 
REMARK    4  A    between atoms: N_8  and  C_10 
REMARK    5  A    between atoms: C_10  and  C_11 
REMARK    6  A    between atoms: C_12  and  C_13 
ROOT
HETATM    1  C   UNL     1      30.875  48.536  40.830  1.00  0.00     0.031 C 
HETATM    2  C   UNL     1      29.869  48.769  41.956  1.00  0.00     0.241 C 
HETATM    3  N   UNL     1      28.517  48.463  41.340  1.00  0.00    -0.067 N 
HETATM    4  H   UNL     1      28.064  47.737  41.912  1.00  0.00     0.280 HD
HETATM    5  C   UNL     1      28.755  47.877  39.967  1.00  0.00     0.235 C 
HETATM    6  C   UNL     1      30.207  47.436  40.007  1.00  0.00     0.035 C 
ENDROOT
BRANCH   3   7
HETATM    7  C   UNL     1      27.533  49.612  41.325  1.00  0.00     0.277 C 
BRANCH   7   8
HETATM    8  C   UNL     1      27.250  50.164  39.975  1.00  0.00     0.016 A 
HETATM    9  C   UNL     1      28.036  51.139  39.273  1.00  0.00     0.102 A 
HETATM   10  N   UNL     1      27.478  51.428  38.093  1.00  0.00    -0.174 NA
HETATM   11  N   UNL     1      26.416  50.629  37.990  1.00  0.00    -0.288 N 
HETATM   12  H   UNL     1      25.872  50.664  37.131  1.00  0.00     0.188 HD
HETATM   13  C   UNL     1      26.221  49.857  39.101  1.00  0.00     0.120 A 
BRANCH   9  14
HETATM   14  C   UNL     1      29.290  51.771  39.667  1.00  0.00     0.072 A 
HETATM   15  C   UNL     1      30.493  51.431  39.040  1.00  0.00     0.132 A 
HETATM   16  F   UNL     1      30.521  50.456  38.119  1.00  0.00    -0.205 F 
HETATM   17  C   UNL     1      31.691  52.066  39.367  1.00  0.00     0.043 A 
HETATM   18  C   UNL     1      31.703  53.063  40.341  1.00  0.00     0.006 A 
HETATM   19  C   UNL     1      30.517  53.406  40.990  1.00  0.00     0.043 A 
HETATM   20  C   UNL     1      29.325  52.762  40.653  1.00  0.00     0.132 A 
HETATM   21  F   UNL     1      28.218  53.084  41.339  1.00  0.00    -0.205 F 
ENDBRANCH   9  14
ENDBRANCH   7   8
ENDBRANCH   3   7
BRANCH   1  22
HETATM   22  C   UNL     1      32.269  48.159  41.353  1.00  0.00     0.127 C 
BRANCH  22  23
HETATM   23  N   UNL     1      33.242  49.199  40.996  1.00  0.00    -0.376 N 
HETATM   24  H   UNL     1      33.127  49.547  40.048  1.00  0.00     0.161 HD
BRANCH  23  25
HETATM   25  C   UNL     1      33.603  50.156  41.939  1.00  0.00     0.100 A 
HETATM   26  C   UNL     1      32.729  50.691  42.896  1.00  0.00     0.048 A 
HETATM   27  C   UNL     1      33.185  51.626  43.825  1.00  0.00     0.005 A 
HETATM   28  C   UNL     1      34.516  52.017  43.808  1.00  0.00     0.017 A 
HETATM   29  C   UNL     1      35.360  51.452  42.868  1.00  0.00     0.089 A 
HETATM   30  N   UNL     1      34.889  50.553  41.990  1.00  0.00    -0.353 N 
HETATM   31  H   UNL     1      35.546  50.143  41.333  1.00  0.00     0.166 HD
ENDBRANCH  23  25
ENDBRANCH  22  23
ENDBRANCH   1  22
TORSDOF 6
ENDMDL
MODEL 4
REMARK VINA RESULT:      -9.0     12.013     14.712
REMARK  6 active torsions:
REMARK  status: ('A' for Active; 'I' for Inactive)
REMARK    1  A    between atoms: C_3  and  N_4 
REMARK    2  A    between atoms: N_4  and  C_5 
REMARK    3  A    between atoms: C_5  and  C_6 
REMARK    4  A    between atoms: N_8  and  C_10 
REMARK    5  A    between atoms: C_10  and  C_11 
REMARK    6  A    between atoms: C_12  and  C_13 
ROOT
HETATM    1  C   UNL     1      30.842  48.539  40.835  1.00  0.00     0.031 C 
HETATM    2  C   UNL     1      29.853  48.822  41.965  1.00  0.00     0.241 C 
HETATM    3  N   UNL     1      28.489  48.520  41.374  1.00  0.00    -0.067 N 
HETATM    4  H   UNL     1      28.031  47.819  41.973  1.00  0.00     0.280 HD
HETATM    5  C   UNL     1      28.701  47.891  40.017  1.00  0.00     0.235 C 
HETATM    6  C   UNL     1      30.146  47.428  40.052  1.00  0.00     0.035 C 
ENDROOT
BRANCH   3   7
HETATM    7  C   UNL     1      27.523  49.684  41.337  1.00  0.00     0.277 C 
BRANCH   7   8
HETATM    8  C   UNL     1      27.218  50.189  39.974  1.00  0.00     0.016 A 
HETATM    9  C   UNL     1      27.989  51.144  39.229  1.00  0.00     0.102 A 
HETATM   10  N   UNL     1      27.412  51.391  38.048  1.00  0.00    -0.174 NA
HETATM   11  N   UNL     1      26.354  50.582  37.988  1.00  0.00    -0.288 N 
HETATM   12  H   UNL     1      25.796  50.587  37.135  1.00  0.00     0.188 HD
HETATM   13  C   UNL     1      26.179  49.848  39.126  1.00  0.00     0.120 A 
BRANCH   9  14
HETATM   14  C   UNL     1      29.245  51.796  39.583  1.00  0.00     0.072 A 
HETATM   15  C   UNL     1      29.284  52.786  40.570  1.00  0.00     0.132 A 
HETATM   16  F   UNL     1      28.150  53.208  41.149  1.00  0.00    -0.205 F 
HETATM   17  C   UNL     1      30.485  53.380  40.960  1.00  0.00     0.043 A 
HETATM   18  C   UNL     1      31.679  52.986  40.358  1.00  0.00     0.006 A 
HETATM   19  C   UNL     1      31.659  52.012  39.361  1.00  0.00     0.043 A 
HETATM   20  C   UNL     1      30.450  51.427  38.980  1.00  0.00     0.132 A 
HETATM   21  F   UNL     1      30.469  50.533  37.980  1.00  0.00    -0.205 F 
ENDBRANCH   9  14
ENDBRANCH   7   8
ENDBRANCH   3   7
BRANCH   1  22
HETATM   22  C   UNL     1      32.235  48.154  41.352  1.00  0.00     0.127 C 
BRANCH  22  23
HETATM   23  N   UNL     1      33.219  49.173  40.963  1.00  0.00    -0.376 N 
HETATM   24  H   UNL     1      33.085  49.517  40.015  1.00  0.00     0.161 HD
BRANCH  23  25
HETATM   25  C   UNL     1      33.625  50.127  41.889  1.00  0.00     0.100 A 
HETATM   26  C   UNL     1      32.788  50.686  42.866  1.00  0.00     0.048 A 
HETATM   27  C   UNL     1      33.289  51.617  43.776  1.00  0.00     0.005 A 
HETATM   28  C   UNL     1      34.626  51.981  43.721  1.00  0.00     0.017 A 
HETATM   29  C   UNL     1      35.433  51.392  42.762  1.00  0.00     0.089 A 
HETATM   30  N   UNL     1      34.920  50.498  41.903  1.00  0.00    -0.353 N 
HETATM   31  H   UNL     1      35.550  50.071  41.232  1.00  0.00     0.166 HD
ENDBRANCH  23  25
ENDBRANCH  22  23
ENDBRANCH   1  22
TORSDOF 6
ENDMDL
MODEL 5
REMARK VINA RESULT:      -8.9      2.355      3.475
REMARK  6 active torsions:
REMARK  status: ('A' for Active; 'I' for Inactive)
REMARK    1  A    between atoms: C_3  and  N_4 
REMARK    2  A    between atoms: N_4  and  C_5 
REMARK    3  A    between atoms: C_5  and  C_6 
REMARK    4  A    between atoms: N_8  and  C_10 
REMARK    5  A    between atoms: C_10  and  C_11 
REMARK    6  A    between atoms: C_12  and  C_13 
ROOT
HETATM    1  C   UNL     1      24.882  49.198  48.496  1.00  0.00     0.031 C 
HETATM    2  C   UNL     1      24.895  48.331  49.754  1.00  0.00     0.241 C 
HETATM    3  N   UNL     1      26.345  47.926  49.934  1.00  0.00    -0.067 N 
HETATM    4  H   UNL     1      26.644  48.221  50.874  1.00  0.00     0.280 HD
HETATM    5  C   UNL     1      27.170  48.699  48.931  1.00  0.00     0.235 C 
HETATM    6  C   UNL     1      26.264  49.847  48.522  1.00  0.00     0.035 C 
ENDROOT
BRANCH   3   7
HETATM    7  C   UNL     1      26.615  46.438  49.894  1.00  0.00     0.277 C 
BRANCH   7   8
HETATM    8  C   UNL     1      25.572  45.604  50.544  1.00  0.00     0.016 A 
HETATM    9  C   UNL     1      25.488  45.282  51.940  1.00  0.00     0.102 A 
HETATM   10  N   UNL     1      24.438  44.489  52.175  1.00  0.00    -0.174 NA
HETATM   11  N   UNL     1      23.816  44.357  51.003  1.00  0.00    -0.288 N 
HETATM   12  H   UNL     1      22.954  43.816  50.978  1.00  0.00     0.188 HD
HETATM   13  C   UNL     1      24.463  44.993  49.982  1.00  0.00     0.120 A 
BRANCH   9  14
HETATM   14  C   UNL     1      26.342  45.716  53.041  1.00  0.00     0.072 A 
HETATM   15  C   UNL     1      26.095  46.920  53.707  1.00  0.00     0.132 A 
HETATM   16  F   UNL     1      25.114  47.734  53.288  1.00  0.00    -0.205 F 
HETATM   17  C   UNL     1      26.868  47.324  54.796  1.00  0.00     0.043 A 
HETATM   18  C   UNL     1      27.913  46.516  55.239  1.00  0.00     0.006 A 
HETATM   19  C   UNL     1      28.187  45.319  54.578  1.00  0.00     0.043 A 
HETATM   20  C   UNL     1      27.405  44.928  53.489  1.00  0.00     0.132 A 
HETATM   21  F   UNL     1      27.736  43.796  52.849  1.00  0.00    -0.205 F 
ENDBRANCH   9  14
ENDBRANCH   7   8
ENDBRANCH   3   7
BRANCH   1  22
HETATM   22  C   UNL     1      23.724  50.206  48.485  1.00  0.00     0.127 C 
BRANCH  22  23
HETATM   23  N   UNL     1      22.440  49.504  48.611  1.00  0.00    -0.376 N 
HETATM   24  H   UNL     1      22.530  48.572  49.007  1.00  0.00     0.161 HD
BRANCH  23  25
HETATM   25  C   UNL     1      21.307  50.208  49.004  1.00  0.00     0.100 A 
HETATM   26  C   UNL     1      20.834  51.364  48.365  1.00  0.00     0.048 A 
HETATM   27  C   UNL     1      19.669  51.990  48.809  1.00  0.00     0.005 A 
HETATM   28  C   UNL     1      18.969  51.456  49.881  1.00  0.00     0.017 A 
HETATM   29  C   UNL     1      19.446  50.300  50.474  1.00  0.00     0.089 A 
HETATM   30  N   UNL     1      20.569  49.722  50.020  1.00  0.00    -0.353 N 
HETATM   31  H   UNL     1      20.872  48.861  50.466  1.00  0.00     0.166 HD
ENDBRANCH  23  25
ENDBRANCH  22  23
ENDBRANCH   1  22
TORSDOF 6
ENDMDL
MODEL 6
REMARK VINA RESULT:      -8.9      3.300      7.779
REMARK  6 active torsions:
REMARK  status: ('A' for Active; 'I' for Inactive)
REMARK    1  A    between atoms: C_3  and  N_4 
REMARK    2  A    between atoms: N_4  and  C_5 
REMARK    3  A    between atoms: C_5  and  C_6 
REMARK    4  A    between atoms: N_8  and  C_10 
REMARK    5  A    between atoms: C_10  and  C_11 
REMARK    6  A    between atoms: C_12  and  C_13 
ROOT
HETATM    1  C   UNL     1      29.445  42.343  52.463  1.00  0.00     0.031 C 
HETATM    2  C   UNL     1      28.221  43.230  52.240  1.00  0.00     0.241 C 
HETATM    3  N   UNL     1      27.141  42.286  51.749  1.00  0.00    -0.067 N 
HETATM    4  H   UNL     1      26.330  42.375  52.378  1.00  0.00     0.280 HD
HETATM    5  C   UNL     1      27.663  40.873  51.880  1.00  0.00     0.235 C 
HETATM    6  C   UNL     1      28.822  41.004  52.852  1.00  0.00     0.035 C 
ENDROOT
BRANCH   3   7
HETATM    7  C   UNL     1      26.592  42.583  50.371  1.00  0.00     0.277 C 
BRANCH   7   8
HETATM    8  C   UNL     1      25.134  42.863  50.335  1.00  0.00     0.016 A 
HETATM    9  C   UNL     1      24.465  43.975  50.948  1.00  0.00     0.102 A 
HETATM   10  N   UNL     1      23.147  43.902  50.738  1.00  0.00    -0.174 NA
HETATM   11  N   UNL     1      22.964  42.835  49.961  1.00  0.00    -0.288 N 
HETATM   12  H   UNL     1      22.017  42.628  49.647  1.00  0.00     0.188 HD
HETATM   13  C   UNL     1      24.123  42.161  49.699  1.00  0.00     0.120 A 
BRANCH   9  14
HETATM   14  C   UNL     1      25.030  45.097  51.690  1.00  0.00     0.072 A 
HETATM   15  C   UNL     1      25.231  45.015  53.071  1.00  0.00     0.132 A 
HETATM   16  F   UNL     1      24.830  43.928  53.748  1.00  0.00    -0.205 F 
HETATM   17  C   UNL     1      25.821  46.057  53.786  1.00  0.00     0.043 A 
HETATM   18  C   UNL     1      26.223  47.213  53.119  1.00  0.00     0.006 A 
HETATM   19  C   UNL     1      26.017  47.322  51.744  1.00  0.00     0.043 A 
HETATM   20  C   UNL     1      25.425  46.271  51.042  1.00  0.00     0.132 A 
HETATM   21  F   UNL     1      25.196  46.438  49.730  1.00  0.00    -0.205 F 
ENDBRANCH   9  14
ENDBRANCH   7   8
ENDBRANCH   3   7
BRANCH   1  22
HETATM   22  C   UNL     1      30.402  42.912  53.521  1.00  0.00     0.127 C 
BRANCH  22  23
HETATM   23  N   UNL     1      29.686  43.844  54.402  1.00  0.00    -0.376 N 
HETATM   24  H   UNL     1      28.676  43.739  54.359  1.00  0.00     0.161 HD
BRANCH  23  25
HETATM   25  C   UNL     1      30.200  44.131  55.662  1.00  0.00     0.100 A 
HETATM   26  C   UNL     1      31.164  43.351  56.319  1.00  0.00     0.048 A 
HETATM   27  C   UNL     1      31.646  43.732  57.571  1.00  0.00     0.005 A 
HETATM   28  C   UNL     1      31.178  44.896  58.162  1.00  0.00     0.017 A 
HETATM   29  C   UNL     1      30.247  45.658  57.478  1.00  0.00     0.089 A 
HETATM   30  N   UNL     1      29.806  45.264  56.273  1.00  0.00    -0.353 N 
HETATM   31  H   UNL     1      29.142  45.864  55.793  1.00  0.00     0.166 HD
ENDBRANCH  23  25
ENDBRANCH  22  23
ENDBRANCH   1  22
TORSDOF 6
ENDMDL
MODEL 7
REMARK VINA RESULT:      -8.8      3.234      9.420
REMARK  6 active torsions:
REMARK  status: ('A' for Active; 'I' for Inactive)
REMARK    1  A    between atoms: C_3  and  N_4 
REMARK    2  A    between atoms: N_4  and  C_5 
REMARK    3  A    between atoms: C_5  and  C_6 
REMARK    4  A    between atoms: N_8  and  C_10 
REMARK    5  A    between atoms: C_10  and  C_11 
REMARK    6  A    between atoms: C_12  and  C_13 
ROOT
HETATM    1  C   UNL     1      26.087  44.952  52.443  1.00  0.00     0.031 C 
HETATM    2  C   UNL     1      26.495  45.670  51.157  1.00  0.00     0.241 C 
HETATM    3  N   UNL     1      25.946  47.075  51.304  1.00  0.00    -0.067 N 
HETATM    4  H   UNL     1      26.728  47.736  51.196  1.00  0.00     0.280 HD
HETATM    5  C   UNL     1      25.417  47.223  52.712  1.00  0.00     0.235 C 
HETATM    6  C   UNL     1      26.078  46.084  53.468  1.00  0.00     0.035 C 
ENDROOT
BRANCH   3   7
HETATM    7  C   UNL     1      24.941  47.496  50.254  1.00  0.00     0.277 C 
BRANCH   7   8
HETATM    8  C   UNL     1      25.449  48.494  49.278  1.00  0.00     0.016 A 
HETATM    9  C   UNL     1      24.657  49.400  48.496  1.00  0.00     0.102 A 
HETATM   10  N   UNL     1      25.438  50.141  47.704  1.00  0.00    -0.174 NA
HETATM   11  N   UNL     1      26.689  49.793  48.003  1.00  0.00    -0.288 N 
HETATM   12  H   UNL     1      27.448  50.281  47.531  1.00  0.00     0.188 HD
HETATM   13  C   UNL     1      26.757  48.794  48.933  1.00  0.00     0.120 A 
BRANCH   9  14
HETATM   14  C   UNL     1      23.211  49.600  48.498  1.00  0.00     0.072 A 
HETATM   15  C   UNL     1      22.653  50.795  48.961  1.00  0.00     0.132 A 
HETATM   16  F   UNL     1      23.439  51.747  49.487  1.00  0.00    -0.205 F 
HETATM   17  C   UNL     1      21.278  51.023  48.918  1.00  0.00     0.043 A 
HETATM   18  C   UNL     1      20.430  50.043  48.404  1.00  0.00     0.006 A 
HETATM   19  C   UNL     1      20.965  48.837  47.953  1.00  0.00     0.043 A 
HETATM   20  C   UNL     1      22.343  48.623  48.002  1.00  0.00     0.132 A 
HETATM   21  F   UNL     1      22.811  47.429  47.607  1.00  0.00    -0.205 F 
ENDBRANCH   9  14
ENDBRANCH   7   8
ENDBRANCH   3   7
BRANCH   1  22
HETATM   22  C   UNL     1      27.034  43.798  52.801  1.00  0.00     0.127 C 
BRANCH  22  23
HETATM   23  N   UNL     1      27.223  43.731  54.256  1.00  0.00    -0.376 N 
HETATM   24  H   UNL     1      26.642  43.027  54.703  1.00  0.00     0.161 HD
BRANCH  23  25
HETATM   25  C   UNL     1      28.499  43.873  54.791  1.00  0.00     0.100 A 
HETATM   26  C   UNL     1      29.542  42.955  54.601  1.00  0.00     0.048 A 
HETATM   27  C   UNL     1      30.802  43.195  55.152  1.00  0.00     0.005 A 
HETATM   28  C   UNL     1      31.025  44.354  55.879  1.00  0.00     0.017 A 
HETATM   29  C   UNL     1      29.983  45.253  56.027  1.00  0.00     0.089 A 
HETATM   30  N   UNL     1      28.784  44.994  55.482  1.00  0.00    -0.353 N 
HETATM   31  H   UNL     1      28.053  45.690  55.592  1.00  0.00     0.166 HD
ENDBRANCH  23  25
ENDBRANCH  22  23
ENDBRANCH   1  22
TORSDOF 6
ENDMDL
MODEL 8
REMARK VINA RESULT:      -8.4      2.975      8.114
REMARK  6 active torsions:
REMARK  status: ('A' for Active; 'I' for Inactive)
REMARK    1  A    between atoms: C_3  and  N_4 
REMARK    2  A    between atoms: N_4  and  C_5 
REMARK    3  A    between atoms: C_5  and  C_6 
REMARK    4  A    between atoms: N_8  and  C_10 
REMARK    5  A    between atoms: C_10  and  C_11 
REMARK    6  A    between atoms: C_12  and  C_13 
ROOT
HETATM    1  C   UNL     1      27.255  43.348  53.738  1.00  0.00     0.031 C 
HETATM    2  C   UNL     1      27.289  44.793  53.241  1.00  0.00     0.241 C 
HETATM    3  N   UNL     1      25.976  45.395  53.702  1.00  0.00    -0.067 N 
HETATM    4  H   UNL     1      26.189  46.229  54.267  1.00  0.00     0.280 HD
HETATM    5  C   UNL     1      25.299  44.393  54.609  1.00  0.00     0.235 C 
HETATM    6  C   UNL     1      26.421  43.453  55.013  1.00  0.00     0.035 C 
ENDROOT
BRANCH   3   7
HETATM    7  C   UNL     1      25.068  45.898  52.602  1.00  0.00     0.277 C 
BRANCH   7   8
HETATM    8  C   UNL     1      25.076  45.070  51.369  1.00  0.00     0.016 A 
HETATM    9  C   UNL     1      25.407  45.518  50.045  1.00  0.00     0.102 A 
HETATM   10  N   UNL     1      25.286  44.516  49.169  1.00  0.00    -0.174 NA
HETATM   11  N   UNL     1      24.964  43.442  49.890  1.00  0.00    -0.288 N 
HETATM   12  H   UNL     1      24.867  42.552  49.405  1.00  0.00     0.188 HD
HETATM   13  C   UNL     1      24.808  43.720  51.218  1.00  0.00     0.120 A 
BRANCH   9  14
HETATM   14  C   UNL     1      25.852  46.834  49.600  1.00  0.00     0.072 A 
HETATM   15  C   UNL     1      24.940  47.880  49.433  1.00  0.00     0.132 A 
HETATM   16  F   UNL     1      23.627  47.664  49.602  1.00  0.00    -0.205 F 
HETATM   17  C   UNL     1      25.356  49.159  49.061  1.00  0.00     0.043 A 
HETATM   18  C   UNL     1      26.710  49.411  48.849  1.00  0.00     0.006 A 
HETATM   19  C   UNL     1      27.634  48.378  48.995  1.00  0.00     0.043 A 
HETATM   20  C   UNL     1      27.204  47.103  49.366  1.00  0.00     0.132 A 
HETATM   21  F   UNL     1      28.119  46.125  49.443  1.00  0.00    -0.205 F 
ENDBRANCH   9  14
ENDBRANCH   7   8
ENDBRANCH   3   7
BRANCH   1  22
HETATM   22  C   UNL     1      28.658  42.767  53.962  1.00  0.00     0.127 C 
BRANCH  22  23
HETATM   23  N   UNL     1      29.627  43.850  54.177  1.00  0.00    -0.376 N 
HETATM   24  H   UNL     1      29.411  44.692  53.649  1.00  0.00     0.161 HD
BRANCH  23  25
HETATM   25  C   UNL     1      30.146  44.066  55.449  1.00  0.00     0.100 A 
HETATM   26  C   UNL     1      31.080  43.227  56.074  1.00  0.00     0.048 A 
HETATM   27  C   UNL     1      31.571  43.537  57.342  1.00  0.00     0.005 A 
HETATM   28  C   UNL     1      31.141  44.690  57.982  1.00  0.00     0.017 A 
HETATM   29  C   UNL     1      30.238  45.512  57.329  1.00  0.00     0.089 A 
HETATM   30  N   UNL     1      29.788  45.185  56.107  1.00  0.00    -0.353 N 
HETATM   31  H   UNL     1      29.146  45.826  55.652  1.00  0.00     0.166 HD
ENDBRANCH  23  25
ENDBRANCH  22  23
ENDBRANCH   1  22
TORSDOF 6
ENDMDL
MODEL 9
REMARK VINA RESULT:      -8.3     11.917     14.148
REMARK  6 active torsions:
REMARK  status: ('A' for Active; 'I' for Inactive)
REMARK    1  A    between atoms: C_3  and  N_4 
REMARK    2  A    between atoms: N_4  and  C_5 
REMARK    3  A    between atoms: C_5  and  C_6 
REMARK    4  A    between atoms: N_8  and  C_10 
REMARK    5  A    between atoms: C_10  and  C_11 
REMARK    6  A    between atoms: C_12  and  C_13 
ROOT
HETATM    1  C   UNL     1      29.794  52.398  40.708  1.00  0.00     0.031 C 
HETATM    2  C   UNL     1      29.295  52.450  39.265  1.00  0.00     0.241 C 
HETATM    3  N   UNL     1      27.862  51.960  39.331  1.00  0.00    -0.067 N 
HETATM    4  H   UNL     1      27.258  52.687  38.921  1.00  0.00     0.280 HD
HETATM    5  C   UNL     1      27.483  51.825  40.788  1.00  0.00     0.235 C 
HETATM    6  C   UNL     1      28.523  52.663  41.512  1.00  0.00     0.035 C 
ENDROOT
BRANCH   3   7
HETATM    7  C   UNL     1      27.562  50.713  38.529  1.00  0.00     0.277 C 
BRANCH   7   8
HETATM    8  C   UNL     1      26.940  49.613  39.309  1.00  0.00     0.016 A 
HETATM    9  C   UNL     1      27.632  48.638  40.104  1.00  0.00     0.102 A 
HETATM   10  N   UNL     1      26.765  47.778  40.649  1.00  0.00    -0.174 NA
HETATM   11  N   UNL     1      25.556  48.210  40.291  1.00  0.00    -0.288 N 
HETATM   12  H   UNL     1      24.744  47.708  40.647  1.00  0.00     0.188 HD
HETATM   13  C   UNL     1      25.601  49.301  39.471  1.00  0.00     0.120 A 
BRANCH   9  14
HETATM   14  C   UNL     1      29.059  48.515  40.380  1.00  0.00     0.072 A 
HETATM   15  C   UNL     1      29.579  48.849  41.634  1.00  0.00     0.132 A 
HETATM   16  F   UNL     1      28.779  49.365  42.580  1.00  0.00    -0.205 F 
HETATM   17  C   UNL     1      30.932  48.686  41.931  1.00  0.00     0.043 A 
HETATM   18  C   UNL     1      31.796  48.179  40.962  1.00  0.00     0.006 A 
HETATM   19  C   UNL     1      31.301  47.855  39.699  1.00  0.00     0.043 A 
HETATM   20  C   UNL     1      29.945  48.025  39.416  1.00  0.00     0.132 A 
HETATM   21  F   UNL     1      29.521  47.752  38.173  1.00  0.00    -0.205 F 
ENDBRANCH   9  14
ENDBRANCH   7   8
ENDBRANCH   3   7
BRANCH   1  22
HETATM   22  C   UNL     1      30.920  53.406  40.980  1.00  0.00     0.127 C 
BRANCH  22  23
HETATM   23  N   UNL     1      32.128  53.030  40.234  1.00  0.00    -0.376 N 
HETATM   24  H   UNL     1      32.566  53.814  39.758  1.00  0.00     0.161 HD
BRANCH  23  25
HETATM   25  C   UNL     1      33.009  52.099  40.775  1.00  0.00     0.100 A 
HETATM   26  C   UNL     1      33.913  51.336  40.022  1.00  0.00     0.048 A 
HETATM   27  C   UNL     1      34.783  50.446  40.652  1.00  0.00     0.005 A 
HETATM   28  C   UNL     1      34.761  50.328  42.034  1.00  0.00     0.017 A 
HETATM   29  C   UNL     1      33.877  51.114  42.752  1.00  0.00     0.089 A 
HETATM   30  N   UNL     1      33.055  51.962  42.114  1.00  0.00    -0.353 N 
HETATM   31  H   UNL     1      32.439  52.539  42.678  1.00  0.00     0.166 HD
ENDBRANCH  23  25
ENDBRANCH  22  23
ENDBRANCH   1  22
TORSDOF 6
ENDMDL
MODEL 10
REMARK VINA RESULT:      -8.2      3.437      9.429
REMARK  6 active torsions:
REMARK  status: ('A' for Active; 'I' for Inactive)
REMARK    1  A    between atoms: C_3  and  N_4 
REMARK    2  A    between atoms: N_4  and  C_5 
REMARK    3  A    between atoms: C_5  and  C_6 
REMARK    4  A    between atoms: N_8  and  C_10 
REMARK    5  A    between atoms: C_10  and  C_11 
REMARK    6  A    between atoms: C_12  and  C_13 
ROOT
HETATM    1  C   UNL     1      24.951  45.182  52.569  1.00  0.00     0.031 C 
HETATM    2  C   UNL     1      24.930  45.427  51.060  1.00  0.00     0.241 C 
HETATM    3  N   UNL     1      25.429  46.848  50.889  1.00  0.00    -0.067 N 
HETATM    4  H   UNL     1      26.242  46.827  50.258  1.00  0.00     0.280 HD
HETATM    5  C   UNL     1      25.913  47.336  52.235  1.00  0.00     0.235 C 
HETATM    6  C   UNL     1      26.110  46.060  53.034  1.00  0.00     0.035 C 
ENDROOT
BRANCH   3   7
HETATM    7  C   UNL     1      24.458  47.805  50.233  1.00  0.00     0.277 C 
BRANCH   7   8
HETATM    8  C   UNL     1      25.057  48.670  49.185  1.00  0.00     0.016 A 
HETATM    9  C   UNL     1      24.343  49.474  48.234  1.00  0.00     0.102 A 
HETATM   10  N   UNL     1      25.196  50.105  47.421  1.00  0.00    -0.174 NA
HETATM   11  N   UNL     1      26.414  49.791  47.861  1.00  0.00    -0.288 N 
HETATM   12  H   UNL     1      27.215  50.212  47.395  1.00  0.00     0.188 HD
HETATM   13  C   UNL     1      26.392  48.917  48.911  1.00  0.00     0.120 A 
BRANCH   9  14
HETATM   14  C   UNL     1      22.905  49.680  48.095  1.00  0.00     0.072 A 
HETATM   15  C   UNL     1      22.059  48.619  47.760  1.00  0.00     0.132 A 
HETATM   16  F   UNL     1      22.570  47.409  47.483  1.00  0.00    -0.205 F 
HETATM   17  C   UNL     1      20.676  48.786  47.676  1.00  0.00     0.043 A 
HETATM   18  C   UNL     1      20.115  50.036  47.929  1.00  0.00     0.006 A 
HETATM   19  C   UNL     1      20.943  51.112  48.248  1.00  0.00     0.043 A 
HETATM   20  C   UNL     1      22.325  50.930  48.328  1.00  0.00     0.132 A 
HETATM   21  F   UNL     1      23.089  52.002  48.585  1.00  0.00    -0.205 F 
ENDBRANCH   9  14
ENDBRANCH   7   8
ENDBRANCH   3   7
BRANCH   1  22
HETATM   22  C   UNL     1      25.114  43.698  52.924  1.00  0.00     0.127 C 
BRANCH  22  23
HETATM   23  N   UNL     1      26.009  43.042  51.962  1.00  0.00    -0.376 N 
HETATM   24  H   UNL     1      25.903  43.393  51.013  1.00  0.00     0.161 HD
BRANCH  23  25
HETATM   25  C   UNL     1      27.311  42.728  52.336  1.00  0.00     0.100 A 
HETATM   26  C   UNL     1      28.392  43.618  52.258  1.00  0.00     0.048 A 
HETATM   27  C   UNL     1      29.661  43.227  52.686  1.00  0.00     0.005 A 
HETATM   28  C   UNL     1      29.849  41.954  53.202  1.00  0.00     0.017 A 
HETATM   29  C   UNL     1      28.758  41.107  53.290  1.00  0.00     0.089 A 
HETATM   30  N   UNL     1      27.550  41.516  52.872  1.00  0.00    -0.353 N 
HETATM   31  H   UNL     1      26.770  40.874  52.977  1.00  0.00     0.166 HD
ENDBRANCH  23  25
ENDBRANCH  22  23
ENDBRANCH   1  22
TORSDOF 6
ENDMDL
