MODEL 1
REMARK VINA RESULT:     -10.4      0.000      0.000
REMARK  7 active torsions:
REMARK  status: ('A' for Active; 'I' for Inactive)
REMARK       I    between atoms: C_2  and  N_3 
REMARK    1  A    between atoms: N_3  and  C_4 
REMARK    2  A    between atoms: C_6  and  N_7 
REMARK       I    between atoms: N_7  and  C_8 
REMARK    3  A    between atoms: C_8  and  C_9 
REMARK       I    between atoms: C_9  and  N_10 
REMARK    4  A    between atoms: N_10  and  C_11 
REMARK    5  A    between atoms: C_11  and  C_12 
REMARK    6  A    between atoms: C_12  and  O_13 
REMARK    7  A    between atoms: C_12  and  C_14 
ROOT
HETATM    1  C   UNL     1      26.451  46.132  50.079  1.00  0.00     0.309 C 
HETATM    2  N   UNL     1      26.367  45.075  50.952  1.00  0.00    -0.350 N 
HETATM    3  O   UNL     1      27.294  46.289  49.205  1.00  0.00    -0.262 OA
HETATM    4  H   UNL     1      25.730  45.188  51.740  1.00  0.00     0.163 HD
ENDROOT
BRANCH   1   5
HETATM    5  C   UNL     1      25.376  47.217  50.310  1.00  0.00     0.313 C 
HETATM    6  N   UNL     1      24.900  47.730  49.122  1.00  0.00    -0.319 N 
HETATM    7  H   UNL     1      25.315  47.312  48.291  1.00  0.00     0.169 HD
HETATM    8  O   UNL     1      25.087  47.529  51.457  1.00  0.00    -0.262 OA
BRANCH   6   9
HETATM    9  C   UNL     1      23.992  48.787  48.946  1.00  0.00     0.037 A 
HETATM   10  C   UNL     1      22.742  48.847  49.570  1.00  0.00     0.059 A 
HETATM   11  C   UNL     1      21.903  49.961  49.415  1.00  0.00     0.036 A 
HETATM   12  C   UNL     1      22.308  50.997  48.576  1.00  0.00     0.029 A 
HETATM   13  C   UNL     1      23.544  50.936  47.926  1.00  0.00     0.004 A 
HETATM   14  C   UNL     1      24.383  49.838  48.115  1.00  0.00     0.029 A 
BRANCH  11  15
HETATM   15  N   UNL     1      20.673  49.920  50.096  1.00  0.00    -0.327 N 
HETATM   16  C   UNL     1      19.518  50.630  49.963  1.00  0.00     0.218 C 
HETATM   17  C   UNL     1      19.461  51.867  49.111  1.00  0.00     0.117 C 
HETATM   18  O   UNL     1      18.526  50.269  50.603  1.00  0.00    -0.274 OA
HETATM   19  H   UNL     1      20.605  49.252  50.856  1.00  0.00     0.169 HD
ENDBRANCH  11  15
ENDBRANCH   6   9
ENDBRANCH   1   5
BRANCH   2  20
HETATM   20  C   UNL     1      27.425  44.088  51.076  1.00  0.00     0.159 C 
BRANCH  20  21
HETATM   21  C   UNL     1      27.408  43.412  52.457  1.00  0.00     0.171 C 
BRANCH  21  22
HETATM   22  O   UNL     1      26.090  42.891  52.693  1.00  0.00    -0.389 OA
HETATM   23  H   UNL     1      25.977  42.165  52.055  1.00  0.00     0.210 HD
ENDBRANCH  21  22
BRANCH  21  24
HETATM   24  C   UNL     1      27.825  44.349  53.549  1.00  0.00     0.000 A 
HETATM   25  C   UNL     1      28.933  44.173  54.440  1.00  0.00     0.001 A 
HETATM   26  C   UNL     1      28.967  45.276  55.301  1.00  0.00     0.044 A 
HETATM   27  C   UNL     1      29.912  43.168  54.584  1.00  0.00     0.014 A 
HETATM   28  C   UNL     1      29.941  45.400  56.305  1.00  0.00     0.030 A 
HETATM   29  N   UNL     1      27.921  46.097  54.939  1.00  0.00    -0.360 N 
HETATM   30  C   UNL     1      30.899  44.387  56.428  1.00  0.00     0.002 A 
HETATM   31  C   UNL     1      30.888  43.287  55.579  1.00  0.00     0.001 A 
HETATM   32  C   UNL     1      27.568  47.361  55.546  1.00  0.00     0.155 C 
HETATM   33  C   UNL     1      27.230  45.548  53.890  1.00  0.00     0.101 A 
ENDBRANCH  21  24
ENDBRANCH  20  21
ENDBRANCH   2  20
TORSDOF 7
ENDMDL
MODEL 2
REMARK VINA RESULT:     -10.0      1.660      2.623
REMARK  7 active torsions:
REMARK  status: ('A' for Active; 'I' for Inactive)
REMARK       I    between atoms: C_2  and  N_3 
REMARK    1  A    between atoms: N_3  and  C_4 
REMARK    2  A    between atoms: C_6  and  N_7 
REMARK       I    between atoms: N_7  and  C_8 
REMARK    3  A    between atoms: C_8  and  C_9 
REMARK       I    between atoms: C_9  and  N_10 
REMARK    4  A    between atoms: N_10  and  C_11 
REMARK    5  A    between atoms: C_11  and  C_12 
REMARK    6  A    between atoms: C_12  and  O_13 
REMARK    7  A    between atoms: C_12  and  C_14 
ROOT
HETATM    1  C   UNL     1      25.238  45.614  51.792  1.00  0.00     0.309 C 
HETATM    2  N   UNL     1      25.374  46.388  52.918  1.00  0.00    -0.350 N 
HETATM    3  O   UNL     1      25.225  44.390  51.747  1.00  0.00    -0.262 OA
HETATM    4  H   UNL     1      25.560  47.378  52.766  1.00  0.00     0.163 HD
ENDROOT
BRANCH   1   5
HETATM    5  C   UNL     1      25.146  46.429  50.483  1.00  0.00     0.313 C 
HETATM    6  N   UNL     1      24.236  47.460  50.583  1.00  0.00    -0.319 N 
HETATM    7  H   UNL     1      23.782  47.530  51.493  1.00  0.00     0.169 HD
HETATM    8  O   UNL     1      25.822  46.085  49.523  1.00  0.00    -0.262 OA
BRANCH   6   9
HETATM    9  C   UNL     1      23.825  48.344  49.571  1.00  0.00     0.037 A 
HETATM   10  C   UNL     1      22.500  48.469  49.142  1.00  0.00     0.059 A 
HETATM   11  C   UNL     1      22.134  49.419  48.176  1.00  0.00     0.036 A 
HETATM   12  C   UNL     1      23.126  50.210  47.600  1.00  0.00     0.029 A 
HETATM   13  C   UNL     1      24.457  50.075  48.003  1.00  0.00     0.004 A 
HETATM   14  C   UNL     1      24.804  49.150  48.987  1.00  0.00     0.029 A 
BRANCH  11  15
HETATM   15  N   UNL     1      20.773  49.465  47.826  1.00  0.00    -0.327 N 
HETATM   16  C   UNL     1      19.831  50.447  47.897  1.00  0.00     0.218 C 
HETATM   17  C   UNL     1      20.088  51.712  48.665  1.00  0.00     0.117 C 
HETATM   18  O   UNL     1      18.735  50.254  47.363  1.00  0.00    -0.274 OA
HETATM   19  H   UNL     1      20.376  48.605  47.460  1.00  0.00     0.169 HD
ENDBRANCH  11  15
ENDBRANCH   6   9
ENDBRANCH   1   5
BRANCH   2  20
HETATM   20  C   UNL     1      25.736  45.823  54.206  1.00  0.00     0.159 C 
BRANCH  20  21
HETATM   21  C   UNL     1      27.060  46.406  54.727  1.00  0.00     0.171 C 
BRANCH  21  22
HETATM   22  O   UNL     1      27.400  47.550  53.928  1.00  0.00    -0.389 OA
HETATM   23  H   UNL     1      28.282  47.363  53.563  1.00  0.00     0.210 HD
ENDBRANCH  21  22
BRANCH  21  24
HETATM   24  C   UNL     1      28.164  45.392  54.720  1.00  0.00     0.000 A 
HETATM   25  C   UNL     1      29.127  45.182  55.759  1.00  0.00     0.001 A 
HETATM   26  C   UNL     1      29.973  44.144  55.352  1.00  0.00     0.044 A 
HETATM   27  C   UNL     1      29.349  45.787  57.014  1.00  0.00     0.014 A 
HETATM   28  C   UNL     1      31.037  43.699  56.154  1.00  0.00     0.030 A 
HETATM   29  N   UNL     1      29.532  43.734  54.112  1.00  0.00    -0.360 N 
HETATM   30  C   UNL     1      31.236  44.318  57.393  1.00  0.00     0.002 A 
HETATM   31  C   UNL     1      30.404  45.346  57.820  1.00  0.00     0.001 A 
HETATM   32  C   UNL     1      30.096  42.675  53.304  1.00  0.00     0.155 C 
HETATM   33  C   UNL     1      28.448  44.477  53.725  1.00  0.00     0.101 A 
ENDBRANCH  21  24
ENDBRANCH  20  21
ENDBRANCH   2  20
TORSDOF 7
ENDMDL
MODEL 3
REMARK VINA RESULT:     -10.0      0.906      2.086
REMARK  7 active torsions:
REMARK  status: ('A' for Active; 'I' for Inactive)
REMARK       I    between atoms: C_2  and  N_3 
REMARK    1  A    between atoms: N_3  and  C_4 
REMARK    2  A    between atoms: C_6  and  N_7 
REMARK       I    between atoms: N_7  and  C_8 
REMARK    3  A    between atoms: C_8  and  C_9 
REMARK       I    between atoms: C_9  and  N_10 
REMARK    4  A    between atoms: N_10  and  C_11 
REMARK    5  A    between atoms: C_11  and  C_12 
REMARK    6  A    between atoms: C_12  and  O_13 
REMARK    7  A    between atoms: C_12  and  C_14 
ROOT
HETATM    1  C   UNL     1      26.446  45.972  49.890  1.00  0.00     0.309 C 
HETATM    2  N   UNL     1      25.843  44.952  50.583  1.00  0.00    -0.350 N 
HETATM    3  O   UNL     1      27.461  45.890  49.210  1.00  0.00    -0.262 OA
HETATM    4  H   UNL     1      25.123  45.223  51.252  1.00  0.00     0.163 HD
ENDROOT
BRANCH   1   5
HETATM    5  C   UNL     1      25.753  47.341  50.068  1.00  0.00     0.313 C 
HETATM    6  N   UNL     1      24.712  47.509  49.179  1.00  0.00    -0.319 N 
HETATM    7  H   UNL     1      24.558  46.713  48.562  1.00  0.00     0.169 HD
HETATM    8  O   UNL     1      26.185  48.119  50.906  1.00  0.00    -0.262 OA
BRANCH   6   9
HETATM    9  C   UNL     1      23.922  48.655  48.989  1.00  0.00     0.037 A 
HETATM   10  C   UNL     1      22.675  48.845  49.593  1.00  0.00     0.059 A 
HETATM   11  C   UNL     1      21.959  50.040  49.425  1.00  0.00     0.036 A 
HETATM   12  C   UNL     1      22.484  51.028  48.595  1.00  0.00     0.029 A 
HETATM   13  C   UNL     1      23.717  50.838  47.965  1.00  0.00     0.004 A 
HETATM   14  C   UNL     1      24.434  49.659  48.166  1.00  0.00     0.029 A 
BRANCH  11  15
HETATM   15  N   UNL     1      20.720  50.128  50.085  1.00  0.00    -0.327 N 
HETATM   16  C   UNL     1      19.575  50.815  49.817  1.00  0.00     0.218 C 
HETATM   17  C   UNL     1      19.543  51.889  48.766  1.00  0.00     0.117 C 
HETATM   18  O   UNL     1      18.571  50.578  50.496  1.00  0.00    -0.274 OA
HETATM   19  H   UNL     1      20.635  49.600  50.948  1.00  0.00     0.169 HD
ENDBRANCH  11  15
ENDBRANCH   6   9
ENDBRANCH   1   5
BRANCH   2  20
HETATM   20  C   UNL     1      26.477  43.657  50.761  1.00  0.00     0.159 C 
BRANCH  20  21
HETATM   21  C   UNL     1      26.276  43.121  52.188  1.00  0.00     0.171 C 
BRANCH  21  22
HETATM   22  O   UNL     1      24.967  43.503  52.638  1.00  0.00    -0.389 OA
HETATM   23  H   UNL     1      24.769  42.923  53.394  1.00  0.00     0.210 HD
ENDBRANCH  21  22
BRANCH  21  24
HETATM   24  C   UNL     1      27.337  43.608  53.128  1.00  0.00     0.000 A 
HETATM   25  C   UNL     1      27.390  44.896  53.751  1.00  0.00     0.001 A 
HETATM   26  C   UNL     1      28.540  44.937  54.548  1.00  0.00     0.044 A 
HETATM   27  C   UNL     1      26.555  46.033  53.704  1.00  0.00     0.014 A 
HETATM   28  C   UNL     1      28.884  46.078  55.292  1.00  0.00     0.030 A 
HETATM   29  N   UNL     1      29.157  43.711  54.420  1.00  0.00    -0.360 N 
HETATM   30  C   UNL     1      28.040  47.191  55.226  1.00  0.00     0.002 A 
HETATM   31  C   UNL     1      26.890  47.171  54.445  1.00  0.00     0.001 A 
HETATM   32  C   UNL     1      30.377  43.289  55.072  1.00  0.00     0.155 C 
HETATM   33  C   UNL     1      28.443  42.908  53.569  1.00  0.00     0.101 A 
ENDBRANCH  21  24
ENDBRANCH  20  21
ENDBRANCH   2  20
TORSDOF 7
ENDMDL
MODEL 4
REMARK VINA RESULT:     -10.0      2.188      3.155
REMARK  7 active torsions:
REMARK  status: ('A' for Active; 'I' for Inactive)
REMARK       I    between atoms: C_2  and  N_3 
REMARK    1  A    between atoms: N_3  and  C_4 
REMARK    2  A    between atoms: C_6  and  N_7 
REMARK       I    between atoms: N_7  and  C_8 
REMARK    3  A    between atoms: C_8  and  C_9 
REMARK       I    between atoms: C_9  and  N_10 
REMARK    4  A    between atoms: N_10  and  C_11 
REMARK    5  A    between atoms: C_11  and  C_12 
REMARK    6  A    between atoms: C_12  and  O_13 
REMARK    7  A    between atoms: C_12  and  C_14 
ROOT
HETATM    1  C   UNL     1      26.416  42.910  51.221  1.00  0.00     0.309 C 
HETATM    2  N   UNL     1      26.654  42.623  52.543  1.00  0.00    -0.350 N 
HETATM    3  O   UNL     1      27.143  42.633  50.275  1.00  0.00    -0.262 OA
HETATM    4  H   UNL     1      26.052  43.088  53.222  1.00  0.00     0.163 HD
ENDROOT
BRANCH   1   5
HETATM    5  C   UNL     1      25.113  43.702  50.981  1.00  0.00     0.313 C 
HETATM    6  N   UNL     1      25.140  44.384  49.782  1.00  0.00    -0.319 N 
HETATM    7  H   UNL     1      25.996  44.251  49.246  1.00  0.00     0.169 HD
HETATM    8  O   UNL     1      24.242  43.683  51.839  1.00  0.00    -0.262 OA
BRANCH   6   9
HETATM    9  C   UNL     1      24.177  45.274  49.279  1.00  0.00     0.037 A 
HETATM   10  C   UNL     1      24.034  46.593  49.721  1.00  0.00     0.059 A 
HETATM   11  C   UNL     1      23.102  47.461  49.134  1.00  0.00     0.036 A 
HETATM   12  C   UNL     1      22.268  46.974  48.129  1.00  0.00     0.029 A 
HETATM   13  C   UNL     1      22.384  45.650  47.697  1.00  0.00     0.004 A 
HETATM   14  C   UNL     1      23.337  44.806  48.266  1.00  0.00     0.029 A 
BRANCH  11  15
HETATM   15  N   UNL     1      23.049  48.769  49.650  1.00  0.00    -0.327 N 
HETATM   16  C   UNL     1      23.430  49.977  49.150  1.00  0.00     0.218 C 
HETATM   17  C   UNL     1      24.273  50.072  47.909  1.00  0.00     0.117 C 
HETATM   18  O   UNL     1      23.117  50.998  49.769  1.00  0.00    -0.274 OA
HETATM   19  H   UNL     1      22.675  48.864  50.588  1.00  0.00     0.169 HD
ENDBRANCH  11  15
ENDBRANCH   6   9
ENDBRANCH   1   5
BRANCH   2  20
HETATM   20  C   UNL     1      27.936  42.122  53.009  1.00  0.00     0.159 C 
BRANCH  20  21
HETATM   21  C   UNL     1      29.035  43.191  52.895  1.00  0.00     0.171 C 
BRANCH  21  22
HETATM   22  O   UNL     1      30.308  42.529  52.817  1.00  0.00    -0.389 OA
HETATM   23  H   UNL     1      30.826  43.033  52.165  1.00  0.00     0.210 HD
ENDBRANCH  21  22
BRANCH  21  24
HETATM   24  C   UNL     1      28.997  44.163  54.035  1.00  0.00     0.000 A 
HETATM   25  C   UNL     1      29.814  44.121  55.210  1.00  0.00     0.001 A 
HETATM   26  C   UNL     1      29.458  45.210  56.015  1.00  0.00     0.044 A 
HETATM   27  C   UNL     1      30.829  43.249  55.658  1.00  0.00     0.014 A 
HETATM   28  C   UNL     1      30.077  45.448  57.253  1.00  0.00     0.030 A 
HETATM   29  N   UNL     1      28.466  45.893  55.345  1.00  0.00    -0.360 N 
HETATM   30  C   UNL     1      31.078  44.566  57.674  1.00  0.00     0.002 A 
HETATM   31  C   UNL     1      31.452  43.482  56.887  1.00  0.00     0.001 A 
HETATM   32  C   UNL     1      27.796  47.095  55.790  1.00  0.00     0.155 C 
HETATM   33  C   UNL     1      28.182  45.271  54.157  1.00  0.00     0.101 A 
ENDBRANCH  21  24
ENDBRANCH  20  21
ENDBRANCH   2  20
TORSDOF 7
ENDMDL
MODEL 5
REMARK VINA RESULT:      -9.9      1.717      2.425
REMARK  7 active torsions:
REMARK  status: ('A' for Active; 'I' for Inactive)
REMARK       I    between atoms: C_2  and  N_3 
REMARK    1  A    between atoms: N_3  and  C_4 
REMARK    2  A    between atoms: C_6  and  N_7 
REMARK       I    between atoms: N_7  and  C_8 
REMARK    3  A    between atoms: C_8  and  C_9 
REMARK       I    between atoms: C_9  and  N_10 
REMARK    4  A    between atoms: N_10  and  C_11 
REMARK    5  A    between atoms: C_11  and  C_12 
REMARK    6  A    between atoms: C_12  and  O_13 
REMARK    7  A    between atoms: C_12  and  C_14 
ROOT
HETATM    1  C   UNL     1      26.187  44.662  51.541  1.00  0.00     0.309 C 
HETATM    2  N   UNL     1      27.405  44.033  51.616  1.00  0.00    -0.350 N 
HETATM    3  O   UNL     1      25.267  44.565  52.344  1.00  0.00    -0.262 OA
HETATM    4  H   UNL     1      27.982  44.064  50.777  1.00  0.00     0.163 HD
ENDROOT
BRANCH   1   5
HETATM    5  C   UNL     1      26.008  45.523  50.272  1.00  0.00     0.313 C 
HETATM    6  N   UNL     1      26.007  46.872  50.561  1.00  0.00    -0.319 N 
HETATM    7  H   UNL     1      26.134  47.087  51.549  1.00  0.00     0.169 HD
HETATM    8  O   UNL     1      25.856  44.965  49.195  1.00  0.00    -0.262 OA
BRANCH   6   9
HETATM    9  C   UNL     1      25.776  47.939  49.677  1.00  0.00     0.037 A 
HETATM   10  C   UNL     1      24.513  48.280  49.186  1.00  0.00     0.059 A 
HETATM   11  C   UNL     1      24.329  49.400  48.361  1.00  0.00     0.036 A 
HETATM   12  C   UNL     1      25.443  50.149  47.986  1.00  0.00     0.029 A 
HETATM   13  C   UNL     1      26.715  49.802  48.451  1.00  0.00     0.004 A 
HETATM   14  C   UNL     1      26.879  48.706  49.297  1.00  0.00     0.029 A 
BRANCH  11  15
HETATM   15  N   UNL     1      23.015  49.655  47.931  1.00  0.00    -0.327 N 
HETATM   16  C   UNL     1      21.991  50.379  48.464  1.00  0.00     0.218 C 
HETATM   17  C   UNL     1      22.055  50.890  49.876  1.00  0.00     0.117 C 
HETATM   18  O   UNL     1      20.979  50.561  47.781  1.00  0.00    -0.274 OA
HETATM   19  H   UNL     1      22.734  49.211  47.064  1.00  0.00     0.169 HD
ENDBRANCH  11  15
ENDBRANCH   6   9
ENDBRANCH   1   5
BRANCH   2  20
HETATM   20  C   UNL     1      27.676  42.983  52.583  1.00  0.00     0.159 C 
BRANCH  20  21
HETATM   21  C   UNL     1      29.071  43.139  53.210  1.00  0.00     0.171 C 
BRANCH  21  22
HETATM   22  O   UNL     1      29.524  41.845  53.640  1.00  0.00    -0.389 OA
HETATM   23  H   UNL     1      28.729  41.379  53.952  1.00  0.00     0.210 HD
ENDBRANCH  21  22
BRANCH  21  24
HETATM   24  C   UNL     1      29.073  44.119  54.343  1.00  0.00     0.000 A 
HETATM   25  C   UNL     1      29.943  44.098  55.480  1.00  0.00     0.001 A 
HETATM   26  C   UNL     1      29.611  45.188  56.292  1.00  0.00     0.044 A 
HETATM   27  C   UNL     1      30.989  43.242  55.887  1.00  0.00     0.014 A 
HETATM   28  C   UNL     1      30.284  45.444  57.498  1.00  0.00     0.030 A 
HETATM   29  N   UNL     1      28.580  45.853  55.664  1.00  0.00    -0.360 N 
HETATM   30  C   UNL     1      31.314  44.579  57.879  1.00  0.00     0.002 A 
HETATM   31  C   UNL     1      31.666  43.493  57.085  1.00  0.00     0.001 A 
HETATM   32  C   UNL     1      27.916  47.050  56.130  1.00  0.00     0.155 C 
HETATM   33  C   UNL     1      28.250  45.218  54.495  1.00  0.00     0.101 A 
ENDBRANCH  21  24
ENDBRANCH  20  21
ENDBRANCH   2  20
TORSDOF 7
ENDMDL
MODEL 6
REMARK VINA RESULT:      -9.6      2.201      3.686
REMARK  7 active torsions:
REMARK  status: ('A' for Active; 'I' for Inactive)
REMARK       I    between atoms: C_2  and  N_3 
REMARK    1  A    between atoms: N_3  and  C_4 
REMARK    2  A    between atoms: C_6  and  N_7 
REMARK       I    between atoms: N_7  and  C_8 
REMARK    3  A    between atoms: C_8  and  C_9 
REMARK       I    between atoms: C_9  and  N_10 
REMARK    4  A    between atoms: N_10  and  C_11 
REMARK    5  A    between atoms: C_11  and  C_12 
REMARK    6  A    between atoms: C_12  and  O_13 
REMARK    7  A    between atoms: C_12  and  C_14 
ROOT
HETATM    1  C   UNL     1      26.397  42.910  51.176  1.00  0.00     0.309 C 
HETATM    2  N   UNL     1      26.569  42.588  52.500  1.00  0.00    -0.350 N 
HETATM    3  O   UNL     1      27.195  42.709  50.269  1.00  0.00    -0.262 OA
HETATM    4  H   UNL     1      25.901  42.994  53.154  1.00  0.00     0.163 HD
ENDROOT
BRANCH   1   5
HETATM    5  C   UNL     1      25.068  43.636  50.879  1.00  0.00     0.313 C 
HETATM    6  N   UNL     1      25.149  44.415  49.743  1.00  0.00    -0.319 N 
HETATM    7  H   UNL     1      26.055  44.379  49.278  1.00  0.00     0.169 HD
HETATM    8  O   UNL     1      24.130  43.494  51.651  1.00  0.00    -0.262 OA
BRANCH   6   9
HETATM    9  C   UNL     1      24.173  45.282  49.224  1.00  0.00     0.037 A 
HETATM   10  C   UNL     1      23.958  46.579  49.698  1.00  0.00     0.059 A 
HETATM   11  C   UNL     1      23.017  47.428  49.096  1.00  0.00     0.036 A 
HETATM   12  C   UNL     1      22.249  46.940  48.041  1.00  0.00     0.029 A 
HETATM   13  C   UNL     1      22.437  45.636  47.576  1.00  0.00     0.004 A 
HETATM   14  C   UNL     1      23.398  44.813  48.162  1.00  0.00     0.029 A 
BRANCH  11  15
HETATM   15  N   UNL     1      22.889  48.715  49.648  1.00  0.00    -0.327 N 
HETATM   16  C   UNL     1      23.206  49.957  49.184  1.00  0.00     0.218 C 
HETATM   17  C   UNL     1      24.049  50.133  47.953  1.00  0.00     0.117 C 
HETATM   18  O   UNL     1      22.833  50.941  49.829  1.00  0.00    -0.274 OA
HETATM   19  H   UNL     1      22.505  48.764  50.585  1.00  0.00     0.169 HD
ENDBRANCH  11  15
ENDBRANCH   6   9
ENDBRANCH   1   5
BRANCH   2  20
HETATM   20  C   UNL     1      27.847  42.143  53.029  1.00  0.00     0.159 C 
BRANCH  20  21
HETATM   21  C   UNL     1      28.928  43.226  52.881  1.00  0.00     0.171 C 
BRANCH  21  22
HETATM   22  O   UNL     1      30.209  42.581  52.789  1.00  0.00    -0.389 OA
HETATM   23  H   UNL     1      30.107  41.890  52.111  1.00  0.00     0.210 HD
ENDBRANCH  21  22
BRANCH  21  24
HETATM   24  C   UNL     1      28.896  44.212  54.008  1.00  0.00     0.000 A 
HETATM   25  C   UNL     1      27.985  45.308  54.149  1.00  0.00     0.001 A 
HETATM   26  C   UNL     1      28.300  45.975  55.339  1.00  0.00     0.044 A 
HETATM   27  C   UNL     1      26.915  45.789  53.364  1.00  0.00     0.014 A 
HETATM   28  C   UNL     1      27.587  47.108  55.762  1.00  0.00     0.030 A 
HETATM   29  N   UNL     1      29.361  45.300  55.904  1.00  0.00    -0.360 N 
HETATM   30  C   UNL     1      26.534  47.565  54.964  1.00  0.00     0.002 A 
HETATM   31  C   UNL     1      26.199  46.915  53.782  1.00  0.00     0.001 A 
HETATM   32  C   UNL     1      30.021  45.622  57.150  1.00  0.00     0.155 C 
HETATM   33  C   UNL     1      29.726  44.242  55.112  1.00  0.00     0.101 A 
ENDBRANCH  21  24
ENDBRANCH  20  21
ENDBRANCH   2  20
TORSDOF 7
ENDMDL
MODEL 7
REMARK VINA RESULT:      -9.5      2.029      3.163
REMARK  7 active torsions:
REMARK  status: ('A' for Active; 'I' for Inactive)
REMARK       I    between atoms: C_2  and  N_3 
REMARK    1  A    between atoms: N_3  and  C_4 
REMARK    2  A    between atoms: C_6  and  N_7 
REMARK       I    between atoms: N_7  and  C_8 
REMARK    3  A    between atoms: C_8  and  C_9 
REMARK       I    between atoms: C_9  and  N_10 
REMARK    4  A    between atoms: N_10  and  C_11 
REMARK    5  A    between atoms: C_11  and  C_12 
REMARK    6  A    between atoms: C_12  and  O_13 
REMARK    7  A    between atoms: C_12  and  C_14 
ROOT
HETATM    1  C   UNL     1      25.630  44.418  52.403  1.00  0.00     0.309 C 
HETATM    2  N   UNL     1      26.917  44.033  52.115  1.00  0.00    -0.350 N 
HETATM    3  O   UNL     1      24.990  44.125  53.405  1.00  0.00    -0.262 OA
HETATM    4  H   UNL     1      27.235  44.196  51.161  1.00  0.00     0.163 HD
ENDROOT
BRANCH   1   5
HETATM    5  C   UNL     1      24.969  45.259  51.290  1.00  0.00     0.313 C 
HETATM    6  N   UNL     1      25.659  46.429  51.051  1.00  0.00    -0.319 N 
HETATM    7  H   UNL     1      26.490  46.548  51.627  1.00  0.00     0.169 HD
HETATM    8  O   UNL     1      23.935  44.854  50.777  1.00  0.00    -0.262 OA
BRANCH   6   9
HETATM    9  C   UNL     1      25.303  47.473  50.181  1.00  0.00     0.037 A 
HETATM   10  C   UNL     1      23.982  47.854  49.928  1.00  0.00     0.059 A 
HETATM   11  C   UNL     1      23.685  48.952  49.105  1.00  0.00     0.036 A 
HETATM   12  C   UNL     1      24.732  49.634  48.489  1.00  0.00     0.029 A 
HETATM   13  C   UNL     1      26.056  49.245  48.715  1.00  0.00     0.004 A 
HETATM   14  C   UNL     1      26.339  48.174  49.561  1.00  0.00     0.029 A 
BRANCH  11  15
HETATM   15  N   UNL     1      22.323  49.252  48.926  1.00  0.00    -0.327 N 
HETATM   16  C   UNL     1      21.310  48.608  48.282  1.00  0.00     0.218 C 
HETATM   17  C   UNL     1      21.586  47.450  47.364  1.00  0.00     0.117 C 
HETATM   18  O   UNL     1      20.158  49.030  48.421  1.00  0.00    -0.274 OA
HETATM   19  H   UNL     1      22.001  50.126  49.329  1.00  0.00     0.169 HD
ENDBRANCH  11  15
ENDBRANCH   6   9
ENDBRANCH   1   5
BRANCH   2  20
HETATM   20  C   UNL     1      27.619  43.031  52.899  1.00  0.00     0.159 C 
BRANCH  20  21
HETATM   21  C   UNL     1      29.138  43.266  52.886  1.00  0.00     0.171 C 
BRANCH  21  22
HETATM   22  O   UNL     1      29.779  42.078  52.395  1.00  0.00    -0.389 OA
HETATM   23  H   UNL     1      30.545  42.387  51.880  1.00  0.00     0.210 HD
ENDBRANCH  21  22
BRANCH  21  24
HETATM   24  C   UNL     1      29.662  43.647  54.237  1.00  0.00     0.000 A 
HETATM   25  C   UNL     1      29.183  44.717  55.060  1.00  0.00     0.001 A 
HETATM   26  C   UNL     1      29.945  44.725  56.235  1.00  0.00     0.044 A 
HETATM   27  C   UNL     1      28.164  45.681  54.905  1.00  0.00     0.014 A 
HETATM   28  C   UNL     1      29.725  45.668  57.252  1.00  0.00     0.030 A 
HETATM   29  N   UNL     1      30.848  43.689  56.130  1.00  0.00    -0.360 N 
HETATM   30  C   UNL     1      28.710  46.613  57.072  1.00  0.00     0.002 A 
HETATM   31  C   UNL     1      27.937  46.620  55.916  1.00  0.00     0.001 A 
HETATM   32  C   UNL     1      31.836  43.305  57.114  1.00  0.00     0.155 C 
HETATM   33  C   UNL     1      30.686  43.038  54.935  1.00  0.00     0.101 A 
ENDBRANCH  21  24
ENDBRANCH  20  21
ENDBRANCH   2  20
TORSDOF 7
ENDMDL
MODEL 8
REMARK VINA RESULT:      -9.4      2.228      3.590
REMARK  7 active torsions:
REMARK  status: ('A' for Active; 'I' for Inactive)
REMARK       I    between atoms: C_2  and  N_3 
REMARK    1  A    between atoms: N_3  and  C_4 
REMARK    2  A    between atoms: C_6  and  N_7 
REMARK       I    between atoms: N_7  and  C_8 
REMARK    3  A    between atoms: C_8  and  C_9 
REMARK       I    between atoms: C_9  and  N_10 
REMARK    4  A    between atoms: N_10  and  C_11 
REMARK    5  A    between atoms: C_11  and  C_12 
REMARK    6  A    between atoms: C_12  and  O_13 
REMARK    7  A    between atoms: C_12  and  C_14 
ROOT
HETATM    1  C   UNL     1      23.757  47.337  49.598  1.00  0.00     0.309 C 
HETATM    2  N   UNL     1      24.724  47.909  50.389  1.00  0.00    -0.350 N 
HETATM    3  O   UNL     1      23.583  46.140  49.415  1.00  0.00    -0.262 OA
HETATM    4  H   UNL     1      24.859  48.914  50.283  1.00  0.00     0.163 HD
ENDROOT
BRANCH   1   5
HETATM    5  C   UNL     1      22.871  48.363  48.859  1.00  0.00     0.313 C 
HETATM    6  N   UNL     1      21.810  48.779  49.636  1.00  0.00    -0.319 N 
HETATM    7  H   UNL     1      21.784  48.362  50.565  1.00  0.00     0.169 HD
HETATM    8  O   UNL     1      23.152  48.668  47.709  1.00  0.00    -0.262 OA
BRANCH   6   9
HETATM    9  C   UNL     1      20.755  49.629  49.264  1.00  0.00     0.037 A 
HETATM   10  C   UNL     1      19.422  49.217  49.178  1.00  0.00     0.059 A 
HETATM   11  C   UNL     1      18.397  50.125  48.870  1.00  0.00     0.036 A 
HETATM   12  C   UNL     1      18.731  51.448  48.593  1.00  0.00     0.029 A 
HETATM   13  C   UNL     1      20.064  51.866  48.650  1.00  0.00     0.004 A 
HETATM   14  C   UNL     1      21.070  50.961  48.989  1.00  0.00     0.029 A 
BRANCH  11  15
HETATM   15  N   UNL     1      17.091  49.604  48.819  1.00  0.00    -0.327 N 
HETATM   16  C   UNL     1      16.369  49.011  47.828  1.00  0.00     0.218 C 
HETATM   17  C   UNL     1      16.846  49.032  46.403  1.00  0.00     0.117 C 
HETATM   18  O   UNL     1      15.282  48.501  48.113  1.00  0.00    -0.274 OA
HETATM   19  H   UNL     1      16.543  49.688  49.669  1.00  0.00     0.169 HD
ENDBRANCH  11  15
ENDBRANCH   6   9
ENDBRANCH   1   5
BRANCH   2  20
HETATM   20  C   UNL     1      25.815  47.138  50.957  1.00  0.00     0.159 C 
BRANCH  20  21
HETATM   21  C   UNL     1      25.449  46.573  52.340  1.00  0.00     0.171 C 
BRANCH  21  22
HETATM   22  O   UNL     1      25.447  47.653  53.287  1.00  0.00    -0.389 OA
HETATM   23  H   UNL     1      25.492  47.233  54.164  1.00  0.00     0.210 HD
ENDBRANCH  21  22
BRANCH  21  24
HETATM   24  C   UNL     1      26.378  45.478  52.766  1.00  0.00     0.000 A 
HETATM   25  C   UNL     1      27.378  45.565  53.788  1.00  0.00     0.001 A 
HETATM   26  C   UNL     1      28.017  44.323  53.866  1.00  0.00     0.044 A 
HETATM   27  C   UNL     1      27.792  46.598  54.656  1.00  0.00     0.014 A 
HETATM   28  C   UNL     1      29.061  44.084  54.775  1.00  0.00     0.030 A 
HETATM   29  N   UNL     1      27.419  43.507  52.929  1.00  0.00    -0.360 N 
HETATM   30  C   UNL     1      29.453  45.125  55.622  1.00  0.00     0.002 A 
HETATM   31  C   UNL     1      28.827  46.365  55.567  1.00  0.00     0.001 A 
HETATM   32  C   UNL     1      27.746  42.125  52.656  1.00  0.00     0.155 C 
HETATM   33  C   UNL     1      26.436  44.192  52.264  1.00  0.00     0.101 A 
ENDBRANCH  21  24
ENDBRANCH  20  21
ENDBRANCH   2  20
TORSDOF 7
ENDMDL
MODEL 9
REMARK VINA RESULT:      -9.4      2.164      2.848
REMARK  7 active torsions:
REMARK  status: ('A' for Active; 'I' for Inactive)
REMARK       I    between atoms: C_2  and  N_3 
REMARK    1  A    between atoms: N_3  and  C_4 
REMARK    2  A    between atoms: C_6  and  N_7 
REMARK       I    between atoms: N_7  and  C_8 
REMARK    3  A    between atoms: C_8  and  C_9 
REMARK       I    between atoms: C_9  and  N_10 
REMARK    4  A    between atoms: N_10  and  C_11 
REMARK    5  A    between atoms: C_11  and  C_12 
REMARK    6  A    between atoms: C_12  and  O_13 
REMARK    7  A    between atoms: C_12  and  C_14 
ROOT
HETATM    1  C   UNL     1      23.449  44.933  49.741  1.00  0.00     0.309 C 
HETATM    2  N   UNL     1      24.081  45.314  50.899  1.00  0.00    -0.350 N 
HETATM    3  O   UNL     1      23.256  43.785  49.362  1.00  0.00    -0.262 OA
HETATM    4  H   UNL     1      24.332  46.299  50.974  1.00  0.00     0.163 HD
ENDROOT
BRANCH   1   5
HETATM    5  C   UNL     1      23.006  46.117  48.854  1.00  0.00     0.313 C 
HETATM    6  N   UNL     1      22.982  47.304  49.556  1.00  0.00    -0.319 N 
HETATM    7  H   UNL     1      23.267  47.218  50.531  1.00  0.00     0.169 HD
HETATM    8  O   UNL     1      22.701  45.903  47.690  1.00  0.00    -0.262 OA
BRANCH   6   9
HETATM    9  C   UNL     1      22.545  48.560  49.104  1.00  0.00     0.037 A 
HETATM   10  C   UNL     1      21.218  48.845  48.771  1.00  0.00     0.059 A 
HETATM   11  C   UNL     1      20.822  50.137  48.392  1.00  0.00     0.036 A 
HETATM   12  C   UNL     1      21.789  51.135  48.297  1.00  0.00     0.029 A 
HETATM   13  C   UNL     1      23.124  50.856  48.604  1.00  0.00     0.004 A 
HETATM   14  C   UNL     1      23.498  49.576  49.010  1.00  0.00     0.029 A 
BRANCH  11  15
HETATM   15  N   UNL     1      19.461  50.313  48.086  1.00  0.00    -0.327 N 
HETATM   16  C   UNL     1      18.498  51.135  48.590  1.00  0.00     0.218 C 
HETATM   17  C   UNL     1      18.726  51.911  49.856  1.00  0.00     0.117 C 
HETATM   18  O   UNL     1      17.407  51.188  48.015  1.00  0.00    -0.274 OA
HETATM   19  H   UNL     1      19.084  49.710  47.363  1.00  0.00     0.169 HD
ENDBRANCH  11  15
ENDBRANCH   6   9
ENDBRANCH   1   5
BRANCH   2  20
HETATM   20  C   UNL     1      24.800  44.369  51.736  1.00  0.00     0.159 C 
BRANCH  20  21
HETATM   21  C   UNL     1      25.895  45.065  52.561  1.00  0.00     0.171 C 
BRANCH  21  22
HETATM   22  O   UNL     1      26.377  46.195  51.817  1.00  0.00    -0.389 OA
HETATM   23  H   UNL     1      27.138  46.535  52.320  1.00  0.00     0.210 HD
ENDBRANCH  21  22
BRANCH  21  24
HETATM   24  C   UNL     1      27.011  44.131  52.917  1.00  0.00     0.000 A 
HETATM   25  C   UNL     1      28.036  44.368  53.889  1.00  0.00     0.001 A 
HETATM   26  C   UNL     1      28.873  43.246  53.907  1.00  0.00     0.044 A 
HETATM   27  C   UNL     1      28.322  45.443  54.757  1.00  0.00     0.014 A 
HETATM   28  C   UNL     1      29.988  43.170  54.758  1.00  0.00     0.030 A 
HETATM   29  N   UNL     1      28.368  42.356  52.984  1.00  0.00    -0.360 N 
HETATM   30  C   UNL     1      30.250  44.251  55.607  1.00  0.00     0.002 A 
HETATM   31  C   UNL     1      29.428  45.372  55.610  1.00  0.00     0.001 A 
HETATM   32  C   UNL     1      28.901  41.050  52.665  1.00  0.00     0.155 C 
HETATM   33  C   UNL     1      27.252  42.879  52.385  1.00  0.00     0.101 A 
ENDBRANCH  21  24
ENDBRANCH  20  21
ENDBRANCH   2  20
TORSDOF 7
ENDMDL
MODEL 10
REMARK VINA RESULT:      -9.3      2.355      3.027
REMARK  7 active torsions:
REMARK  status: ('A' for Active; 'I' for Inactive)
REMARK       I    between atoms: C_2  and  N_3 
REMARK    1  A    between atoms: N_3  and  C_4 
REMARK    2  A    between atoms: C_6  and  N_7 
REMARK       I    between atoms: N_7  and  C_8 
REMARK    3  A    between atoms: C_8  and  C_9 
REMARK       I    between atoms: C_9  and  N_10 
REMARK    4  A    between atoms: N_10  and  C_11 
REMARK    5  A    between atoms: C_11  and  C_12 
REMARK    6  A    between atoms: C_12  and  O_13 
REMARK    7  A    between atoms: C_12  and  C_14 
ROOT
HETATM    1  C   UNL     1      23.976  46.984  49.716  1.00  0.00     0.309 C 
HETATM    2  N   UNL     1      25.096  46.987  50.510  1.00  0.00    -0.350 N 
HETATM    3  O   UNL     1      23.454  46.004  49.199  1.00  0.00    -0.262 OA
HETATM    4  H   UNL     1      25.513  47.898  50.701  1.00  0.00     0.163 HD
ENDROOT
BRANCH   1   5
HETATM    5  C   UNL     1      23.397  48.390  49.449  1.00  0.00     0.313 C 
HETATM    6  N   UNL     1      22.024  48.366  49.322  1.00  0.00    -0.319 N 
HETATM    7  H   UNL     1      21.612  47.441  49.434  1.00  0.00     0.169 HD
HETATM    8  O   UNL     1      24.166  49.336  49.346  1.00  0.00    -0.262 OA
BRANCH   6   9
HETATM    9  C   UNL     1      21.174  49.433  48.987  1.00  0.00     0.037 A 
HETATM   10  C   UNL     1      20.555  49.568  47.741  1.00  0.00     0.059 A 
HETATM   11  C   UNL     1      19.658  50.616  47.483  1.00  0.00     0.036 A 
HETATM   12  C   UNL     1      19.429  51.566  48.476  1.00  0.00     0.029 A 
HETATM   13  C   UNL     1      20.063  51.455  49.716  1.00  0.00     0.004 A 
HETATM   14  C   UNL     1      20.927  50.390  49.972  1.00  0.00     0.029 A 
BRANCH  11  15
HETATM   15  N   UNL     1      19.086  50.651  46.198  1.00  0.00    -0.327 N 
HETATM   16  C   UNL     1      17.859  50.298  45.722  1.00  0.00     0.218 C 
HETATM   17  C   UNL     1      16.896  49.511  46.566  1.00  0.00     0.117 C 
HETATM   18  O   UNL     1      17.572  50.588  44.557  1.00  0.00    -0.274 OA
HETATM   19  H   UNL     1      19.685  50.983  45.451  1.00  0.00     0.169 HD
ENDBRANCH  11  15
ENDBRANCH   6   9
ENDBRANCH   1   5
BRANCH   2  20
HETATM   20  C   UNL     1      25.938  45.814  50.667  1.00  0.00     0.159 C 
BRANCH  20  21
HETATM   21  C   UNL     1      25.647  45.082  51.988  1.00  0.00     0.171 C 
BRANCH  21  22
HETATM   22  O   UNL     1      24.223  44.957  52.135  1.00  0.00    -0.389 OA
HETATM   23  H   UNL     1      24.084  44.574  53.019  1.00  0.00     0.210 HD
ENDBRANCH  21  22
BRANCH  21  24
HETATM   24  C   UNL     1      26.255  45.780  53.165  1.00  0.00     0.000 A 
HETATM   25  C   UNL     1      27.411  45.356  53.897  1.00  0.00     0.001 A 
HETATM   26  C   UNL     1      27.638  46.290  54.915  1.00  0.00     0.044 A 
HETATM   27  C   UNL     1      28.286  44.255  53.778  1.00  0.00     0.014 A 
HETATM   28  C   UNL     1      28.704  46.153  55.819  1.00  0.00     0.030 A 
HETATM   29  N   UNL     1      26.658  47.252  54.798  1.00  0.00    -0.360 N 
HETATM   30  C   UNL     1      29.554  45.051  55.680  1.00  0.00     0.002 A 
HETATM   31  C   UNL     1      29.351  44.115  54.673  1.00  0.00     0.001 A 
HETATM   32  C   UNL     1      26.497  48.423  55.631  1.00  0.00     0.155 C 
HETATM   33  C   UNL     1      25.824  46.954  53.752  1.00  0.00     0.101 A 
ENDBRANCH  21  24
ENDBRANCH  20  21
ENDBRANCH   2  20
TORSDOF 7
ENDMDL
