MODEL 1
REMARK VINA RESULT:      -9.5      0.000      0.000
REMARK  8 active torsions:
REMARK  status: ('A' for Active; 'I' for Inactive)
REMARK    1  A    between atoms: O_2  and  C_3 
REMARK    2  A    between atoms: C_4  and  O_5 
REMARK    3  A    between atoms: C_13  and  C_14 
REMARK    4  A    between atoms: C_14  and  N_15 
REMARK    5  A    between atoms: C_19  and  C_20 
REMARK    6  A    between atoms: C_20  and  O_21 
REMARK    7  A    between atoms: C_20  and  C_22 
REMARK    8  A    between atoms: C_20  and  C_28 
ROOT
HETATM    1  N   UNL     1      23.985  45.895  50.297  1.00  0.00    -0.064 N 
HETATM    2  H   UNL     1      23.139  46.047  50.859  1.00  0.00     0.280 HD
HETATM    3  C   UNL     1      24.048  44.398  50.050  1.00  0.00     0.236 C 
HETATM    4  C   UNL     1      24.255  43.659  51.364  1.00  0.00     0.036 C 
HETATM    5  C   UNL     1      25.517  44.112  52.136  1.00  0.00     0.033 C 
HETATM    6  C   UNL     1      25.352  45.630  52.372  1.00  0.00     0.036 C 
HETATM    7  C   UNL     1      25.140  46.438  51.100  1.00  0.00     0.236 C 
ENDROOT
BRANCH   1   8
HETATM    8  C   UNL     1      23.765  46.672  48.986  1.00  0.00     0.313 C 
BRANCH   8   9
HETATM    9  C   UNL     1      22.761  47.818  49.120  1.00  0.00     0.133 A 
HETATM   10  N   UNL     1      23.241  49.012  49.588  1.00  0.00    -0.309 N 
HETATM   11  C   UNL     1      22.504  50.168  49.573  1.00  0.00     0.259 A 
HETATM   12  H   UNL     1      24.193  49.139  49.905  1.00  0.00     0.170 HD
HETATM   13  C   UNL     1      21.106  50.034  49.138  1.00  0.00     0.064 A 
HETATM   14  O   UNL     1      23.009  51.243  49.867  1.00  0.00    -0.267 OA
HETATM   15  C   UNL     1      20.676  48.763  48.756  1.00  0.00     0.077 A 
HETATM   16  C   UNL     1      20.257  51.144  49.092  1.00  0.00     0.059 A 
HETATM   17  C   UNL     1      19.355  48.601  48.335  1.00  0.00     0.072 A 
HETATM   18  N   UNL     1      21.540  47.652  48.729  1.00  0.00    -0.233 NA
HETATM   19  C   UNL     1      18.482  49.696  48.291  1.00  0.00     0.103 A 
HETATM   20  C   UNL     1      18.941  50.980  48.659  1.00  0.00     0.102 A 
BRANCH  19  21
HETATM   21  O   UNL     1      17.177  49.622  47.870  1.00  0.00    -0.353 OA
HETATM   22  C   UNL     1      16.565  48.339  47.844  1.00  0.00     0.210 C 
ENDBRANCH  19  21
BRANCH  20  23
HETATM   23  O   UNL     1      18.025  51.996  48.563  1.00  0.00    -0.353 OA
HETATM   24  C   UNL     1      17.533  52.567  49.768  1.00  0.00     0.210 C 
ENDBRANCH  20  23
ENDBRANCH   8   9
ENDBRANCH   1   8
BRANCH   5  25
HETATM   25  C   UNL     1      26.889  43.689  51.458  1.00  0.00     0.116 C 
BRANCH  25  26
HETATM   26  O   UNL     1      27.247  44.761  50.566  1.00  0.00    -0.380 OA
HETATM   27  H   UNL     1      28.026  44.441  50.071  1.00  0.00     0.211 HD
ENDBRANCH  25  26
BRANCH  25  28
HETATM   28  C   UNL     1      28.010  43.574  52.515  1.00  0.00    -0.019 A 
HETATM   29  C   UNL     1      29.243  42.961  52.224  1.00  0.00     0.010 A 
HETATM   30  C   UNL     1      30.245  42.841  53.193  1.00  0.00     0.001 A 
HETATM   31  C   UNL     1      30.038  43.318  54.481  1.00  0.00     0.000 A 
HETATM   32  C   UNL     1      28.827  43.915  54.805  1.00  0.00     0.001 A 
HETATM   33  C   UNL     1      27.825  44.038  53.838  1.00  0.00     0.010 A 
ENDBRANCH  25  28
BRANCH  25  34
HETATM   34  C   UNL     1      26.743  42.416  50.588  1.00  0.00    -0.019 A 
HETATM   35  C   UNL     1      26.416  41.165  51.150  1.00  0.00     0.010 A 
HETATM   36  C   UNL     1      26.305  40.014  50.362  1.00  0.00     0.001 A 
HETATM   37  C   UNL     1      26.508  40.084  48.989  1.00  0.00     0.000 A 
HETATM   38  C   UNL     1      26.822  41.304  48.403  1.00  0.00     0.001 A 
HETATM   39  C   UNL     1      26.939  42.453  49.191  1.00  0.00     0.010 A 
ENDBRANCH  25  34
ENDBRANCH   5  25
TORSDOF 8
ENDMDL
MODEL 2
REMARK VINA RESULT:      -9.3      1.185      2.250
REMARK  8 active torsions:
REMARK  status: ('A' for Active; 'I' for Inactive)
REMARK    1  A    between atoms: O_2  and  C_3 
REMARK    2  A    between atoms: C_4  and  O_5 
REMARK    3  A    between atoms: C_13  and  C_14 
REMARK    4  A    between atoms: C_14  and  N_15 
REMARK    5  A    between atoms: C_19  and  C_20 
REMARK    6  A    between atoms: C_20  and  O_21 
REMARK    7  A    between atoms: C_20  and  C_22 
REMARK    8  A    between atoms: C_20  and  C_28 
ROOT
HETATM    1  N   UNL     1      24.408  46.639  50.610  1.00  0.00    -0.064 N 
HETATM    2  H   UNL     1      23.574  46.834  51.177  1.00  0.00     0.280 HD
HETATM    3  C   UNL     1      24.286  45.185  50.190  1.00  0.00     0.236 C 
HETATM    4  C   UNL     1      24.362  44.280  51.411  1.00  0.00     0.036 C 
HETATM    5  C   UNL     1      25.651  44.473  52.245  1.00  0.00     0.033 C 
HETATM    6  C   UNL     1      25.674  45.963  52.656  1.00  0.00     0.036 C 
HETATM    7  C   UNL     1      25.602  46.932  51.486  1.00  0.00     0.236 C 
ENDROOT
BRANCH   1   8
HETATM    8  C   UNL     1      24.325  47.584  49.398  1.00  0.00     0.313 C 
BRANCH   8   9
HETATM    9  C   UNL     1      22.891  47.873  48.950  1.00  0.00     0.133 A 
HETATM   10  N   UNL     1      22.384  47.088  47.949  1.00  0.00    -0.309 N 
HETATM   11  C   UNL     1      21.061  47.106  47.587  1.00  0.00     0.259 A 
HETATM   12  H   UNL     1      22.931  46.392  47.461  1.00  0.00     0.170 HD
HETATM   13  C   UNL     1      20.225  48.115  48.254  1.00  0.00     0.064 A 
HETATM   14  O   UNL     1      20.615  46.295  46.788  1.00  0.00    -0.267 OA
HETATM   15  C   UNL     1      20.843  48.930  49.203  1.00  0.00     0.077 A 
HETATM   16  C   UNL     1      18.865  48.232  47.957  1.00  0.00     0.059 A 
HETATM   17  C   UNL     1      20.078  49.897  49.857  1.00  0.00     0.072 A 
HETATM   18  N   UNL     1      22.196  48.774  49.564  1.00  0.00    -0.233 NA
HETATM   19  C   UNL     1      18.714  50.040  49.569  1.00  0.00     0.103 A 
HETATM   20  C   UNL     1      18.099  49.192  48.622  1.00  0.00     0.102 A 
BRANCH  19  21
HETATM   21  O   UNL     1      17.891  50.952  50.183  1.00  0.00    -0.353 OA
HETATM   22  C   UNL     1      18.012  52.314  49.796  1.00  0.00     0.210 C 
ENDBRANCH  19  21
BRANCH  20  23
HETATM   23  O   UNL     1      16.758  49.389  48.420  1.00  0.00    -0.353 OA
HETATM   24  C   UNL     1      16.050  48.427  47.650  1.00  0.00     0.210 C 
ENDBRANCH  20  23
ENDBRANCH   8   9
ENDBRANCH   1   8
BRANCH   5  25
HETATM   25  C   UNL     1      26.975  43.957  51.538  1.00  0.00     0.116 C 
BRANCH  25  26
HETATM   26  O   UNL     1      27.383  44.998  50.632  1.00  0.00    -0.380 OA
HETATM   27  H   UNL     1      28.238  45.324  50.976  1.00  0.00     0.211 HD
ENDBRANCH  25  26
BRANCH  25  28
HETATM   28  C   UNL     1      28.110  43.771  52.570  1.00  0.00    -0.019 A 
HETATM   29  C   UNL     1      29.255  43.005  52.282  1.00  0.00     0.010 A 
HETATM   30  C   UNL     1      30.269  42.824  53.229  1.00  0.00     0.001 A 
HETATM   31  C   UNL     1      30.160  43.390  54.493  1.00  0.00     0.000 A 
HETATM   32  C   UNL     1      29.036  44.139  54.814  1.00  0.00     0.001 A 
HETATM   33  C   UNL     1      28.023  44.324  53.868  1.00  0.00     0.010 A 
ENDBRANCH  25  28
BRANCH  25  34
HETATM   34  C   UNL     1      26.724  42.692  50.680  1.00  0.00    -0.019 A 
HETATM   35  C   UNL     1      26.842  42.712  49.274  1.00  0.00     0.010 A 
HETATM   36  C   UNL     1      26.594  41.572  48.502  1.00  0.00     0.001 A 
HETATM   37  C   UNL     1      26.232  40.378  49.114  1.00  0.00     0.000 A 
HETATM   38  C   UNL     1      26.117  40.322  50.498  1.00  0.00     0.001 A 
HETATM   39  C   UNL     1      26.358  41.463  51.269  1.00  0.00     0.010 A 
ENDBRANCH  25  34
ENDBRANCH   5  25
TORSDOF 8
ENDMDL
MODEL 3
REMARK VINA RESULT:      -8.8     13.434     16.491
REMARK  8 active torsions:
REMARK  status: ('A' for Active; 'I' for Inactive)
REMARK    1  A    between atoms: O_2  and  C_3 
REMARK    2  A    between atoms: C_4  and  O_5 
REMARK    3  A    between atoms: C_13  and  C_14 
REMARK    4  A    between atoms: C_14  and  N_15 
REMARK    5  A    between atoms: C_19  and  C_20 
REMARK    6  A    between atoms: C_20  and  O_21 
REMARK    7  A    between atoms: C_20  and  C_22 
REMARK    8  A    between atoms: C_20  and  C_28 
ROOT
HETATM    1  N   UNL     1      34.171  50.192  42.160  1.00  0.00    -0.064 N 
HETATM    2  H   UNL     1      34.428  49.891  43.108  1.00  0.00     0.280 HD
HETATM    3  C   UNL     1      32.918  51.033  42.324  1.00  0.00     0.236 C 
HETATM    4  C   UNL     1      31.773  50.172  42.838  1.00  0.00     0.036 C 
HETATM    5  C   UNL     1      31.466  48.951  41.938  1.00  0.00     0.033 C 
HETATM    6  C   UNL     1      32.779  48.139  41.856  1.00  0.00     0.036 C 
HETATM    7  C   UNL     1      33.971  48.936  41.349  1.00  0.00     0.236 C 
ENDROOT
BRANCH   1   8
HETATM    8  C   UNL     1      35.353  51.038  41.651  1.00  0.00     0.313 C 
BRANCH   8   9
HETATM    9  C   UNL     1      36.307  51.480  42.761  1.00  0.00     0.133 A 
HETATM   10  N   UNL     1      37.184  50.542  43.236  1.00  0.00    -0.309 N 
HETATM   11  C   UNL     1      38.217  50.850  44.084  1.00  0.00     0.259 A 
HETATM   12  H   UNL     1      37.175  49.576  42.937  1.00  0.00     0.170 HD
HETATM   13  C   UNL     1      38.263  52.239  44.564  1.00  0.00     0.064 A 
HETATM   14  O   UNL     1      39.063  50.017  44.377  1.00  0.00    -0.267 OA
HETATM   15  C   UNL     1      37.280  53.110  44.092  1.00  0.00     0.077 A 
HETATM   16  C   UNL     1      39.266  52.664  45.440  1.00  0.00     0.059 A 
HETATM   17  C   UNL     1      37.296  54.436  44.527  1.00  0.00     0.072 A 
HETATM   18  N   UNL     1      36.308  52.712  43.155  1.00  0.00    -0.233 NA
HETATM   19  C   UNL     1      38.285  54.884  45.412  1.00  0.00     0.103 A 
HETATM   20  C   UNL     1      39.286  53.995  45.861  1.00  0.00     0.102 A 
BRANCH  19  21
HETATM   21  O   UNL     1      38.380  56.176  45.868  1.00  0.00    -0.353 OA
HETATM   22  C   UNL     1      38.698  57.187  44.921  1.00  0.00     0.210 C 
ENDBRANCH  19  21
BRANCH  20  23
HETATM   23  O   UNL     1      40.225  54.525  46.708  1.00  0.00    -0.353 OA
HETATM   24  C   UNL     1      40.288  54.021  48.035  1.00  0.00     0.210 C 
ENDBRANCH  20  23
ENDBRANCH   8   9
ENDBRANCH   1   8
BRANCH   5  25
HETATM   25  C   UNL     1      30.820  49.315  40.535  1.00  0.00     0.116 C 
BRANCH  25  26
HETATM   26  O   UNL     1      31.916  49.549  39.632  1.00  0.00    -0.380 OA
HETATM   27  H   UNL     1      31.912  50.510  39.457  1.00  0.00     0.211 HD
ENDBRANCH  25  26
BRANCH  25  28
HETATM   28  C   UNL     1      30.009  48.122  39.979  1.00  0.00    -0.019 A 
HETATM   29  C   UNL     1      29.061  47.441  40.764  1.00  0.00     0.010 A 
HETATM   30  C   UNL     1      28.347  46.348  40.260  1.00  0.00     0.001 A 
HETATM   31  C   UNL     1      28.570  45.899  38.965  1.00  0.00     0.000 A 
HETATM   32  C   UNL     1      29.510  46.540  38.168  1.00  0.00     0.001 A 
HETATM   33  C   UNL     1      30.222  47.634  38.669  1.00  0.00     0.010 A 
ENDBRANCH  25  28
BRANCH  25  34
HETATM   34  C   UNL     1      30.002  50.629  40.591  1.00  0.00    -0.019 A 
HETATM   35  C   UNL     1      28.831  50.743  41.369  1.00  0.00     0.010 A 
HETATM   36  C   UNL     1      28.085  51.927  41.400  1.00  0.00     0.001 A 
HETATM   37  C   UNL     1      28.495  53.032  40.664  1.00  0.00     0.000 A 
HETATM   38  C   UNL     1      29.650  52.955  39.895  1.00  0.00     0.001 A 
HETATM   39  C   UNL     1      30.392  51.771  39.859  1.00  0.00     0.010 A 
ENDBRANCH  25  34
ENDBRANCH   5  25
TORSDOF 8
ENDMDL
MODEL 4
REMARK VINA RESULT:      -8.8      2.879      6.110
REMARK  8 active torsions:
REMARK  status: ('A' for Active; 'I' for Inactive)
REMARK    1  A    between atoms: O_2  and  C_3 
REMARK    2  A    between atoms: C_4  and  O_5 
REMARK    3  A    between atoms: C_13  and  C_14 
REMARK    4  A    between atoms: C_14  and  N_15 
REMARK    5  A    between atoms: C_19  and  C_20 
REMARK    6  A    between atoms: C_20  and  O_21 
REMARK    7  A    between atoms: C_20  and  C_22 
REMARK    8  A    between atoms: C_20  and  C_28 
ROOT
HETATM    1  N   UNL     1      26.467  42.297  51.883  1.00  0.00    -0.064 N 
HETATM    2  H   UNL     1      25.890  41.485  52.133  1.00  0.00     0.280 HD
HETATM    3  C   UNL     1      27.882  41.937  52.301  1.00  0.00     0.236 C 
HETATM    4  C   UNL     1      27.959  41.793  53.814  1.00  0.00     0.036 C 
HETATM    5  C   UNL     1      27.495  43.054  54.581  1.00  0.00     0.033 C 
HETATM    6  C   UNL     1      26.044  43.324  54.122  1.00  0.00     0.036 C 
HETATM    7  C   UNL     1      25.887  43.481  52.617  1.00  0.00     0.236 C 
ENDROOT
BRANCH   1   8
HETATM    8  C   UNL     1      26.352  42.441  50.354  1.00  0.00     0.313 C 
BRANCH   8   9
HETATM    9  C   UNL     1      25.560  43.674  49.918  1.00  0.00     0.133 A 
HETATM   10  N   UNL     1      24.230  43.494  49.646  1.00  0.00    -0.309 N 
HETATM   11  C   UNL     1      23.364  44.537  49.437  1.00  0.00     0.259 A 
HETATM   12  H   UNL     1      23.782  42.587  49.656  1.00  0.00     0.170 HD
HETATM   13  C   UNL     1      23.969  45.876  49.395  1.00  0.00     0.064 A 
HETATM   14  O   UNL     1      22.161  44.347  49.337  1.00  0.00    -0.267 OA
HETATM   15  C   UNL     1      25.347  45.961  49.600  1.00  0.00     0.077 A 
HETATM   16  C   UNL     1      23.186  47.013  49.178  1.00  0.00     0.059 A 
HETATM   17  C   UNL     1      25.953  47.218  49.569  1.00  0.00     0.072 A 
HETATM   18  N   UNL     1      26.137  44.832  49.891  1.00  0.00    -0.233 NA
HETATM   19  C   UNL     1      25.190  48.371  49.343  1.00  0.00     0.103 A 
HETATM   20  C   UNL     1      23.794  48.269  49.160  1.00  0.00     0.102 A 
BRANCH  19  21
HETATM   21  O   UNL     1      25.709  49.642  49.318  1.00  0.00    -0.353 OA
HETATM   22  C   UNL     1      26.635  49.957  48.287  1.00  0.00     0.210 C 
ENDBRANCH  19  21
BRANCH  20  23
HETATM   23  O   UNL     1      23.125  49.451  48.968  1.00  0.00    -0.353 OA
HETATM   24  C   UNL     1      21.903  49.416  48.242  1.00  0.00     0.210 C 
ENDBRANCH  20  23
ENDBRANCH   8   9
ENDBRANCH   1   8
BRANCH   5  25
HETATM   25  C   UNL     1      28.475  44.297  54.455  1.00  0.00     0.116 C 
BRANCH  25  26
HETATM   26  O   UNL     1      29.114  44.180  53.171  1.00  0.00    -0.380 OA
HETATM   27  H   UNL     1      29.922  43.652  53.326  1.00  0.00     0.211 HD
ENDBRANCH  25  26
BRANCH  25  28
HETATM   28  C   UNL     1      27.681  45.623  54.457  1.00  0.00    -0.019 A 
HETATM   29  C   UNL     1      27.095  46.138  53.286  1.00  0.00     0.010 A 
HETATM   30  C   UNL     1      26.396  47.350  53.292  1.00  0.00     0.001 A 
HETATM   31  C   UNL     1      26.275  48.086  54.464  1.00  0.00     0.000 A 
HETATM   32  C   UNL     1      26.855  47.613  55.634  1.00  0.00     0.001 A 
HETATM   33  C   UNL     1      27.551  46.401  55.631  1.00  0.00     0.010 A 
ENDBRANCH  25  28
BRANCH  25  34
HETATM   34  C   UNL     1      29.601  44.263  55.517  1.00  0.00    -0.019 A 
HETATM   35  C   UNL     1      29.722  45.262  56.505  1.00  0.00     0.010 A 
HETATM   36  C   UNL     1      30.754  45.237  57.450  1.00  0.00     0.001 A 
HETATM   37  C   UNL     1      31.687  44.208  57.440  1.00  0.00     0.000 A 
HETATM   38  C   UNL     1      31.590  43.202  56.486  1.00  0.00     0.001 A 
HETATM   39  C   UNL     1      30.563  43.230  55.538  1.00  0.00     0.010 A 
ENDBRANCH  25  34
ENDBRANCH   5  25
TORSDOF 8
ENDMDL
MODEL 5
REMARK VINA RESULT:      -8.8      2.692      4.526
REMARK  8 active torsions:
REMARK  status: ('A' for Active; 'I' for Inactive)
REMARK    1  A    between atoms: O_2  and  C_3 
REMARK    2  A    between atoms: C_4  and  O_5 
REMARK    3  A    between atoms: C_13  and  C_14 
REMARK    4  A    between atoms: C_14  and  N_15 
REMARK    5  A    between atoms: C_19  and  C_20 
REMARK    6  A    between atoms: C_20  and  O_21 
REMARK    7  A    between atoms: C_20  and  C_22 
REMARK    8  A    between atoms: C_20  and  C_28 
ROOT
HETATM    1  N   UNL     1      24.337  43.060  49.303  1.00  0.00    -0.064 N 
HETATM    2  H   UNL     1      24.936  42.303  48.952  1.00  0.00     0.280 HD
HETATM    3  C   UNL     1      25.008  44.349  48.861  1.00  0.00     0.236 C 
HETATM    4  C   UNL     1      26.356  44.500  49.550  1.00  0.00     0.036 C 
HETATM    5  C   UNL     1      26.271  44.462  51.094  1.00  0.00     0.033 C 
HETATM    6  C   UNL     1      25.612  43.110  51.452  1.00  0.00     0.036 C 
HETATM    7  C   UNL     1      24.256  42.887  50.799  1.00  0.00     0.236 C 
ENDROOT
BRANCH   1   8
HETATM    8  C   UNL     1      22.973  42.872  48.616  1.00  0.00     0.313 C 
BRANCH   8   9
HETATM    9  C   UNL     1      22.378  44.174  48.078  1.00  0.00     0.133 A 
HETATM   10  N   UNL     1      22.582  44.448  46.752  1.00  0.00    -0.309 N 
HETATM   11  C   UNL     1      21.945  45.471  46.097  1.00  0.00     0.259 A 
HETATM   12  H   UNL     1      23.155  43.873  46.151  1.00  0.00     0.170 HD
HETATM   13  C   UNL     1      21.113  46.351  46.932  1.00  0.00     0.064 A 
HETATM   14  O   UNL     1      22.043  45.602  44.885  1.00  0.00    -0.267 OA
HETATM   15  C   UNL     1      21.027  46.046  48.291  1.00  0.00     0.077 A 
HETATM   16  C   UNL     1      20.426  47.432  46.374  1.00  0.00     0.059 A 
HETATM   17  C   UNL     1      20.244  46.859  49.111  1.00  0.00     0.072 A 
HETATM   18  N   UNL     1      21.656  44.918  48.852  1.00  0.00    -0.233 NA
HETATM   19  C   UNL     1      19.553  47.955  48.578  1.00  0.00     0.103 A 
HETATM   20  C   UNL     1      19.633  48.236  47.196  1.00  0.00     0.102 A 
BRANCH  19  21
HETATM   21  O   UNL     1      18.748  48.788  49.314  1.00  0.00    -0.353 OA
HETATM   22  C   UNL     1      18.668  48.560  50.715  1.00  0.00     0.210 C 
ENDBRANCH  19  21
BRANCH  20  23
HETATM   23  O   UNL     1      18.908  49.313  46.758  1.00  0.00    -0.353 OA
HETATM   24  C   UNL     1      17.818  49.072  45.879  1.00  0.00     0.210 C 
ENDBRANCH  20  23
ENDBRANCH   8   9
ENDBRANCH   1   8
BRANCH   5  25
HETATM   25  C   UNL     1      25.577  45.733  51.745  1.00  0.00     0.116 C 
BRANCH  25  26
HETATM   26  O   UNL     1      24.246  45.326  52.109  1.00  0.00    -0.380 OA
HETATM   27  H   UNL     1      24.235  44.353  52.020  1.00  0.00     0.211 HD
ENDBRANCH  25  26
BRANCH  25  28
HETATM   28  C   UNL     1      26.305  46.149  53.044  1.00  0.00    -0.019 A 
HETATM   29  C   UNL     1      27.307  45.347  53.620  1.00  0.00     0.010 A 
HETATM   30  C   UNL     1      27.947  45.719  54.808  1.00  0.00     0.001 A 
HETATM   31  C   UNL     1      27.593  46.895  55.457  1.00  0.00     0.000 A 
HETATM   32  C   UNL     1      26.597  47.702  54.922  1.00  0.00     0.001 A 
HETATM   33  C   UNL     1      25.959  47.333  53.734  1.00  0.00     0.010 A 
ENDBRANCH  25  28
BRANCH  25  34
HETATM   34  C   UNL     1      25.427  46.898  50.736  1.00  0.00    -0.019 A 
HETATM   35  C   UNL     1      24.167  47.299  50.246  1.00  0.00     0.010 A 
HETATM   36  C   UNL     1      24.039  48.339  49.318  1.00  0.00     0.001 A 
HETATM   37  C   UNL     1      25.166  49.013  48.863  1.00  0.00     0.000 A 
HETATM   38  C   UNL     1      26.421  48.649  49.334  1.00  0.00     0.001 A 
HETATM   39  C   UNL     1      26.550  47.605  50.256  1.00  0.00     0.010 A 
ENDBRANCH  25  34
ENDBRANCH   5  25
TORSDOF 8
ENDMDL
MODEL 6
REMARK VINA RESULT:      -8.8      2.151      3.317
REMARK  8 active torsions:
REMARK  status: ('A' for Active; 'I' for Inactive)
REMARK    1  A    between atoms: O_2  and  C_3 
REMARK    2  A    between atoms: C_4  and  O_5 
REMARK    3  A    between atoms: C_13  and  C_14 
REMARK    4  A    between atoms: C_14  and  N_15 
REMARK    5  A    between atoms: C_19  and  C_20 
REMARK    6  A    between atoms: C_20  and  O_21 
REMARK    7  A    between atoms: C_20  and  C_22 
REMARK    8  A    between atoms: C_20  and  C_28 
ROOT
HETATM    1  N   UNL     1      25.082  46.106  51.776  1.00  0.00    -0.064 N 
HETATM    2  H   UNL     1      24.107  46.261  52.062  1.00  0.00     0.280 HD
HETATM    3  C   UNL     1      25.385  44.660  52.125  1.00  0.00     0.236 C 
HETATM    4  C   UNL     1      25.332  44.463  53.633  1.00  0.00     0.036 C 
HETATM    5  C   UNL     1      26.288  45.397  54.413  1.00  0.00     0.033 C 
HETATM    6  C   UNL     1      25.886  46.839  54.026  1.00  0.00     0.036 C 
HETATM    7  C   UNL     1      25.916  47.112  52.530  1.00  0.00     0.236 C 
ENDROOT
BRANCH   1   8
HETATM    8  C   UNL     1      25.117  46.338  50.254  1.00  0.00     0.313 C 
BRANCH   8   9
HETATM    9  C   UNL     1      23.884  47.068  49.722  1.00  0.00     0.133 A 
HETATM   10  N   UNL     1      23.763  48.395  50.037  1.00  0.00    -0.309 N 
HETATM   11  C   UNL     1      22.820  49.212  49.469  1.00  0.00     0.259 A 
HETATM   12  H   UNL     1      24.406  48.877  50.650  1.00  0.00     0.170 HD
HETATM   13  C   UNL     1      21.848  48.555  48.583  1.00  0.00     0.064 A 
HETATM   14  O   UNL     1      22.829  50.419  49.667  1.00  0.00    -0.267 OA
HETATM   15  C   UNL     1      21.995  47.182  48.381  1.00  0.00     0.077 A 
HETATM   16  C   UNL     1      20.836  49.287  47.957  1.00  0.00     0.059 A 
HETATM   17  C   UNL     1      21.091  46.527  47.544  1.00  0.00     0.072 A 
HETATM   18  N   UNL     1      23.053  46.446  48.949  1.00  0.00    -0.233 NA
HETATM   19  C   UNL     1      20.062  47.237  46.913  1.00  0.00     0.103 A 
HETATM   20  C   UNL     1      19.941  48.631  47.109  1.00  0.00     0.102 A 
BRANCH  19  21
HETATM   21  O   UNL     1      19.147  46.670  46.060  1.00  0.00    -0.353 OA
HETATM   22  C   UNL     1      19.640  46.059  44.875  1.00  0.00     0.210 C 
ENDBRANCH  19  21
BRANCH  20  23
HETATM   23  O   UNL     1      18.919  49.247  46.436  1.00  0.00    -0.353 OA
HETATM   24  C   UNL     1      17.751  49.595  47.167  1.00  0.00     0.210 C 
ENDBRANCH  20  23
ENDBRANCH   8   9
ENDBRANCH   1   8
BRANCH   5  25
HETATM   25  C   UNL     1      27.829  45.064  54.228  1.00  0.00     0.116 C 
BRANCH  25  26
HETATM   26  O   UNL     1      28.335  46.008  53.268  1.00  0.00    -0.380 OA
HETATM   27  H   UNL     1      27.570  46.562  53.016  1.00  0.00     0.211 HD
ENDBRANCH  25  26
BRANCH  25  28
HETATM   28  C   UNL     1      28.600  45.288  55.549  1.00  0.00    -0.019 A 
HETATM   29  C   UNL     1      28.066  46.062  56.596  1.00  0.00     0.010 A 
HETATM   30  C   UNL     1      28.779  46.278  57.780  1.00  0.00     0.001 A 
HETATM   31  C   UNL     1      30.049  45.740  57.943  1.00  0.00     0.000 A 
HETATM   32  C   UNL     1      30.611  44.984  56.923  1.00  0.00     0.001 A 
HETATM   33  C   UNL     1      29.899  44.763  55.740  1.00  0.00     0.010 A 
ENDBRANCH  25  28
BRANCH  25  34
HETATM   34  C   UNL     1      28.053  43.654  53.628  1.00  0.00    -0.019 A 
HETATM   35  C   UNL     1      28.637  43.471  52.357  1.00  0.00     0.010 A 
HETATM   36  C   UNL     1      28.819  42.195  51.811  1.00  0.00     0.001 A 
HETATM   37  C   UNL     1      28.433  41.068  52.524  1.00  0.00     0.000 A 
HETATM   38  C   UNL     1      27.864  41.213  53.784  1.00  0.00     0.001 A 
HETATM   39  C   UNL     1      27.676  42.487  54.327  1.00  0.00     0.010 A 
ENDBRANCH  25  34
ENDBRANCH   5  25
TORSDOF 8
ENDMDL
MODEL 7
REMARK VINA RESULT:      -8.7      2.242     11.110
REMARK  8 active torsions:
REMARK  status: ('A' for Active; 'I' for Inactive)
REMARK    1  A    between atoms: O_2  and  C_3 
REMARK    2  A    between atoms: C_4  and  O_5 
REMARK    3  A    between atoms: C_13  and  C_14 
REMARK    4  A    between atoms: C_14  and  N_15 
REMARK    5  A    between atoms: C_19  and  C_20 
REMARK    6  A    between atoms: C_20  and  O_21 
REMARK    7  A    between atoms: C_20  and  C_22 
REMARK    8  A    between atoms: C_20  and  C_28 
ROOT
HETATM    1  N   UNL     1      21.616  49.297  49.626  1.00  0.00    -0.064 N 
HETATM    2  H   UNL     1      21.890  49.230  50.614  1.00  0.00     0.280 HD
HETATM    3  C   UNL     1      21.380  50.774  49.366  1.00  0.00     0.236 C 
HETATM    4  C   UNL     1      20.196  51.266  50.184  1.00  0.00     0.036 C 
HETATM    5  C   UNL     1      18.891  50.477  49.921  1.00  0.00     0.033 C 
HETATM    6  C   UNL     1      19.212  49.000  50.242  1.00  0.00     0.036 C 
HETATM    7  C   UNL     1      20.389  48.436  49.460  1.00  0.00     0.236 C 
ENDROOT
BRANCH   1   8
HETATM    8  C   UNL     1      22.817  48.768  48.820  1.00  0.00     0.313 C 
BRANCH   8   9
HETATM    9  C   UNL     1      23.569  47.637  49.521  1.00  0.00     0.133 A 
HETATM   10  N   UNL     1      23.585  46.419  48.894  1.00  0.00    -0.309 N 
HETATM   11  C   UNL     1      24.378  45.379  49.307  1.00  0.00     0.259 A 
HETATM   12  H   UNL     1      23.073  46.230  48.043  1.00  0.00     0.170 HD
HETATM   13  C   UNL     1      25.130  45.598  50.551  1.00  0.00     0.064 A 
HETATM   14  O   UNL     1      24.473  44.356  48.643  1.00  0.00    -0.267 OA
HETATM   15  C   UNL     1      24.991  46.841  51.170  1.00  0.00     0.077 A 
HETATM   16  C   UNL     1      25.963  44.604  51.073  1.00  0.00     0.059 A 
HETATM   17  C   UNL     1      25.693  47.083  52.352  1.00  0.00     0.072 A 
HETATM   18  N   UNL     1      24.213  47.876  50.618  1.00  0.00    -0.233 NA
HETATM   19  C   UNL     1      26.526  46.099  52.900  1.00  0.00     0.103 A 
HETATM   20  C   UNL     1      26.673  44.855  52.248  1.00  0.00     0.102 A 
BRANCH  19  21
HETATM   21  O   UNL     1      27.264  46.267  54.046  1.00  0.00    -0.353 OA
HETATM   22  C   UNL     1      26.956  47.383  54.870  1.00  0.00     0.210 C 
ENDBRANCH  19  21
BRANCH  20  23
HETATM   23  O   UNL     1      27.525  43.960  52.843  1.00  0.00    -0.353 OA
HETATM   24  C   UNL     1      28.656  43.521  52.104  1.00  0.00     0.210 C 
ENDBRANCH  20  23
ENDBRANCH   8   9
ENDBRANCH   1   8
BRANCH   5  25
HETATM   25  C   UNL     1      18.252  50.723  48.488  1.00  0.00     0.116 C 
BRANCH  25  26
HETATM   26  O   UNL     1      19.270  51.359  47.695  1.00  0.00    -0.380 OA
HETATM   27  H   UNL     1      18.812  52.061  47.193  1.00  0.00     0.211 HD
ENDBRANCH  25  26
BRANCH  25  28
HETATM   28  C   UNL     1      17.905  49.380  47.806  1.00  0.00    -0.019 A 
HETATM   29  C   UNL     1      18.583  48.937  46.656  1.00  0.00     0.010 A 
HETATM   30  C   UNL     1      18.248  47.731  46.031  1.00  0.00     0.001 A 
HETATM   31  C   UNL     1      17.219  46.942  46.531  1.00  0.00     0.000 A 
HETATM   32  C   UNL     1      16.520  47.359  47.656  1.00  0.00     0.001 A 
HETATM   33  C   UNL     1      16.855  48.562  48.283  1.00  0.00     0.010 A 
ENDBRANCH  25  28
BRANCH  25  34
HETATM   34  C   UNL     1      17.054  51.703  48.543  1.00  0.00    -0.019 A 
HETATM   35  C   UNL     1      16.647  52.314  49.747  1.00  0.00     0.010 A 
HETATM   36  C   UNL     1      15.551  53.183  49.794  1.00  0.00     0.001 A 
HETATM   37  C   UNL     1      14.839  53.473  48.637  1.00  0.00     0.000 A 
HETATM   38  C   UNL     1      15.220  52.894  47.432  1.00  0.00     0.001 A 
HETATM   39  C   UNL     1      16.311  52.022  47.387  1.00  0.00     0.010 A 
ENDBRANCH  25  34
ENDBRANCH   5  25
TORSDOF 8
ENDMDL
MODEL 8
REMARK VINA RESULT:      -8.7      2.500     11.198
REMARK  8 active torsions:
REMARK  status: ('A' for Active; 'I' for Inactive)
REMARK    1  A    between atoms: O_2  and  C_3 
REMARK    2  A    between atoms: C_4  and  O_5 
REMARK    3  A    between atoms: C_13  and  C_14 
REMARK    4  A    between atoms: C_14  and  N_15 
REMARK    5  A    between atoms: C_19  and  C_20 
REMARK    6  A    between atoms: C_20  and  O_21 
REMARK    7  A    between atoms: C_20  and  C_22 
REMARK    8  A    between atoms: C_20  and  C_28 
ROOT
HETATM    1  N   UNL     1      21.658  47.646  48.644  1.00  0.00    -0.064 N 
HETATM    2  H   UNL     1      21.518  46.697  49.010  1.00  0.00     0.280 HD
HETATM    3  C   UNL     1      20.734  48.537  49.454  1.00  0.00     0.236 C 
HETATM    4  C   UNL     1      19.282  48.171  49.181  1.00  0.00     0.036 C 
HETATM    5  C   UNL     1      18.896  48.245  47.684  1.00  0.00     0.033 C 
HETATM    6  C   UNL     1      19.859  47.287  46.947  1.00  0.00     0.036 C 
HETATM    7  C   UNL     1      21.333  47.593  47.172  1.00  0.00     0.236 C 
ENDROOT
BRANCH   1   8
HETATM    8  C   UNL     1      23.137  47.985  48.905  1.00  0.00     0.313 C 
BRANCH   8   9
HETATM    9  C   UNL     1      23.796  47.073  49.941  1.00  0.00     0.133 A 
HETATM   10  N   UNL     1      23.600  45.726  49.796  1.00  0.00    -0.309 N 
HETATM   11  C   UNL     1      24.285  44.790  50.529  1.00  0.00     0.259 A 
HETATM   12  H   UNL     1      22.994  45.329  49.091  1.00  0.00     0.170 HD
HETATM   13  C   UNL     1      25.165  45.317  51.582  1.00  0.00     0.064 A 
HETATM   14  O   UNL     1      24.188  43.598  50.277  1.00  0.00    -0.267 OA
HETATM   15  C   UNL     1      25.243  46.704  51.715  1.00  0.00     0.077 A 
HETATM   16  C   UNL     1      25.904  44.456  52.398  1.00  0.00     0.059 A 
HETATM   17  C   UNL     1      26.071  47.236  52.704  1.00  0.00     0.072 A 
HETATM   18  N   UNL     1      24.559  47.583  50.854  1.00  0.00    -0.233 NA
HETATM   19  C   UNL     1      26.814  46.394  53.541  1.00  0.00     0.103 A 
HETATM   20  C   UNL     1      26.742  44.993  53.377  1.00  0.00     0.102 A 
BRANCH  19  21
HETATM   21  O   UNL     1      27.665  46.841  54.521  1.00  0.00    -0.353 OA
HETATM   22  C   UNL     1      27.212  47.899  55.355  1.00  0.00     0.210 C 
ENDBRANCH  19  21
BRANCH  20  23
HETATM   23  O   UNL     1      27.520  44.248  54.225  1.00  0.00    -0.353 OA
HETATM   24  C   UNL     1      27.403  42.833  54.169  1.00  0.00     0.210 C 
ENDBRANCH  20  23
ENDBRANCH   8   9
ENDBRANCH   1   8
BRANCH   5  25
HETATM   25  C   UNL     1      18.839  49.717  47.093  1.00  0.00     0.116 C 
BRANCH  25  26
HETATM   26  O   UNL     1      20.197  50.187  47.044  1.00  0.00    -0.380 OA
HETATM   27  H   UNL     1      20.535  50.111  47.958  1.00  0.00     0.211 HD
ENDBRANCH  25  26
BRANCH  25  28
HETATM   28  C   UNL     1      18.301  49.704  45.643  1.00  0.00    -0.019 A 
HETATM   29  C   UNL     1      18.608  50.731  44.731  1.00  0.00     0.010 A 
HETATM   30  C   UNL     1      18.100  50.723  43.427  1.00  0.00     0.001 A 
HETATM   31  C   UNL     1      17.263  49.698  43.005  1.00  0.00     0.000 A 
HETATM   32  C   UNL     1      16.929  48.678  43.885  1.00  0.00     0.001 A 
HETATM   33  C   UNL     1      17.438  48.682  45.188  1.00  0.00     0.010 A 
ENDBRANCH  25  28
BRANCH  25  34
HETATM   34  C   UNL     1      18.064  50.688  48.017  1.00  0.00    -0.019 A 
HETATM   35  C   UNL     1      16.668  50.593  48.194  1.00  0.00     0.010 A 
HETATM   36  C   UNL     1      15.971  51.487  49.015  1.00  0.00     0.001 A 
HETATM   37  C   UNL     1      16.651  52.492  49.690  1.00  0.00     0.000 A 
HETATM   38  C   UNL     1      18.029  52.607  49.546  1.00  0.00     0.001 A 
HETATM   39  C   UNL     1      18.724  51.718  48.721  1.00  0.00     0.010 A 
ENDBRANCH  25  34
ENDBRANCH   5  25
TORSDOF 8
ENDMDL
MODEL 9
REMARK VINA RESULT:      -8.5      4.821      7.579
REMARK  8 active torsions:
REMARK  status: ('A' for Active; 'I' for Inactive)
REMARK    1  A    between atoms: O_2  and  C_3 
REMARK    2  A    between atoms: C_4  and  O_5 
REMARK    3  A    between atoms: C_13  and  C_14 
REMARK    4  A    between atoms: C_14  and  N_15 
REMARK    5  A    between atoms: C_19  and  C_20 
REMARK    6  A    between atoms: C_20  and  O_21 
REMARK    7  A    between atoms: C_20  and  C_22 
REMARK    8  A    between atoms: C_20  and  C_28 
ROOT
HETATM    1  N   UNL     1      24.925  45.794  52.224  1.00  0.00    -0.064 N 
HETATM    2  H   UNL     1      23.992  45.976  52.615  1.00  0.00     0.280 HD
HETATM    3  C   UNL     1      25.305  44.404  52.702  1.00  0.00     0.236 C 
HETATM    4  C   UNL     1      25.453  44.393  54.216  1.00  0.00     0.036 C 
HETATM    5  C   UNL     1      26.480  45.423  54.745  1.00  0.00     0.033 C 
HETATM    6  C   UNL     1      25.998  46.804  54.244  1.00  0.00     0.036 C 
HETATM    7  C   UNL     1      25.826  46.891  52.734  1.00  0.00     0.236 C 
ENDROOT
BRANCH   1   8
HETATM    8  C   UNL     1      24.757  45.837  50.695  1.00  0.00     0.313 C 
BRANCH   8   9
HETATM    9  C   UNL     1      24.686  44.452  50.052  1.00  0.00     0.133 A 
HETATM   10  N   UNL     1      23.441  43.978  49.733  1.00  0.00    -0.309 N 
HETATM   11  C   UNL     1      23.244  42.848  48.981  1.00  0.00     0.259 A 
HETATM   12  H   UNL     1      22.588  44.468  49.966  1.00  0.00     0.170 HD
HETATM   13  C   UNL     1      24.454  42.089  48.632  1.00  0.00     0.064 A 
HETATM   14  O   UNL     1      22.127  42.532  48.598  1.00  0.00    -0.267 OA
HETATM   15  C   UNL     1      25.677  42.600  49.069  1.00  0.00     0.077 A 
HETATM   16  C   UNL     1      24.374  40.915  47.878  1.00  0.00     0.059 A 
HETATM   17  C   UNL     1      26.845  41.905  48.753  1.00  0.00     0.072 A 
HETATM   18  N   UNL     1      25.778  43.818  49.768  1.00  0.00    -0.233 NA
HETATM   19  C   UNL     1      26.789  40.721  48.006  1.00  0.00     0.103 A 
HETATM   20  C   UNL     1      25.545  40.230  47.553  1.00  0.00     0.102 A 
BRANCH  19  21
HETATM   21  O   UNL     1      27.894  39.992  47.638  1.00  0.00    -0.353 OA
HETATM   22  C   UNL     1      28.873  39.732  48.634  1.00  0.00     0.210 C 
ENDBRANCH  19  21
BRANCH  20  23
HETATM   23  O   UNL     1      25.588  39.078  46.811  1.00  0.00    -0.353 OA
HETATM   24  C   UNL     1      24.945  39.075  45.544  1.00  0.00     0.210 C 
ENDBRANCH  20  23
ENDBRANCH   8   9
ENDBRANCH   1   8
BRANCH   5  25
HETATM   25  C   UNL     1      27.991  45.081  54.400  1.00  0.00     0.116 C 
BRANCH  25  26
HETATM   26  O   UNL     1      28.426  46.075  53.455  1.00  0.00    -0.380 OA
HETATM   27  H   UNL     1      27.612  46.519  53.147  1.00  0.00     0.211 HD
ENDBRANCH  25  26
BRANCH  25  28
HETATM   28  C   UNL     1      28.883  45.214  55.655  1.00  0.00    -0.019 A 
HETATM   29  C   UNL     1      30.103  44.523  55.773  1.00  0.00     0.010 A 
HETATM   30  C   UNL     1      30.895  44.632  56.922  1.00  0.00     0.001 A 
HETATM   31  C   UNL     1      30.483  45.423  57.987  1.00  0.00     0.000 A 
HETATM   32  C   UNL     1      29.277  46.106  57.908  1.00  0.00     0.001 A 
HETATM   33  C   UNL     1      28.486  46.001  56.760  1.00  0.00     0.010 A 
ENDBRANCH  25  28
BRANCH  25  34
HETATM   34  C   UNL     1      28.134  43.708  53.699  1.00  0.00    -0.019 A 
HETATM   35  C   UNL     1      28.583  43.596  52.366  1.00  0.00     0.010 A 
HETATM   36  C   UNL     1      28.690  42.354  51.731  1.00  0.00     0.001 A 
HETATM   37  C   UNL     1      28.362  41.189  52.413  1.00  0.00     0.000 A 
HETATM   38  C   UNL     1      27.926  41.263  53.731  1.00  0.00     0.001 A 
HETATM   39  C   UNL     1      27.813  42.505  54.363  1.00  0.00     0.010 A 
ENDBRANCH  25  34
ENDBRANCH   5  25
TORSDOF 8
ENDMDL
MODEL 10
REMARK VINA RESULT:      -8.5      6.745      9.888
REMARK  8 active torsions:
REMARK  status: ('A' for Active; 'I' for Inactive)
REMARK    1  A    between atoms: O_2  and  C_3 
REMARK    2  A    between atoms: C_4  and  O_5 
REMARK    3  A    between atoms: C_13  and  C_14 
REMARK    4  A    between atoms: C_14  and  N_15 
REMARK    5  A    between atoms: C_19  and  C_20 
REMARK    6  A    between atoms: C_20  and  O_21 
REMARK    7  A    between atoms: C_20  and  C_22 
REMARK    8  A    between atoms: C_20  and  C_28 
ROOT
HETATM    1  N   UNL     1      28.044  41.700  51.492  1.00  0.00    -0.064 N 
HETATM    2  H   UNL     1      28.632  41.687  50.649  1.00  0.00     0.280 HD
HETATM    3  C   UNL     1      27.503  43.115  51.591  1.00  0.00     0.236 C 
HETATM    4  C   UNL     1      28.642  44.095  51.833  1.00  0.00     0.036 C 
HETATM    5  C   UNL     1      29.479  43.770  53.093  1.00  0.00     0.033 C 
HETATM    6  C   UNL     1      30.015  42.334  52.891  1.00  0.00     0.036 C 
HETATM    7  C   UNL     1      28.931  41.296  52.643  1.00  0.00     0.236 C 
ENDROOT
BRANCH   1   8
HETATM    8  C   UNL     1      26.916  40.683  51.235  1.00  0.00     0.313 C 
BRANCH   8   9
HETATM    9  C   UNL     1      27.082  39.909  49.927  1.00  0.00     0.133 A 
HETATM   10  N   UNL     1      26.730  38.586  49.941  1.00  0.00    -0.309 N 
HETATM   11  C   UNL     1      26.642  37.827  48.802  1.00  0.00     0.259 A 
HETATM   12  H   UNL     1      26.439  38.100  50.779  1.00  0.00     0.170 HD
HETATM   13  C   UNL     1      27.072  38.482  47.558  1.00  0.00     0.064 A 
HETATM   14  O   UNL     1      26.191  36.691  48.834  1.00  0.00    -0.267 OA
HETATM   15  C   UNL     1      27.495  39.809  47.648  1.00  0.00     0.077 A 
HETATM   16  C   UNL     1      27.036  37.802  46.337  1.00  0.00     0.059 A 
HETATM   17  C   UNL     1      27.908  40.461  46.485  1.00  0.00     0.072 A 
HETATM   18  N   UNL     1      27.469  40.527  48.859  1.00  0.00    -0.233 NA
HETATM   19  C   UNL     1      27.890  39.797  45.252  1.00  0.00     0.103 A 
HETATM   20  C   UNL     1      27.437  38.462  45.175  1.00  0.00     0.102 A 
BRANCH  19  21
HETATM   21  O   UNL     1      28.261  40.376  44.063  1.00  0.00    -0.353 OA
HETATM   22  C   UNL     1      27.426  41.401  43.540  1.00  0.00     0.210 C 
ENDBRANCH  19  21
BRANCH  20  23
HETATM   23  O   UNL     1      27.434  37.900  43.924  1.00  0.00    -0.353 OA
HETATM   24  C   UNL     1      26.728  36.680  43.742  1.00  0.00     0.210 C 
ENDBRANCH  20  23
ENDBRANCH   8   9
ENDBRANCH   1   8
BRANCH   5  25
HETATM   25  C   UNL     1      28.721  44.010  54.467  1.00  0.00     0.116 C 
BRANCH  25  26
HETATM   26  O   UNL     1      27.905  42.846  54.688  1.00  0.00    -0.380 OA
HETATM   27  H   UNL     1      28.388  42.307  55.345  1.00  0.00     0.211 HD
ENDBRANCH  25  26
BRANCH  25  28
HETATM   28  C   UNL     1      29.725  44.100  55.638  1.00  0.00    -0.019 A 
HETATM   29  C   UNL     1      30.705  43.113  55.852  1.00  0.00     0.010 A 
HETATM   30  C   UNL     1      31.596  43.190  56.927  1.00  0.00     0.001 A 
HETATM   31  C   UNL     1      31.524  44.248  57.825  1.00  0.00     0.000 A 
HETATM   32  C   UNL     1      30.559  45.231  57.652  1.00  0.00     0.001 A 
HETATM   33  C   UNL     1      29.669  45.157  56.576  1.00  0.00     0.010 A 
ENDBRANCH  25  28
BRANCH  25  34
HETATM   34  C   UNL     1      27.759  45.222  54.399  1.00  0.00    -0.019 A 
HETATM   35  C   UNL     1      26.370  45.060  54.215  1.00  0.00     0.010 A 
HETATM   36  C   UNL     1      25.509  46.160  54.134  1.00  0.00     0.001 A 
HETATM   37  C   UNL     1      26.010  47.451  54.245  1.00  0.00     0.000 A 
HETATM   38  C   UNL     1      27.373  47.645  54.437  1.00  0.00     0.001 A 
HETATM   39  C   UNL     1      28.234  46.546  54.512  1.00  0.00     0.010 A 
ENDBRANCH  25  34
ENDBRANCH   5  25
TORSDOF 8
ENDMDL
