MODEL 1
REMARK VINA RESULT:     -10.0      0.000      0.000
REMARK  6 active torsions:
REMARK  status: ('A' for Active; 'I' for Inactive)
REMARK    1  A    between atoms: C_4  and  C_5 
REMARK    2  A    between atoms: C_5  and  O_6 
REMARK    3  A    between atoms: O_6  and  C_7 
REMARK    4  A    between atoms: C_10  and  C_11 
REMARK    5  A    between atoms: C_17  and  C_18 
REMARK    6  A    between atoms: C_27  and  N_28 
ROOT
HETATM    1  C   UNL     1      26.279  44.248  49.738  1.00  0.00     0.072 A 
HETATM    2  N   UNL     1      25.786  43.308  48.858  1.00  0.00    -0.274 N 
HETATM    3  H   UNL     1      25.138  43.459  48.092  1.00  0.00     0.189 HD
HETATM    4  N   UNL     1      26.244  42.057  49.074  1.00  0.00    -0.148 NA
HETATM    5  C   UNL     1      27.050  42.226  50.114  1.00  0.00     0.199 A 
HETATM    6  C   UNL     1      27.116  43.539  50.583  1.00  0.00     0.040 A 
HETATM    7  C   UNL     1      27.955  43.882  51.763  1.00  0.00     0.106 A 
HETATM    8  C   UNL     1      28.694  42.655  52.283  1.00  0.00     0.081 A 
HETATM    9  C   UNL     1      29.606  42.870  53.359  1.00  0.00     0.100 C 
HETATM   10  N   UNL     1      30.344  43.056  54.235  1.00  0.00    -0.191 NA
HETATM   11  C   UNL     1      28.550  41.419  51.736  1.00  0.00     0.140 A 
HETATM   12  O   UNL     1      27.702  41.177  50.647  1.00  0.00    -0.277 OA
ENDROOT
BRANCH   7  13
HETATM   13  C   UNL     1      27.021  44.501  52.794  1.00  0.00    -0.041 A 
HETATM   14  C   UNL     1      25.966  43.790  53.385  1.00  0.00     0.027 A 
HETATM   15  C   UNL     1      25.166  44.431  54.318  1.00  0.00     0.116 A 
HETATM   16  N   UNL     1      25.344  45.708  54.712  1.00  0.00    -0.273 NA
HETATM   17  C   UNL     1      26.369  46.377  54.146  1.00  0.00     0.116 A 
HETATM   18  C   UNL     1      27.223  45.826  53.203  1.00  0.00     0.027 A 
ENDBRANCH   7  13
BRANCH  11  19
HETATM   19  N   UNL     1      29.201  40.282  52.164  1.00  0.00    -0.282 NA
HETATM   20  H   UNL     1      29.706  39.762  51.450  1.00  0.00     0.126 HD
HETATM   21  H   UNL     1      29.753  40.450  53.003  1.00  0.00     0.126 HD
ENDBRANCH  11  19
BRANCH   1  22
HETATM   22  C   UNL     1      25.876  45.645  49.727  1.00  0.00    -0.007 A 
HETATM   23  C   UNL     1      26.838  46.655  49.605  1.00  0.00     0.016 A 
HETATM   24  C   UNL     1      26.447  47.990  49.490  1.00  0.00     0.037 A 
HETATM   25  C   UNL     1      25.094  48.320  49.475  1.00  0.00     0.069 A 
HETATM   26  C   UNL     1      24.129  47.331  49.657  1.00  0.00     0.037 A 
HETATM   27  C   UNL     1      24.521  45.995  49.776  1.00  0.00     0.016 A 
BRANCH  25  28
HETATM   28  O   UNL     1      24.795  49.642  49.302  1.00  0.00    -0.347 OA
BRANCH  28  29
HETATM   29  C   UNL     1      24.025  49.903  48.122  1.00  0.00     0.214 C 
BRANCH  29  30
HETATM   30  C   UNL     1      22.640  50.364  48.514  1.00  0.00    -0.034 A 
HETATM   31  C   UNL     1      21.628  50.464  47.547  1.00  0.00     0.009 A 
HETATM   32  C   UNL     1      20.343  50.874  47.905  1.00  0.00     0.001 A 
HETATM   33  C   UNL     1      20.053  51.184  49.232  1.00  0.00     0.000 A 
HETATM   34  C   UNL     1      21.046  51.080  50.203  1.00  0.00     0.001 A 
HETATM   35  C   UNL     1      22.332  50.668  49.848  1.00  0.00     0.009 A 
ENDBRANCH  29  30
ENDBRANCH  28  29
ENDBRANCH  25  28
ENDBRANCH   1  22
TORSDOF 6
ENDMDL
MODEL 2
REMARK VINA RESULT:      -9.1      3.158      8.468
REMARK  6 active torsions:
REMARK  status: ('A' for Active; 'I' for Inactive)
REMARK    1  A    between atoms: C_4  and  C_5 
REMARK    2  A    between atoms: C_5  and  O_6 
REMARK    3  A    between atoms: O_6  and  C_7 
REMARK    4  A    between atoms: C_10  and  C_11 
REMARK    5  A    between atoms: C_17  and  C_18 
REMARK    6  A    between atoms: C_27  and  N_28 
ROOT
HETATM    1  C   UNL     1      23.715  45.410  48.883  1.00  0.00     0.072 A 
HETATM    2  N   UNL     1      23.124  44.697  47.861  1.00  0.00    -0.274 N 
HETATM    3  H   UNL     1      23.297  43.732  47.601  1.00  0.00     0.189 HD
HETATM    4  N   UNL     1      22.218  45.401  47.151  1.00  0.00    -0.148 NA
HETATM    5  C   UNL     1      22.241  46.583  47.754  1.00  0.00     0.199 A 
HETATM    6  C   UNL     1      23.141  46.668  48.818  1.00  0.00     0.040 A 
HETATM    7  C   UNL     1      23.303  47.939  49.574  1.00  0.00     0.106 A 
HETATM    8  C   UNL     1      22.358  49.013  49.047  1.00  0.00     0.081 A 
HETATM    9  C   UNL     1      22.350  50.254  49.751  1.00  0.00     0.100 C 
HETATM   10  N   UNL     1      22.353  51.260  50.328  1.00  0.00    -0.191 NA
HETATM   11  C   UNL     1      21.518  48.808  47.999  1.00  0.00     0.140 A 
HETATM   12  O   UNL     1      21.460  47.586  47.314  1.00  0.00    -0.277 OA
ENDROOT
BRANCH   7  13
HETATM   13  C   UNL     1      24.771  48.326  49.461  1.00  0.00    -0.041 A 
HETATM   14  C   UNL     1      25.758  47.815  50.316  1.00  0.00     0.027 A 
HETATM   15  C   UNL     1      27.073  48.220  50.139  1.00  0.00     0.116 A 
HETATM   16  N   UNL     1      27.475  49.075  49.176  1.00  0.00    -0.273 NA
HETATM   17  C   UNL     1      26.518  49.549  48.352  1.00  0.00     0.116 A 
HETATM   18  C   UNL     1      25.178  49.208  48.449  1.00  0.00     0.027 A 
ENDBRANCH   7  13
BRANCH  11  19
HETATM   19  N   UNL     1      20.640  49.741  47.492  1.00  0.00    -0.282 NA
HETATM   20  H   UNL     1      20.812  50.042  46.536  1.00  0.00     0.126 HD
HETATM   21  H   UNL     1      19.669  49.485  47.664  1.00  0.00     0.126 HD
ENDBRANCH  11  19
BRANCH   1  22
HETATM   22  C   UNL     1      24.761  44.869  49.737  1.00  0.00    -0.007 A 
HETATM   23  C   UNL     1      26.014  44.549  49.202  1.00  0.00     0.016 A 
HETATM   24  C   UNL     1      27.050  44.129  50.037  1.00  0.00     0.037 A 
HETATM   25  C   UNL     1      26.846  44.047  51.412  1.00  0.00     0.069 A 
HETATM   26  C   UNL     1      25.587  44.305  51.951  1.00  0.00     0.037 A 
HETATM   27  C   UNL     1      24.548  44.721  51.114  1.00  0.00     0.016 A 
BRANCH  25  28
HETATM   28  O   UNL     1      27.927  43.682  52.165  1.00  0.00    -0.347 OA
BRANCH  28  29
HETATM   29  C   UNL     1      27.589  43.327  53.511  1.00  0.00     0.214 C 
BRANCH  29  30
HETATM   30  C   UNL     1      28.667  43.820  54.449  1.00  0.00    -0.034 A 
HETATM   31  C   UNL     1      28.545  45.072  55.071  1.00  0.00     0.009 A 
HETATM   32  C   UNL     1      29.529  45.527  55.949  1.00  0.00     0.001 A 
HETATM   33  C   UNL     1      30.643  44.735  56.221  1.00  0.00     0.000 A 
HETATM   34  C   UNL     1      30.772  43.487  55.617  1.00  0.00     0.001 A 
HETATM   35  C   UNL     1      29.787  43.028  54.739  1.00  0.00     0.009 A 
ENDBRANCH  29  30
ENDBRANCH  28  29
ENDBRANCH  25  28
ENDBRANCH   1  22
TORSDOF 6
ENDMDL
MODEL 3
REMARK VINA RESULT:      -9.0      3.983      8.126
REMARK  6 active torsions:
REMARK  status: ('A' for Active; 'I' for Inactive)
REMARK    1  A    between atoms: C_4  and  C_5 
REMARK    2  A    between atoms: C_5  and  O_6 
REMARK    3  A    between atoms: O_6  and  C_7 
REMARK    4  A    between atoms: C_10  and  C_11 
REMARK    5  A    between atoms: C_17  and  C_18 
REMARK    6  A    between atoms: C_27  and  N_28 
ROOT
HETATM    1  C   UNL     1      26.869  41.833  49.861  1.00  0.00     0.072 A 
HETATM    2  N   UNL     1      27.496  41.157  48.835  1.00  0.00    -0.274 N 
HETATM    3  H   UNL     1      28.403  40.702  48.859  1.00  0.00     0.189 HD
HETATM    4  N   UNL     1      26.789  41.120  47.687  1.00  0.00    -0.148 NA
HETATM    5  C   UNL     1      25.688  41.785  48.010  1.00  0.00     0.199 A 
HETATM    6  C   UNL     1      25.668  42.261  49.322  1.00  0.00     0.040 A 
HETATM    7  C   UNL     1      24.512  43.053  49.825  1.00  0.00     0.106 A 
HETATM    8  C   UNL     1      23.438  43.191  48.752  1.00  0.00     0.081 A 
HETATM    9  C   UNL     1      22.234  43.852  49.140  1.00  0.00     0.100 C 
HETATM   10  N   UNL     1      21.261  44.393  49.465  1.00  0.00    -0.191 NA
HETATM   11  C   UNL     1      23.571  42.676  47.502  1.00  0.00     0.140 A 
HETATM   12  O   UNL     1      24.718  41.977  47.099  1.00  0.00    -0.277 OA
ENDROOT
BRANCH   7  13
HETATM   13  C   UNL     1      25.072  44.390  50.288  1.00  0.00    -0.041 A 
HETATM   14  C   UNL     1      24.910  44.868  51.596  1.00  0.00     0.027 A 
HETATM   15  C   UNL     1      25.457  46.098  51.933  1.00  0.00     0.116 A 
HETATM   16  N   UNL     1      26.157  46.870  51.078  1.00  0.00    -0.273 NA
HETATM   17  C   UNL     1      26.317  46.394  49.826  1.00  0.00     0.116 A 
HETATM   18  C   UNL     1      25.808  45.180  49.392  1.00  0.00     0.027 A 
ENDBRANCH   7  13
BRANCH  11  19
HETATM   19  N   UNL     1      22.627  42.767  46.502  1.00  0.00    -0.282 NA
HETATM   20  H   UNL     1      22.562  41.968  45.877  1.00  0.00     0.126 HD
HETATM   21  H   UNL     1      21.723  43.073  46.857  1.00  0.00     0.126 HD
ENDBRANCH  11  19
BRANCH   1  22
HETATM   22  C   UNL     1      27.472  42.046  51.167  1.00  0.00    -0.007 A 
HETATM   23  C   UNL     1      27.435  41.035  52.135  1.00  0.00     0.016 A 
HETATM   24  C   UNL     1      28.103  41.199  53.349  1.00  0.00     0.037 A 
HETATM   25  C   UNL     1      28.826  42.363  53.595  1.00  0.00     0.069 A 
HETATM   26  C   UNL     1      28.820  43.402  52.666  1.00  0.00     0.037 A 
HETATM   27  C   UNL     1      28.149  43.239  51.451  1.00  0.00     0.016 A 
BRANCH  25  28
HETATM   28  O   UNL     1      29.496  42.421  54.784  1.00  0.00    -0.347 OA
BRANCH  28  29
HETATM   29  C   UNL     1      30.609  43.323  54.769  1.00  0.00     0.214 C 
BRANCH  29  30
HETATM   30  C   UNL     1      30.579  44.185  56.010  1.00  0.00    -0.034 A 
HETATM   31  C   UNL     1      29.707  45.281  56.089  1.00  0.00     0.009 A 
HETATM   32  C   UNL     1      29.664  46.072  57.239  1.00  0.00     0.001 A 
HETATM   33  C   UNL     1      30.486  45.773  58.323  1.00  0.00     0.000 A 
HETATM   34  C   UNL     1      31.350  44.682  58.260  1.00  0.00     0.001 A 
HETATM   35  C   UNL     1      31.394  43.888  57.112  1.00  0.00     0.009 A 
ENDBRANCH  29  30
ENDBRANCH  28  29
ENDBRANCH  25  28
ENDBRANCH   1  22
TORSDOF 6
ENDMDL
MODEL 4
REMARK VINA RESULT:      -8.9      6.628     12.587
REMARK  6 active torsions:
REMARK  status: ('A' for Active; 'I' for Inactive)
REMARK    1  A    between atoms: C_4  and  C_5 
REMARK    2  A    between atoms: C_5  and  O_6 
REMARK    3  A    between atoms: O_6  and  C_7 
REMARK    4  A    between atoms: C_10  and  C_11 
REMARK    5  A    between atoms: C_17  and  C_18 
REMARK    6  A    between atoms: C_27  and  N_28 
ROOT
HETATM    1  C   UNL     1      17.322  52.338  49.267  1.00  0.00     0.072 A 
HETATM    2  N   UNL     1      16.745  52.989  50.336  1.00  0.00    -0.274 N 
HETATM    3  H   UNL     1      17.101  53.056  51.284  1.00  0.00     0.189 HD
HETATM    4  N   UNL     1      15.574  53.593  50.046  1.00  0.00    -0.148 NA
HETATM    5  C   UNL     1      15.423  53.316  48.758  1.00  0.00     0.199 A 
HETATM    6  C   UNL     1      16.449  52.542  48.212  1.00  0.00     0.040 A 
HETATM    7  C   UNL     1      16.406  52.124  46.785  1.00  0.00     0.106 A 
HETATM    8  C   UNL     1      15.172  52.685  46.087  1.00  0.00     0.081 A 
HETATM    9  C   UNL     1      15.063  52.432  44.688  1.00  0.00     0.100 C 
HETATM   10  N   UNL     1      14.982  52.218  43.550  1.00  0.00    -0.191 NA
HETATM   11  C   UNL     1      14.238  53.434  46.729  1.00  0.00     0.140 A 
HETATM   12  O   UNL     1      14.336  53.747  48.092  1.00  0.00    -0.277 OA
ENDROOT
BRANCH   7  13
HETATM   13  C   UNL     1      16.458  50.602  46.778  1.00  0.00    -0.041 A 
HETATM   14  C   UNL     1      15.444  49.806  47.328  1.00  0.00     0.027 A 
HETATM   15  C   UNL     1      15.571  48.426  47.275  1.00  0.00     0.116 A 
HETATM   16  N   UNL     1      16.616  47.788  46.708  1.00  0.00    -0.273 NA
HETATM   17  C   UNL     1      17.579  48.564  46.171  1.00  0.00     0.116 A 
HETATM   18  C   UNL     1      17.545  49.950  46.176  1.00  0.00     0.027 A 
ENDBRANCH   7  13
BRANCH  11  19
HETATM   19  N   UNL     1      13.112  53.971  46.143  1.00  0.00    -0.282 NA
HETATM   20  H   UNL     1      13.060  54.986  46.125  1.00  0.00     0.126 HD
HETATM   21  H   UNL     1      12.910  53.543  45.241  1.00  0.00     0.126 HD
ENDBRANCH  11  19
BRANCH   1  22
HETATM   22  C   UNL     1      18.555  51.572  49.364  1.00  0.00    -0.007 A 
HETATM   23  C   UNL     1      18.572  50.347  50.042  1.00  0.00     0.016 A 
HETATM   24  C   UNL     1      19.726  49.562  50.048  1.00  0.00     0.037 A 
HETATM   25  C   UNL     1      20.860  49.986  49.360  1.00  0.00     0.069 A 
HETATM   26  C   UNL     1      20.876  51.230  48.733  1.00  0.00     0.037 A 
HETATM   27  C   UNL     1      19.721  52.019  48.731  1.00  0.00     0.016 A 
BRANCH  25  28
HETATM   28  O   UNL     1      21.928  49.134  49.369  1.00  0.00    -0.347 OA
BRANCH  28  29
HETATM   29  C   UNL     1      22.719  49.199  48.175  1.00  0.00     0.214 C 
BRANCH  29  30
HETATM   30  C   UNL     1      24.184  49.117  48.535  1.00  0.00    -0.034 A 
HETATM   31  C   UNL     1      24.638  48.138  49.432  1.00  0.00     0.009 A 
HETATM   32  C   UNL     1      25.992  48.047  49.758  1.00  0.00     0.001 A 
HETATM   33  C   UNL     1      26.909  48.928  49.187  1.00  0.00     0.000 A 
HETATM   34  C   UNL     1      26.472  49.899  48.288  1.00  0.00     0.001 A 
HETATM   35  C   UNL     1      25.118  49.990  47.960  1.00  0.00     0.009 A 
ENDBRANCH  29  30
ENDBRANCH  28  29
ENDBRANCH  25  28
ENDBRANCH   1  22
TORSDOF 6
ENDMDL
MODEL 5
REMARK VINA RESULT:      -8.8      3.409      8.004
REMARK  6 active torsions:
REMARK  status: ('A' for Active; 'I' for Inactive)
REMARK    1  A    between atoms: C_4  and  C_5 
REMARK    2  A    between atoms: C_5  and  O_6 
REMARK    3  A    between atoms: O_6  and  C_7 
REMARK    4  A    between atoms: C_10  and  C_11 
REMARK    5  A    between atoms: C_17  and  C_18 
REMARK    6  A    between atoms: C_27  and  N_28 
ROOT
HETATM    1  C   UNL     1      25.652  42.774  51.504  1.00  0.00     0.072 A 
HETATM    2  N   UNL     1      26.111  41.514  51.180  1.00  0.00    -0.274 N 
HETATM    3  H   UNL     1      26.823  40.974  51.660  1.00  0.00     0.189 HD
HETATM    4  N   UNL     1      25.519  40.975  50.095  1.00  0.00    -0.148 NA
HETATM    5  C   UNL     1      24.662  41.922  49.738  1.00  0.00     0.199 A 
HETATM    6  C   UNL     1      24.692  43.060  50.547  1.00  0.00     0.040 A 
HETATM    7  C   UNL     1      23.811  44.222  50.256  1.00  0.00     0.106 A 
HETATM    8  C   UNL     1      22.920  43.944  49.050  1.00  0.00     0.081 A 
HETATM    9  C   UNL     1      21.960  44.947  48.724  1.00  0.00     0.100 C 
HETATM   10  N   UNL     1      21.185  45.771  48.465  1.00  0.00    -0.191 NA
HETATM   11  C   UNL     1      22.980  42.787  48.339  1.00  0.00     0.140 A 
HETATM   12  O   UNL     1      23.875  41.757  48.660  1.00  0.00    -0.277 OA
ENDROOT
BRANCH   7  13
HETATM   13  C   UNL     1      24.727  45.422  50.060  1.00  0.00    -0.041 A 
HETATM   14  C   UNL     1      24.326  46.736  50.341  1.00  0.00     0.027 A 
HETATM   15  C   UNL     1      25.227  47.770  50.136  1.00  0.00     0.116 A 
HETATM   16  N   UNL     1      26.488  47.593  49.691  1.00  0.00    -0.273 NA
HETATM   17  C   UNL     1      26.865  46.324  49.436  1.00  0.00     0.116 A 
HETATM   18  C   UNL     1      26.039  45.224  49.606  1.00  0.00     0.027 A 
ENDBRANCH   7  13
BRANCH  11  19
HETATM   19  N   UNL     1      22.192  42.485  47.249  1.00  0.00    -0.282 NA
HETATM   20  H   UNL     1      22.667  42.459  46.350  1.00  0.00     0.126 HD
HETATM   21  H   UNL     1      21.605  41.670  47.417  1.00  0.00     0.126 HD
ENDBRANCH  11  19
BRANCH   1  22
HETATM   22  C   UNL     1      26.190  43.567  52.598  1.00  0.00    -0.007 A 
HETATM   23  C   UNL     1      27.565  43.816  52.680  1.00  0.00     0.016 A 
HETATM   24  C   UNL     1      28.070  44.662  53.668  1.00  0.00     0.037 A 
HETATM   25  C   UNL     1      27.203  45.278  54.567  1.00  0.00     0.069 A 
HETATM   26  C   UNL     1      25.839  44.990  54.535  1.00  0.00     0.037 A 
HETATM   27  C   UNL     1      25.334  44.141  53.547  1.00  0.00     0.016 A 
BRANCH  25  28
HETATM   28  O   UNL     1      27.770  46.134  55.468  1.00  0.00    -0.347 OA
BRANCH  28  29
HETATM   29  C   UNL     1      29.163  46.371  55.229  1.00  0.00     0.214 C 
BRANCH  29  30
HETATM   30  C   UNL     1      29.988  45.573  56.213  1.00  0.00    -0.034 A 
HETATM   31  C   UNL     1      30.746  44.477  55.774  1.00  0.00     0.009 A 
HETATM   32  C   UNL     1      31.521  43.745  56.675  1.00  0.00     0.001 A 
HETATM   33  C   UNL     1      31.552  44.102  58.021  1.00  0.00     0.000 A 
HETATM   34  C   UNL     1      30.811  45.194  58.468  1.00  0.00     0.001 A 
HETATM   35  C   UNL     1      30.036  45.929  57.568  1.00  0.00     0.009 A 
ENDBRANCH  29  30
ENDBRANCH  28  29
ENDBRANCH  25  28
ENDBRANCH   1  22
TORSDOF 6
ENDMDL
MODEL 6
REMARK VINA RESULT:      -8.7      3.726      7.866
REMARK  6 active torsions:
REMARK  status: ('A' for Active; 'I' for Inactive)
REMARK    1  A    between atoms: C_4  and  C_5 
REMARK    2  A    between atoms: C_5  and  O_6 
REMARK    3  A    between atoms: O_6  and  C_7 
REMARK    4  A    between atoms: C_10  and  C_11 
REMARK    5  A    between atoms: C_17  and  C_18 
REMARK    6  A    between atoms: C_27  and  N_28 
ROOT
HETATM    1  C   UNL     1      27.606  41.757  51.680  1.00  0.00     0.072 A 
HETATM    2  N   UNL     1      28.651  40.915  51.362  1.00  0.00    -0.274 N 
HETATM    3  H   UNL     1      29.535  40.816  51.851  1.00  0.00     0.189 HD
HETATM    4  N   UNL     1      28.433  40.154  50.270  1.00  0.00    -0.148 NA
HETATM    5  C   UNL     1      27.214  40.527  49.903  1.00  0.00     0.199 A 
HETATM    6  C   UNL     1      26.646  41.513  50.712  1.00  0.00     0.040 A 
HETATM    7  C   UNL     1      25.295  42.058  50.410  1.00  0.00     0.106 A 
HETATM    8  C   UNL     1      24.688  41.368  49.194  1.00  0.00     0.081 A 
HETATM    9  C   UNL     1      23.352  41.736  48.855  1.00  0.00     0.100 C 
HETATM   10  N   UNL     1      22.266  42.044  48.587  1.00  0.00    -0.191 NA
HETATM   11  C   UNL     1      25.342  40.411  48.484  1.00  0.00     0.140 A 
HETATM   12  O   UNL     1      26.636  39.986  48.816  1.00  0.00    -0.277 OA
ENDROOT
BRANCH   7  13
HETATM   13  C   UNL     1      25.465  43.559  50.224  1.00  0.00    -0.041 A 
HETATM   14  C   UNL     1      24.535  44.492  50.703  1.00  0.00     0.027 A 
HETATM   15  C   UNL     1      24.771  45.843  50.492  1.00  0.00     0.116 A 
HETATM   16  N   UNL     1      25.859  46.327  49.859  1.00  0.00    -0.273 NA
HETATM   17  C   UNL     1      26.752  45.420  49.414  1.00  0.00     0.116 A 
HETATM   18  C   UNL     1      26.606  44.051  49.573  1.00  0.00     0.027 A 
ENDBRANCH   7  13
BRANCH  11  19
HETATM   19  N   UNL     1      24.833  39.753  47.385  1.00  0.00    -0.282 NA
HETATM   20  H   UNL     1      23.828  39.820  47.251  1.00  0.00     0.126 HD
HETATM   21  H   UNL     1      25.366  39.953  46.540  1.00  0.00     0.126 HD
ENDBRANCH  11  19
BRANCH   1  22
HETATM   22  C   UNL     1      27.648  42.707  52.780  1.00  0.00    -0.007 A 
HETATM   23  C   UNL     1      28.369  43.900  52.655  1.00  0.00     0.016 A 
HETATM   24  C   UNL     1      28.325  44.859  53.668  1.00  0.00     0.037 A 
HETATM   25  C   UNL     1      27.545  44.640  54.801  1.00  0.00     0.069 A 
HETATM   26  C   UNL     1      26.871  43.431  54.965  1.00  0.00     0.037 A 
HETATM   27  C   UNL     1      26.918  42.469  53.952  1.00  0.00     0.016 A 
BRANCH  25  28
HETATM   28  O   UNL     1      27.511  45.651  55.719  1.00  0.00    -0.347 OA
BRANCH  28  29
HETATM   29  C   UNL     1      28.724  46.413  55.772  1.00  0.00     0.214 C 
BRANCH  29  30
HETATM   30  C   UNL     1      29.765  45.652  56.560  1.00  0.00    -0.034 A 
HETATM   31  C   UNL     1      29.993  45.956  57.910  1.00  0.00     0.009 A 
HETATM   32  C   UNL     1      30.943  45.247  58.647  1.00  0.00     0.001 A 
HETATM   33  C   UNL     1      31.671  44.222  58.046  1.00  0.00     0.000 A 
HETATM   34  C   UNL     1      31.447  43.904  56.708  1.00  0.00     0.001 A 
HETATM   35  C   UNL     1      30.496  44.611  55.969  1.00  0.00     0.009 A 
ENDBRANCH  29  30
ENDBRANCH  28  29
ENDBRANCH  25  28
ENDBRANCH   1  22
TORSDOF 6
ENDMDL
MODEL 7
REMARK VINA RESULT:      -8.7      5.689      8.732
REMARK  6 active torsions:
REMARK  status: ('A' for Active; 'I' for Inactive)
REMARK    1  A    between atoms: C_4  and  C_5 
REMARK    2  A    between atoms: C_5  and  O_6 
REMARK    3  A    between atoms: O_6  and  C_7 
REMARK    4  A    between atoms: C_10  and  C_11 
REMARK    5  A    between atoms: C_17  and  C_18 
REMARK    6  A    between atoms: C_27  and  N_28 
ROOT
HETATM    1  C   UNL     1      25.996  42.000  50.071  1.00  0.00     0.072 A 
HETATM    2  N   UNL     1      24.686  42.392  50.244  1.00  0.00    -0.274 N 
HETATM    3  H   UNL     1      24.259  42.765  51.086  1.00  0.00     0.189 HD
HETATM    4  N   UNL     1      23.917  42.247  49.145  1.00  0.00    -0.148 NA
HETATM    5  C   UNL     1      24.776  41.759  48.260  1.00  0.00     0.199 A 
HETATM    6  C   UNL     1      26.068  41.570  48.756  1.00  0.00     0.040 A 
HETATM    7  C   UNL     1      27.137  41.000  47.892  1.00  0.00     0.106 A 
HETATM    8  C   UNL     1      26.616  40.731  46.485  1.00  0.00     0.081 A 
HETATM    9  C   UNL     1      27.571  40.269  45.531  1.00  0.00     0.100 C 
HETATM   10  N   UNL     1      28.355  39.891  44.764  1.00  0.00    -0.191 NA
HETATM   11  C   UNL     1      25.328  40.961  46.117  1.00  0.00     0.140 A 
HETATM   12  O   UNL     1      24.372  41.462  47.012  1.00  0.00    -0.277 OA
ENDROOT
BRANCH   7  13
HETATM   13  C   UNL     1      27.639  39.747  48.595  1.00  0.00    -0.041 A 
HETATM   14  C   UNL     1      26.805  38.660  48.896  1.00  0.00     0.027 A 
HETATM   15  C   UNL     1      27.349  37.555  49.535  1.00  0.00     0.116 A 
HETATM   16  N   UNL     1      28.648  37.449  49.880  1.00  0.00    -0.273 NA
HETATM   17  C   UNL     1      29.442  38.495  49.574  1.00  0.00     0.116 A 
HETATM   18  C   UNL     1      28.995  39.643  48.939  1.00  0.00     0.027 A 
ENDBRANCH   7  13
BRANCH  11  19
HETATM   19  N   UNL     1      24.812  40.743  44.858  1.00  0.00    -0.282 NA
HETATM   20  H   UNL     1      24.186  41.461  44.503  1.00  0.00     0.126 HD
HETATM   21  H   UNL     1      25.532  40.472  44.191  1.00  0.00     0.126 HD
ENDBRANCH  11  19
BRANCH   1  22
HETATM   22  C   UNL     1      26.986  42.014  51.136  1.00  0.00    -0.007 A 
HETATM   23  C   UNL     1      27.632  43.206  51.483  1.00  0.00     0.016 A 
HETATM   24  C   UNL     1      28.503  43.244  52.573  1.00  0.00     0.037 A 
HETATM   25  C   UNL     1      28.718  42.096  53.333  1.00  0.00     0.069 A 
HETATM   26  C   UNL     1      28.129  40.889  52.961  1.00  0.00     0.037 A 
HETATM   27  C   UNL     1      27.259  40.851  51.868  1.00  0.00     0.016 A 
BRANCH  25  28
HETATM   28  O   UNL     1      29.541  42.231  54.415  1.00  0.00    -0.347 OA
BRANCH  28  29
HETATM   29  C   UNL     1      30.428  43.353  54.321  1.00  0.00     0.214 C 
BRANCH  29  30
HETATM   30  C   UNL     1      30.492  44.059  55.655  1.00  0.00    -0.034 A 
HETATM   31  C   UNL     1      31.363  43.602  56.656  1.00  0.00     0.009 A 
HETATM   32  C   UNL     1      31.438  44.258  57.885  1.00  0.00     0.001 A 
HETATM   33  C   UNL     1      30.650  45.382  58.126  1.00  0.00     0.000 A 
HETATM   34  C   UNL     1      29.787  45.851  57.138  1.00  0.00     0.001 A 
HETATM   35  C   UNL     1      29.712  45.196  55.906  1.00  0.00     0.009 A 
ENDBRANCH  29  30
ENDBRANCH  28  29
ENDBRANCH  25  28
ENDBRANCH   1  22
TORSDOF 6
ENDMDL
MODEL 8
REMARK VINA RESULT:      -8.6      4.247      7.460
REMARK  6 active torsions:
REMARK  status: ('A' for Active; 'I' for Inactive)
REMARK    1  A    between atoms: C_4  and  C_5 
REMARK    2  A    between atoms: C_5  and  O_6 
REMARK    3  A    between atoms: O_6  and  C_7 
REMARK    4  A    between atoms: C_10  and  C_11 
REMARK    5  A    between atoms: C_17  and  C_18 
REMARK    6  A    between atoms: C_27  and  N_28 
ROOT
HETATM    1  C   UNL     1      24.738  44.042  51.512  1.00  0.00     0.072 A 
HETATM    2  N   UNL     1      23.362  43.975  51.452  1.00  0.00    -0.274 N 
HETATM    3  H   UNL     1      22.694  44.427  52.068  1.00  0.00     0.189 HD
HETATM    4  N   UNL     1      22.891  43.210  50.446  1.00  0.00    -0.148 NA
HETATM    5  C   UNL     1      24.006  42.796  49.858  1.00  0.00     0.199 A 
HETATM    6  C   UNL     1      25.179  43.256  50.460  1.00  0.00     0.040 A 
HETATM    7  C   UNL     1      26.511  42.853  49.934  1.00  0.00     0.106 A 
HETATM    8  C   UNL     1      26.366  41.965  48.703  1.00  0.00     0.081 A 
HETATM    9  C   UNL     1      27.574  41.586  48.047  1.00  0.00     0.100 C 
HETATM   10  N   UNL     1      28.563  41.281  47.523  1.00  0.00    -0.191 NA
HETATM   11  C   UNL     1      25.161  41.585  48.204  1.00  0.00     0.140 A 
HETATM   12  O   UNL     1      23.949  41.979  48.791  1.00  0.00    -0.277 OA
ENDROOT
BRANCH   7  13
HETATM   13  C   UNL     1      27.241  42.170  51.082  1.00  0.00    -0.041 A 
HETATM   14  C   UNL     1      26.882  40.903  51.563  1.00  0.00     0.027 A 
HETATM   15  C   UNL     1      27.606  40.354  52.611  1.00  0.00     0.116 A 
HETATM   16  N   UNL     1      28.657  40.961  53.200  1.00  0.00    -0.273 NA
HETATM   17  C   UNL     1      29.000  42.174  52.720  1.00  0.00     0.116 A 
HETATM   18  C   UNL     1      28.339  42.807  51.679  1.00  0.00     0.027 A 
ENDBRANCH   7  13
BRANCH  11  19
HETATM   19  N   UNL     1      24.977  40.793  47.092  1.00  0.00    -0.282 NA
HETATM   20  H   UNL     1      24.221  41.067  46.469  1.00  0.00     0.126 HD
HETATM   21  H   UNL     1      25.852  40.610  46.605  1.00  0.00     0.126 HD
ENDBRANCH  11  19
BRANCH   1  22
HETATM   22  C   UNL     1      25.462  44.760  52.549  1.00  0.00    -0.007 A 
HETATM   23  C   UNL     1      25.676  44.168  53.799  1.00  0.00     0.016 A 
HETATM   24  C   UNL     1      26.459  44.812  54.758  1.00  0.00     0.037 A 
HETATM   25  C   UNL     1      27.048  46.039  54.467  1.00  0.00     0.069 A 
HETATM   26  C   UNL     1      26.793  46.668  53.249  1.00  0.00     0.037 A 
HETATM   27  C   UNL     1      26.006  46.025  52.290  1.00  0.00     0.016 A 
BRANCH  25  28
HETATM   28  O   UNL     1      27.844  46.576  55.439  1.00  0.00    -0.347 OA
BRANCH  28  29
HETATM   29  C   UNL     1      29.237  46.565  55.106  1.00  0.00     0.214 C 
BRANCH  29  30
HETATM   30  C   UNL     1      29.949  45.527  55.943  1.00  0.00    -0.034 A 
HETATM   31  C   UNL     1      30.308  44.292  55.383  1.00  0.00     0.009 A 
HETATM   32  C   UNL     1      30.978  43.335  56.146  1.00  0.00     0.001 A 
HETATM   33  C   UNL     1      31.302  43.602  57.475  1.00  0.00     0.000 A 
HETATM   34  C   UNL     1      30.958  44.828  58.040  1.00  0.00     0.001 A 
HETATM   35  C   UNL     1      30.289  45.788  57.278  1.00  0.00     0.009 A 
ENDBRANCH  29  30
ENDBRANCH  28  29
ENDBRANCH  25  28
ENDBRANCH   1  22
TORSDOF 6
ENDMDL
MODEL 9
REMARK VINA RESULT:      -8.4      3.314      6.224
REMARK  6 active torsions:
REMARK  status: ('A' for Active; 'I' for Inactive)
REMARK    1  A    between atoms: C_4  and  C_5 
REMARK    2  A    between atoms: C_5  and  O_6 
REMARK    3  A    between atoms: O_6  and  C_7 
REMARK    4  A    between atoms: C_10  and  C_11 
REMARK    5  A    between atoms: C_17  and  C_18 
REMARK    6  A    between atoms: C_27  and  N_28 
ROOT
HETATM    1  C   UNL     1      24.266  49.556  48.851  1.00  0.00     0.072 A 
HETATM    2  N   UNL     1      25.415  50.157  48.380  1.00  0.00    -0.274 N 
HETATM    3  H   UNL     1      25.512  51.094  48.003  1.00  0.00     0.189 HD
HETATM    4  N   UNL     1      26.512  49.375  48.446  1.00  0.00    -0.148 NA
HETATM    5  C   UNL     1      26.034  48.259  48.980  1.00  0.00     0.199 A 
HETATM    6  C   UNL     1      24.664  48.290  49.247  1.00  0.00     0.040 A 
HETATM    7  C   UNL     1      23.975  47.102  49.819  1.00  0.00     0.106 A 
HETATM    8  C   UNL     1      24.963  45.970  50.078  1.00  0.00     0.081 A 
HETATM    9  C   UNL     1      24.442  44.804  50.714  1.00  0.00     0.100 C 
HETATM   10  N   UNL     1      24.007  43.860  51.229  1.00  0.00    -0.191 NA
HETATM   11  C   UNL     1      26.285  46.060  49.777  1.00  0.00     0.140 A 
HETATM   12  O   UNL     1      26.845  47.208  49.198  1.00  0.00    -0.277 OA
ENDROOT
BRANCH   7  13
HETATM   13  C   UNL     1      22.875  46.725  48.837  1.00  0.00    -0.041 A 
HETATM   14  C   UNL     1      21.543  47.132  48.998  1.00  0.00     0.027 A 
HETATM   15  C   UNL     1      20.605  46.745  48.051  1.00  0.00     0.116 A 
HETATM   16  N   UNL     1      20.896  46.002  46.964  1.00  0.00    -0.273 NA
HETATM   17  C   UNL     1      22.183  45.627  46.815  1.00  0.00     0.116 A 
HETATM   18  C   UNL     1      23.192  45.961  47.705  1.00  0.00     0.027 A 
ENDBRANCH   7  13
BRANCH  11  19
HETATM   19  N   UNL     1      27.218  45.070  49.999  1.00  0.00    -0.282 NA
HETATM   20  H   UNL     1      27.920  44.949  49.273  1.00  0.00     0.126 HD
HETATM   21  H   UNL     1      27.614  45.122  50.936  1.00  0.00     0.126 HD
ENDBRANCH  11  19
BRANCH   1  22
HETATM   22  C   UNL     1      22.959  50.191  48.821  1.00  0.00    -0.007 A 
HETATM   23  C   UNL     1      22.254  50.299  47.615  1.00  0.00     0.016 A 
HETATM   24  C   UNL     1      20.957  50.813  47.602  1.00  0.00     0.037 A 
HETATM   25  C   UNL     1      20.350  51.203  48.793  1.00  0.00     0.069 A 
HETATM   26  C   UNL     1      21.061  51.158  49.990  1.00  0.00     0.037 A 
HETATM   27  C   UNL     1      22.362  50.647  50.004  1.00  0.00     0.016 A 
BRANCH  25  28
HETATM   28  O   UNL     1      19.060  51.643  48.700  1.00  0.00    -0.347 OA
BRANCH  28  29
HETATM   29  C   UNL     1      18.193  51.080  49.692  1.00  0.00     0.214 C 
BRANCH  29  30
HETATM   30  C   UNL     1      17.384  49.960  49.080  1.00  0.00    -0.034 A 
HETATM   31  C   UNL     1      16.263  50.248  48.287  1.00  0.00     0.009 A 
HETATM   32  C   UNL     1      15.520  49.219  47.707  1.00  0.00     0.001 A 
HETATM   33  C   UNL     1      15.892  47.891  47.906  1.00  0.00     0.000 A 
HETATM   34  C   UNL     1      17.008  47.591  48.683  1.00  0.00     0.001 A 
HETATM   35  C   UNL     1      17.754  48.620  49.263  1.00  0.00     0.009 A 
ENDBRANCH  29  30
ENDBRANCH  28  29
ENDBRANCH  25  28
ENDBRANCH   1  22
TORSDOF 6
ENDMDL
MODEL 10
REMARK VINA RESULT:      -8.4      4.460      8.327
REMARK  6 active torsions:
REMARK  status: ('A' for Active; 'I' for Inactive)
REMARK    1  A    between atoms: C_4  and  C_5 
REMARK    2  A    between atoms: C_5  and  O_6 
REMARK    3  A    between atoms: O_6  and  C_7 
REMARK    4  A    between atoms: C_10  and  C_11 
REMARK    5  A    between atoms: C_17  and  C_18 
REMARK    6  A    between atoms: C_27  and  N_28 
ROOT
HETATM    1  C   UNL     1      26.568  41.406  48.124  1.00  0.00     0.072 A 
HETATM    2  N   UNL     1      27.541  41.266  47.157  1.00  0.00    -0.274 N 
HETATM    3  H   UNL     1      28.525  41.502  47.232  1.00  0.00     0.189 HD
HETATM    4  N   UNL     1      27.092  40.753  45.993  1.00  0.00    -0.148 NA
HETATM    5  C   UNL     1      25.804  40.562  46.246  1.00  0.00     0.199 A 
HETATM    6  C   UNL     1      25.406  40.947  47.528  1.00  0.00     0.040 A 
HETATM    7  C   UNL     1      23.985  40.822  47.951  1.00  0.00     0.106 A 
HETATM    8  C   UNL     1      23.137  40.209  46.842  1.00  0.00     0.081 A 
HETATM    9  C   UNL     1      21.770  39.950  47.157  1.00  0.00     0.100 C 
HETATM   10  N   UNL     1      20.659  39.745  47.423  1.00  0.00    -0.191 NA
HETATM   11  C   UNL     1      23.642  39.868  45.628  1.00  0.00     0.140 A 
HETATM   12  O   UNL     1      24.992  40.061  45.298  1.00  0.00    -0.277 OA
ENDROOT
BRANCH   7  13
HETATM   13  C   UNL     1      23.528  42.218  48.352  1.00  0.00    -0.041 A 
HETATM   14  C   UNL     1      23.474  43.287  47.447  1.00  0.00     0.027 A 
HETATM   15  C   UNL     1      23.042  44.526  47.898  1.00  0.00     0.116 A 
HETATM   16  N   UNL     1      22.651  44.771  49.166  1.00  0.00    -0.273 NA
HETATM   17  C   UNL     1      22.695  43.731  50.023  1.00  0.00     0.116 A 
HETATM   18  C   UNL     1      23.114  42.457  49.670  1.00  0.00     0.027 A 
ENDBRANCH   7  13
BRANCH  11  19
HETATM   19  N   UNL     1      22.921  39.304  44.598  1.00  0.00    -0.282 NA
HETATM   20  H   UNL     1      22.815  39.875  43.763  1.00  0.00     0.126 HD
HETATM   21  H   UNL     1      23.221  38.352  44.399  1.00  0.00     0.126 HD
ENDBRANCH  11  19
BRANCH   1  22
HETATM   22  C   UNL     1      26.816  41.992  49.432  1.00  0.00    -0.007 A 
HETATM   23  C   UNL     1      27.094  41.170  50.531  1.00  0.00     0.016 A 
HETATM   24  C   UNL     1      27.435  41.733  51.762  1.00  0.00     0.037 A 
HETATM   25  C   UNL     1      27.518  43.116  51.897  1.00  0.00     0.069 A 
HETATM   26  C   UNL     1      27.183  43.946  50.828  1.00  0.00     0.037 A 
HETATM   27  C   UNL     1      26.839  43.382  49.595  1.00  0.00     0.016 A 
BRANCH  25  28
HETATM   28  O   UNL     1      27.911  43.584  53.118  1.00  0.00    -0.347 OA
BRANCH  28  29
HETATM   29  C   UNL     1      29.119  42.982  53.598  1.00  0.00     0.214 C 
BRANCH  29  30
HETATM   30  C   UNL     1      29.636  43.761  54.785  1.00  0.00    -0.034 A 
HETATM   31  C   UNL     1      29.026  44.968  55.158  1.00  0.00     0.009 A 
HETATM   32  C   UNL     1      29.489  45.686  56.262  1.00  0.00     0.001 A 
HETATM   33  C   UNL     1      30.562  45.204  57.008  1.00  0.00     0.000 A 
HETATM   34  C   UNL     1      31.171  44.002  56.654  1.00  0.00     0.001 A 
HETATM   35  C   UNL     1      30.708  43.281  55.550  1.00  0.00     0.009 A 
ENDBRANCH  29  30
ENDBRANCH  28  29
ENDBRANCH  25  28
ENDBRANCH   1  22
TORSDOF 6
ENDMDL
