MODEL 1
REMARK VINA RESULT:      -9.6      0.000      0.000
REMARK  9 active torsions:
REMARK  status: ('A' for Active; 'I' for Inactive)
REMARK    1  A    between atoms: C_2  and  C_3 
REMARK    2  A    between atoms: C_3  and  O_4 
REMARK    3  A    between atoms: O_4  and  C_5 
REMARK    4  A    between atoms: C_8  and  C_9 
REMARK       I    between atoms: C_9  and  N_10 
REMARK    5  A    between atoms: N_10  and  C_11 
REMARK    6  A    between atoms: C_11  and  N_12 
REMARK    7  A    between atoms: N_12  and  C_13 
REMARK    8  A    between atoms: C_15  and  O_16 
REMARK    9  A    between atoms: C_17  and  C_18 
ROOT
HETATM    1  C   UNL     1      25.889  42.711  49.223  1.00  0.00     0.036 A 
HETATM    2  C   UNL     1      26.096  41.674  50.128  1.00  0.00     0.067 A 
HETATM    3  C   UNL     1      26.864  41.874  51.282  1.00  0.00     0.082 A 
HETATM    4  C   UNL     1      27.471  43.107  51.552  1.00  0.00     0.050 A 
HETATM    5  C   UNL     1      27.294  44.136  50.618  1.00  0.00     0.021 A 
HETATM    6  C   UNL     1      26.514  43.940  49.471  1.00  0.00     0.030 A 
ENDROOT
BRANCH   1   7
HETATM    7  N   UNL     1      25.118  42.627  48.046  1.00  0.00    -0.333 N 
HETATM    8  H   UNL     1      25.643  42.389  47.207  1.00  0.00     0.168 HD
BRANCH   7   9
HETATM    9  C   UNL     1      23.800  42.782  47.767  1.00  0.00     0.179 C 
HETATM   10  S   UNL     1      23.341  42.864  46.160  1.00  0.00    -0.040 SA
BRANCH   9  11
HETATM   11  N   UNL     1      22.859  42.849  48.742  1.00  0.00    -0.299 N 
HETATM   12  C   UNL     1      22.693  43.910  49.617  1.00  0.00     0.257 C 
HETATM   13  O   UNL     1      22.406  43.724  50.797  1.00  0.00    -0.267 OA
HETATM   14  H   UNL     1      22.793  41.993  49.276  1.00  0.00     0.171 HD
BRANCH  12  15
HETATM   15  C   UNL     1      22.793  45.288  49.104  1.00  0.00     0.032 A 
HETATM   16  C   UNL     1      21.767  45.745  48.274  1.00  0.00     0.020 A 
HETATM   17  C   UNL     1      21.761  47.073  47.836  1.00  0.00     0.038 A 
HETATM   18  C   UNL     1      22.772  47.949  48.236  1.00  0.00     0.068 A 
HETATM   19  C   UNL     1      23.798  47.480  49.066  1.00  0.00     0.038 A 
HETATM   20  C   UNL     1      23.806  46.157  49.515  1.00  0.00     0.020 A 
BRANCH  18  21
HETATM   21  O   UNL     1      22.867  49.270  47.894  1.00  0.00    -0.351 OA
BRANCH  21  22
HETATM   22  C   UNL     1      23.146  50.186  48.954  1.00  0.00     0.175 C 
BRANCH  22  23
HETATM   23  C   UNL     1      21.819  50.676  49.525  1.00  0.00     0.022 C 
HETATM   24  C   UNL     1      20.890  51.177  48.432  1.00  0.00     0.007 C 
ENDBRANCH  22  23
ENDBRANCH  21  22
ENDBRANCH  18  21
ENDBRANCH  12  15
ENDBRANCH   9  11
ENDBRANCH   7   9
ENDBRANCH   1   7
BRANCH   3  25
HETATM   25  O   UNL     1      26.992  40.775  52.093  1.00  0.00    -0.360 OA
HETATM   26  H   UNL     1      27.119  41.071  53.013  1.00  0.00     0.217 HD
ENDBRANCH   3  25
BRANCH   4  27
HETATM   27  C   UNL     1      28.286  43.357  52.735  1.00  0.00     0.183 A 
HETATM   28  O   UNL     1      28.035  44.532  53.399  1.00  0.00    -0.288 OA
HETATM   29  C   UNL     1      28.928  44.528  54.432  1.00  0.00     0.112 A 
HETATM   30  C   UNL     1      29.653  43.352  54.352  1.00  0.00     0.094 A 
HETATM   31  C   UNL     1      29.094  45.514  55.405  1.00  0.00    -0.025 A 
HETATM   32  N   UNL     1      29.251  42.626  53.258  1.00  0.00    -0.221 NA
HETATM   33  C   UNL     1      30.625  43.086  55.324  1.00  0.00     0.041 A 
HETATM   34  C   UNL     1      30.844  44.041  56.335  1.00  0.00    -0.059 A 
HETATM   35  C   UNL     1      30.086  45.226  56.364  1.00  0.00     0.016 A 
HETATM   36  C   UNL     1      31.849  43.763  57.415  1.00  0.00     0.048 C 
HETATM   37  C   UNL     1      28.331  46.799  55.440  1.00  0.00     0.051 C 
ENDBRANCH   4  27
TORSDOF 9
ENDMDL
MODEL 2
REMARK VINA RESULT:      -9.5      2.625      4.089
REMARK  9 active torsions:
REMARK  status: ('A' for Active; 'I' for Inactive)
REMARK    1  A    between atoms: C_2  and  C_3 
REMARK    2  A    between atoms: C_3  and  O_4 
REMARK    3  A    between atoms: O_4  and  C_5 
REMARK    4  A    between atoms: C_8  and  C_9 
REMARK       I    between atoms: C_9  and  N_10 
REMARK    5  A    between atoms: N_10  and  C_11 
REMARK    6  A    between atoms: C_11  and  N_12 
REMARK    7  A    between atoms: N_12  and  C_13 
REMARK    8  A    between atoms: C_15  and  O_16 
REMARK    9  A    between atoms: C_17  and  C_18 
ROOT
HETATM    1  C   UNL     1      24.538  46.315  51.097  1.00  0.00     0.036 A 
HETATM    2  C   UNL     1      24.835  44.966  51.263  1.00  0.00     0.067 A 
HETATM    3  C   UNL     1      25.850  44.559  52.138  1.00  0.00     0.082 A 
HETATM    4  C   UNL     1      26.615  45.488  52.853  1.00  0.00     0.050 A 
HETATM    5  C   UNL     1      26.340  46.847  52.653  1.00  0.00     0.021 A 
HETATM    6  C   UNL     1      25.316  47.253  51.788  1.00  0.00     0.030 A 
ENDROOT
BRANCH   1   7
HETATM    7  N   UNL     1      23.527  46.833  50.263  1.00  0.00    -0.333 N 
HETATM    8  H   UNL     1      22.591  46.813  50.663  1.00  0.00     0.168 HD
BRANCH   7   9
HETATM    9  C   UNL     1      23.513  47.377  49.021  1.00  0.00     0.179 C 
HETATM   10  S   UNL     1      22.540  46.664  47.861  1.00  0.00    -0.040 SA
BRANCH   9  11
HETATM   11  N   UNL     1      24.238  48.480  48.709  1.00  0.00    -0.299 N 
HETATM   12  C   UNL     1      23.729  49.633  48.132  1.00  0.00     0.257 C 
HETATM   13  O   UNL     1      24.362  50.252  47.281  1.00  0.00    -0.267 OA
HETATM   14  H   UNL     1      25.104  48.255  48.239  1.00  0.00     0.171 HD
BRANCH  12  15
HETATM   15  C   UNL     1      22.435  50.160  48.600  1.00  0.00     0.032 A 
HETATM   16  C   UNL     1      22.345  50.559  49.936  1.00  0.00     0.020 A 
HETATM   17  C   UNL     1      21.173  51.155  50.410  1.00  0.00     0.038 A 
HETATM   18  C   UNL     1      20.094  51.365  49.549  1.00  0.00     0.068 A 
HETATM   19  C   UNL     1      20.193  50.959  48.213  1.00  0.00     0.038 A 
HETATM   20  C   UNL     1      21.365  50.370  47.729  1.00  0.00     0.020 A 
BRANCH  18  21
HETATM   21  O   UNL     1      18.906  51.954  49.885  1.00  0.00    -0.351 OA
BRANCH  21  22
HETATM   22  C   UNL     1      17.717  51.254  49.513  1.00  0.00     0.175 C 
BRANCH  22  23
HETATM   23  C   UNL     1      16.711  52.269  48.982  1.00  0.00     0.022 C 
HETATM   24  C   UNL     1      16.130  53.120  50.099  1.00  0.00     0.007 C 
ENDBRANCH  22  23
ENDBRANCH  21  22
ENDBRANCH  18  21
ENDBRANCH  12  15
ENDBRANCH   9  11
ENDBRANCH   7   9
ENDBRANCH   1   7
BRANCH   3  25
HETATM   25  O   UNL     1      26.044  43.203  52.212  1.00  0.00    -0.360 OA
HETATM   26  H   UNL     1      26.570  42.915  51.444  1.00  0.00     0.217 HD
ENDBRANCH   3  25
BRANCH   4  27
HETATM   27  C   UNL     1      27.686  45.110  53.768  1.00  0.00     0.183 A 
HETATM   28  O   UNL     1      27.699  45.759  54.978  1.00  0.00    -0.288 OA
HETATM   29  C   UNL     1      28.789  45.245  55.620  1.00  0.00     0.112 A 
HETATM   30  C   UNL     1      29.363  44.305  54.781  1.00  0.00     0.094 A 
HETATM   31  C   UNL     1      29.255  45.584  56.890  1.00  0.00    -0.025 A 
HETATM   32  N   UNL     1      28.666  44.243  53.599  1.00  0.00    -0.221 NA
HETATM   33  C   UNL     1      30.490  43.601  55.219  1.00  0.00     0.041 A 
HETATM   34  C   UNL     1      31.013  43.896  56.493  1.00  0.00    -0.059 A 
HETATM   35  C   UNL     1      30.397  44.869  57.303  1.00  0.00     0.016 A 
HETATM   36  C   UNL     1      32.196  43.127  57.008  1.00  0.00     0.048 C 
HETATM   37  C   UNL     1      28.646  46.638  57.756  1.00  0.00     0.051 C 
ENDBRANCH   4  27
TORSDOF 9
ENDMDL
MODEL 3
REMARK VINA RESULT:      -9.3      2.992      5.646
REMARK  9 active torsions:
REMARK  status: ('A' for Active; 'I' for Inactive)
REMARK    1  A    between atoms: C_2  and  C_3 
REMARK    2  A    between atoms: C_3  and  O_4 
REMARK    3  A    between atoms: O_4  and  C_5 
REMARK    4  A    between atoms: C_8  and  C_9 
REMARK       I    between atoms: C_9  and  N_10 
REMARK    5  A    between atoms: N_10  and  C_11 
REMARK    6  A    between atoms: C_11  and  N_12 
REMARK    7  A    between atoms: N_12  and  C_13 
REMARK    8  A    between atoms: C_15  and  O_16 
REMARK    9  A    between atoms: C_17  and  C_18 
ROOT
HETATM    1  C   UNL     1      24.880  44.722  49.814  1.00  0.00     0.036 A 
HETATM    2  C   UNL     1      24.453  44.446  51.110  1.00  0.00     0.067 A 
HETATM    3  C   UNL     1      25.376  44.319  52.155  1.00  0.00     0.082 A 
HETATM    4  C   UNL     1      26.754  44.437  51.933  1.00  0.00     0.050 A 
HETATM    5  C   UNL     1      27.182  44.675  50.620  1.00  0.00     0.021 A 
HETATM    6  C   UNL     1      26.257  44.816  49.578  1.00  0.00     0.030 A 
ENDROOT
BRANCH   1   7
HETATM    7  N   UNL     1      24.039  44.892  48.696  1.00  0.00    -0.333 N 
HETATM    8  H   UNL     1      24.038  45.830  48.300  1.00  0.00     0.168 HD
BRANCH   7   9
HETATM    9  C   UNL     1      23.216  44.070  47.998  1.00  0.00     0.179 C 
HETATM   10  S   UNL     1      22.934  44.423  46.387  1.00  0.00    -0.040 SA
BRANCH   9  11
HETATM   11  N   UNL     1      22.646  42.974  48.560  1.00  0.00    -0.299 N 
HETATM   12  C   UNL     1      23.071  41.669  48.370  1.00  0.00     0.257 C 
HETATM   13  O   UNL     1      22.266  40.747  48.262  1.00  0.00    -0.267 OA
HETATM   14  H   UNL     1      21.638  42.985  48.494  1.00  0.00     0.171 HD
BRANCH  12  15
HETATM   15  C   UNL     1      24.515  41.375  48.367  1.00  0.00     0.032 A 
HETATM   16  C   UNL     1      25.144  41.211  49.603  1.00  0.00     0.020 A 
HETATM   17  C   UNL     1      26.489  40.837  49.660  1.00  0.00     0.038 A 
HETATM   18  C   UNL     1      27.206  40.615  48.481  1.00  0.00     0.068 A 
HETATM   19  C   UNL     1      26.567  40.786  47.247  1.00  0.00     0.038 A 
HETATM   20  C   UNL     1      25.220  41.150  47.184  1.00  0.00     0.020 A 
BRANCH  18  21
HETATM   21  O   UNL     1      28.516  40.227  48.404  1.00  0.00    -0.351 OA
BRANCH  21  22
HETATM   22  C   UNL     1      28.947  39.243  49.346  1.00  0.00     0.175 C 
BRANCH  22  23
HETATM   23  C   UNL     1      28.646  37.864  48.768  1.00  0.00     0.022 C 
HETATM   24  C   UNL     1      27.464  37.211  49.464  1.00  0.00     0.007 C 
ENDBRANCH  22  23
ENDBRANCH  21  22
ENDBRANCH  18  21
ENDBRANCH  12  15
ENDBRANCH   9  11
ENDBRANCH   7   9
ENDBRANCH   1   7
BRANCH   3  25
HETATM   25  O   UNL     1      24.829  44.047  53.384  1.00  0.00    -0.360 OA
HETATM   26  H   UNL     1      24.598  43.101  53.427  1.00  0.00     0.217 HD
ENDBRANCH   3  25
BRANCH   4  27
HETATM   27  C   UNL     1      27.750  44.304  52.989  1.00  0.00     0.183 A 
HETATM   28  O   UNL     1      27.631  45.177  54.041  1.00  0.00    -0.288 OA
HETATM   29  C   UNL     1      28.676  44.858  54.860  1.00  0.00     0.112 A 
HETATM   30  C   UNL     1      29.357  43.804  54.276  1.00  0.00     0.094 A 
HETATM   31  C   UNL     1      29.013  45.465  56.070  1.00  0.00    -0.025 A 
HETATM   32  N   UNL     1      28.772  43.474  53.078  1.00  0.00    -0.221 NA
HETATM   33  C   UNL     1      30.465  43.261  54.936  1.00  0.00     0.041 A 
HETATM   34  C   UNL     1      30.859  43.828  56.163  1.00  0.00    -0.059 A 
HETATM   35  C   UNL     1      30.138  44.907  56.709  1.00  0.00     0.016 A 
HETATM   36  C   UNL     1      32.018  43.239  56.916  1.00  0.00     0.048 C 
HETATM   37  C   UNL     1      28.290  46.635  56.655  1.00  0.00     0.051 C 
ENDBRANCH   4  27
TORSDOF 9
ENDMDL
MODEL 4
REMARK VINA RESULT:      -8.8      2.321      3.207
REMARK  9 active torsions:
REMARK  status: ('A' for Active; 'I' for Inactive)
REMARK    1  A    between atoms: C_2  and  C_3 
REMARK    2  A    between atoms: C_3  and  O_4 
REMARK    3  A    between atoms: O_4  and  C_5 
REMARK    4  A    between atoms: C_8  and  C_9 
REMARK       I    between atoms: C_9  and  N_10 
REMARK    5  A    between atoms: N_10  and  C_11 
REMARK    6  A    between atoms: C_11  and  N_12 
REMARK    7  A    between atoms: N_12  and  C_13 
REMARK    8  A    between atoms: C_15  and  O_16 
REMARK    9  A    between atoms: C_17  and  C_18 
ROOT
HETATM    1  C   UNL     1      24.002  44.988  50.536  1.00  0.00     0.036 A 
HETATM    2  C   UNL     1      24.565  46.223  50.845  1.00  0.00     0.067 A 
HETATM    3  C   UNL     1      25.535  46.336  51.849  1.00  0.00     0.082 A 
HETATM    4  C   UNL     1      25.952  45.225  52.592  1.00  0.00     0.050 A 
HETATM    5  C   UNL     1      25.355  43.991  52.305  1.00  0.00     0.021 A 
HETATM    6  C   UNL     1      24.395  43.875  51.292  1.00  0.00     0.030 A 
ENDROOT
BRANCH   1   7
HETATM    7  N   UNL     1      23.038  44.757  49.534  1.00  0.00    -0.333 N 
HETATM    8  H   UNL     1      22.132  45.188  49.705  1.00  0.00     0.168 HD
BRANCH   7   9
HETATM    9  C   UNL     1      23.042  44.084  48.357  1.00  0.00     0.179 C 
HETATM   10  S   UNL     1      22.764  42.434  48.394  1.00  0.00    -0.040 SA
BRANCH   9  11
HETATM   11  N   UNL     1      23.239  44.710  47.169  1.00  0.00    -0.299 N 
HETATM   12  C   UNL     1      22.342  45.575  46.566  1.00  0.00     0.257 C 
HETATM   13  O   UNL     1      22.172  45.570  45.349  1.00  0.00    -0.267 OA
HETATM   14  H   UNL     1      23.596  44.087  46.458  1.00  0.00     0.171 HD
BRANCH  12  15
HETATM   15  C   UNL     1      21.631  46.566  47.393  1.00  0.00     0.032 A 
HETATM   16  C   UNL     1      20.290  46.317  47.692  1.00  0.00     0.020 A 
HETATM   17  C   UNL     1      19.593  47.173  48.551  1.00  0.00     0.038 A 
HETATM   18  C   UNL     1      20.239  48.271  49.123  1.00  0.00     0.068 A 
HETATM   19  C   UNL     1      21.584  48.514  48.815  1.00  0.00     0.038 A 
HETATM   20  C   UNL     1      22.288  47.658  47.964  1.00  0.00     0.020 A 
BRANCH  18  21
HETATM   21  O   UNL     1      19.676  49.166  49.991  1.00  0.00    -0.351 OA
BRANCH  21  22
HETATM   22  C   UNL     1      20.385  50.390  50.195  1.00  0.00     0.175 C 
BRANCH  22  23
HETATM   23  C   UNL     1      19.432  51.547  49.913  1.00  0.00     0.022 C 
HETATM   24  C   UNL     1      19.361  51.865  48.430  1.00  0.00     0.007 C 
ENDBRANCH  22  23
ENDBRANCH  21  22
ENDBRANCH  18  21
ENDBRANCH  12  15
ENDBRANCH   9  11
ENDBRANCH   7   9
ENDBRANCH   1   7
BRANCH   3  25
HETATM   25  O   UNL     1      26.011  47.607  52.057  1.00  0.00    -0.360 OA
HETATM   26  H   UNL     1      26.724  47.574  52.721  1.00  0.00     0.217 HD
ENDBRANCH   3  25
BRANCH   4  27
HETATM   27  C   UNL     1      26.952  45.298  53.650  1.00  0.00     0.183 A 
HETATM   28  O   UNL     1      27.990  44.404  53.559  1.00  0.00    -0.288 OA
HETATM   29  C   UNL     1      28.755  44.666  54.659  1.00  0.00     0.112 A 
HETATM   30  C   UNL     1      28.157  45.710  55.343  1.00  0.00     0.094 A 
HETATM   31  C   UNL     1      29.929  44.019  55.042  1.00  0.00    -0.025 A 
HETATM   32  N   UNL     1      27.002  46.090  54.705  1.00  0.00    -0.221 NA
HETATM   33  C   UNL     1      28.765  46.198  56.505  1.00  0.00     0.041 A 
HETATM   34  C   UNL     1      29.954  45.589  56.948  1.00  0.00    -0.059 A 
HETATM   35  C   UNL     1      30.515  44.522  56.221  1.00  0.00     0.016 A 
HETATM   36  C   UNL     1      30.653  46.119  58.168  1.00  0.00     0.048 C 
HETATM   37  C   UNL     1      30.528  42.860  54.312  1.00  0.00     0.051 C 
ENDBRANCH   4  27
TORSDOF 9
ENDMDL
MODEL 5
REMARK VINA RESULT:      -8.7     12.374     13.499
REMARK  9 active torsions:
REMARK  status: ('A' for Active; 'I' for Inactive)
REMARK    1  A    between atoms: C_2  and  C_3 
REMARK    2  A    between atoms: C_3  and  O_4 
REMARK    3  A    between atoms: O_4  and  C_5 
REMARK    4  A    between atoms: C_8  and  C_9 
REMARK       I    between atoms: C_9  and  N_10 
REMARK    5  A    between atoms: N_10  and  C_11 
REMARK    6  A    between atoms: C_11  and  N_12 
REMARK    7  A    between atoms: N_12  and  C_13 
REMARK    8  A    between atoms: C_15  and  O_16 
REMARK    9  A    between atoms: C_17  and  C_18 
ROOT
HETATM    1  C   UNL     1      30.672  48.047  39.283  1.00  0.00     0.036 A 
HETATM    2  C   UNL     1      31.537  47.446  40.193  1.00  0.00     0.067 A 
HETATM    3  C   UNL     1      32.480  48.208  40.895  1.00  0.00     0.082 A 
HETATM    4  C   UNL     1      32.605  49.587  40.689  1.00  0.00     0.050 A 
HETATM    5  C   UNL     1      31.760  50.182  39.743  1.00  0.00     0.021 A 
HETATM    6  C   UNL     1      30.808  49.422  39.051  1.00  0.00     0.030 A 
ENDROOT
BRANCH   1   7
HETATM    7  N   UNL     1      29.675  47.382  38.542  1.00  0.00    -0.333 N 
HETATM    8  H   UNL     1      29.959  47.089  37.609  1.00  0.00     0.168 HD
BRANCH   7   9
HETATM    9  C   UNL     1      28.392  47.022  38.794  1.00  0.00     0.179 C 
HETATM   10  S   UNL     1      28.097  46.040  40.117  1.00  0.00    -0.040 SA
BRANCH   9  11
HETATM   11  N   UNL     1      27.358  47.451  38.027  1.00  0.00    -0.299 N 
HETATM   12  C   UNL     1      26.466  48.450  38.379  1.00  0.00     0.257 C 
HETATM   13  O   UNL     1      25.271  48.363  38.104  1.00  0.00    -0.267 OA
HETATM   14  H   UNL     1      26.829  46.687  37.629  1.00  0.00     0.171 HD
BRANCH  12  15
HETATM   15  C   UNL     1      26.972  49.669  39.033  1.00  0.00     0.032 A 
HETATM   16  C   UNL     1      27.055  49.669  40.428  1.00  0.00     0.020 A 
HETATM   17  C   UNL     1      27.617  50.761  41.096  1.00  0.00     0.038 A 
HETATM   18  C   UNL     1      28.110  51.849  40.372  1.00  0.00     0.068 A 
HETATM   19  C   UNL     1      28.019  51.841  38.975  1.00  0.00     0.038 A 
HETATM   20  C   UNL     1      27.467  50.749  38.300  1.00  0.00     0.020 A 
BRANCH  18  21
HETATM   21  O   UNL     1      28.698  52.962  40.905  1.00  0.00    -0.351 OA
BRANCH  21  22
HETATM   22  C   UNL     1      29.799  53.513  40.179  1.00  0.00     0.175 C 
BRANCH  22  23
HETATM   23  C   UNL     1      31.027  53.492  41.084  1.00  0.00     0.022 C 
HETATM   24  C   UNL     1      30.754  52.751  42.382  1.00  0.00     0.007 C 
ENDBRANCH  22  23
ENDBRANCH  21  22
ENDBRANCH  18  21
ENDBRANCH  12  15
ENDBRANCH   9  11
ENDBRANCH   7   9
ENDBRANCH   1   7
BRANCH   3  25
HETATM   25  O   UNL     1      33.272  47.498  41.761  1.00  0.00    -0.360 OA
HETATM   26  H   UNL     1      33.634  46.721  41.297  1.00  0.00     0.217 HD
ENDBRANCH   3  25
BRANCH   4  27
HETATM   27  C   UNL     1      33.577  50.418  41.390  1.00  0.00     0.183 A 
HETATM   28  O   UNL     1      34.567  50.968  40.616  1.00  0.00    -0.288 OA
HETATM   29  C   UNL     1      35.336  51.666  41.503  1.00  0.00     0.112 A 
HETATM   30  C   UNL     1      34.765  51.520  42.754  1.00  0.00     0.094 A 
HETATM   31  C   UNL     1      36.487  52.401  41.222  1.00  0.00    -0.025 A 
HETATM   32  N   UNL     1      33.659  50.708  42.675  1.00  0.00    -0.221 NA
HETATM   33  C   UNL     1      35.348  52.169  43.848  1.00  0.00     0.041 A 
HETATM   34  C   UNL     1      36.514  52.929  43.634  1.00  0.00    -0.059 A 
HETATM   35  C   UNL     1      37.061  53.036  42.341  1.00  0.00     0.016 A 
HETATM   36  C   UNL     1      37.138  53.673  44.780  1.00  0.00     0.048 C 
HETATM   37  C   UNL     1      37.112  52.502  39.868  1.00  0.00     0.051 C 
ENDBRANCH   4  27
TORSDOF 9
ENDMDL
MODEL 6
REMARK VINA RESULT:      -8.7      2.172      2.812
REMARK  9 active torsions:
REMARK  status: ('A' for Active; 'I' for Inactive)
REMARK    1  A    between atoms: C_2  and  C_3 
REMARK    2  A    between atoms: C_3  and  O_4 
REMARK    3  A    between atoms: O_4  and  C_5 
REMARK    4  A    between atoms: C_8  and  C_9 
REMARK       I    between atoms: C_9  and  N_10 
REMARK    5  A    between atoms: N_10  and  C_11 
REMARK    6  A    between atoms: C_11  and  N_12 
REMARK    7  A    between atoms: N_12  and  C_13 
REMARK    8  A    between atoms: C_15  and  O_16 
REMARK    9  A    between atoms: C_17  and  C_18 
ROOT
HETATM    1  C   UNL     1      26.234  40.268  49.721  1.00  0.00     0.036 A 
HETATM    2  C   UNL     1      27.418  39.723  50.208  1.00  0.00     0.067 A 
HETATM    3  C   UNL     1      28.118  40.347  51.249  1.00  0.00     0.082 A 
HETATM    4  C   UNL     1      27.671  41.547  51.815  1.00  0.00     0.050 A 
HETATM    5  C   UNL     1      26.500  42.113  51.295  1.00  0.00     0.021 A 
HETATM    6  C   UNL     1      25.792  41.482  50.264  1.00  0.00     0.030 A 
ENDROOT
BRANCH   1   7
HETATM    7  N   UNL     1      25.440  39.714  48.697  1.00  0.00    -0.333 N 
HETATM    8  H   UNL     1      25.119  38.764  48.871  1.00  0.00     0.168 HD
BRANCH   7   9
HETATM    9  C   UNL     1      24.982  40.170  47.504  1.00  0.00     0.179 C 
HETATM   10  S   UNL     1      26.098  40.771  46.412  1.00  0.00    -0.040 SA
BRANCH   9  11
HETATM   11  N   UNL     1      23.667  40.131  47.174  1.00  0.00    -0.299 N 
HETATM   12  C   UNL     1      22.665  40.850  47.805  1.00  0.00     0.257 C 
HETATM   13  O   UNL     1      21.558  40.356  48.007  1.00  0.00    -0.267 OA
HETATM   14  H   UNL     1      23.331  39.188  47.032  1.00  0.00     0.171 HD
BRANCH  12  15
HETATM   15  C   UNL     1      22.912  42.254  48.176  1.00  0.00     0.032 A 
HETATM   16  C   UNL     1      23.054  43.181  47.141  1.00  0.00     0.020 A 
HETATM   17  C   UNL     1      23.194  44.541  47.434  1.00  0.00     0.038 A 
HETATM   18  C   UNL     1      23.180  44.978  48.760  1.00  0.00     0.068 A 
HETATM   19  C   UNL     1      23.040  44.041  49.790  1.00  0.00     0.038 A 
HETATM   20  C   UNL     1      22.890  42.681  49.504  1.00  0.00     0.020 A 
BRANCH  18  21
HETATM   21  O   UNL     1      23.287  46.278  49.173  1.00  0.00    -0.351 OA
BRANCH  21  22
HETATM   22  C   UNL     1      24.334  46.569  50.100  1.00  0.00     0.175 C 
BRANCH  22  23
HETATM   23  C   UNL     1      24.983  47.887  49.689  1.00  0.00     0.022 C 
HETATM   24  C   UNL     1      26.486  47.866  49.912  1.00  0.00     0.007 C 
ENDBRANCH  22  23
ENDBRANCH  21  22
ENDBRANCH  18  21
ENDBRANCH  12  15
ENDBRANCH   9  11
ENDBRANCH   7   9
ENDBRANCH   1   7
BRANCH   3  25
HETATM   25  O   UNL     1      29.270  39.710  51.638  1.00  0.00    -0.360 OA
HETATM   26  H   UNL     1      29.235  39.550  52.599  1.00  0.00     0.217 HD
ENDBRANCH   3  25
BRANCH   4  27
HETATM   27  C   UNL     1      28.371  42.235  52.892  1.00  0.00     0.183 A 
HETATM   28  O   UNL     1      27.877  43.467  53.240  1.00  0.00    -0.288 OA
HETATM   29  C   UNL     1      28.708  43.892  54.237  1.00  0.00     0.112 A 
HETATM   30  C   UNL     1      29.643  42.895  54.452  1.00  0.00     0.094 A 
HETATM   31  C   UNL     1      28.644  45.102  54.928  1.00  0.00    -0.025 A 
HETATM   32  N   UNL     1      29.433  41.856  53.579  1.00  0.00    -0.221 NA
HETATM   33  C   UNL     1      30.604  43.070  55.455  1.00  0.00     0.041 A 
HETATM   34  C   UNL     1      30.596  44.270  56.191  1.00  0.00    -0.059 A 
HETATM   35  C   UNL     1      29.629  45.257  55.924  1.00  0.00     0.016 A 
HETATM   36  C   UNL     1      31.587  44.467  57.302  1.00  0.00     0.048 C 
HETATM   37  C   UNL     1      27.654  46.184  54.641  1.00  0.00     0.051 C 
ENDBRANCH   4  27
TORSDOF 9
ENDMDL
MODEL 7
REMARK VINA RESULT:      -8.6      2.240      2.725
REMARK  9 active torsions:
REMARK  status: ('A' for Active; 'I' for Inactive)
REMARK    1  A    between atoms: C_2  and  C_3 
REMARK    2  A    between atoms: C_3  and  O_4 
REMARK    3  A    between atoms: O_4  and  C_5 
REMARK    4  A    between atoms: C_8  and  C_9 
REMARK       I    between atoms: C_9  and  N_10 
REMARK    5  A    between atoms: N_10  and  C_11 
REMARK    6  A    between atoms: C_11  and  N_12 
REMARK    7  A    between atoms: N_12  and  C_13 
REMARK    8  A    between atoms: C_15  and  O_16 
REMARK    9  A    between atoms: C_17  and  C_18 
ROOT
HETATM    1  C   UNL     1      25.068  44.436  49.824  1.00  0.00     0.036 A 
HETATM    2  C   UNL     1      24.623  44.217  51.125  1.00  0.00     0.067 A 
HETATM    3  C   UNL     1      25.533  44.138  52.188  1.00  0.00     0.082 A 
HETATM    4  C   UNL     1      26.913  44.250  51.979  1.00  0.00     0.050 A 
HETATM    5  C   UNL     1      27.358  44.431  50.663  1.00  0.00     0.021 A 
HETATM    6  C   UNL     1      26.448  44.523  49.603  1.00  0.00     0.030 A 
ENDROOT
BRANCH   1   7
HETATM    7  N   UNL     1      24.242  44.554  48.688  1.00  0.00    -0.333 N 
HETATM    8  H   UNL     1      23.995  45.509  48.436  1.00  0.00     0.168 HD
BRANCH   7   9
HETATM    9  C   UNL     1      23.694  43.666  47.821  1.00  0.00     0.179 C 
HETATM   10  S   UNL     1      23.332  42.135  48.389  1.00  0.00    -0.040 SA
BRANCH   9  11
HETATM   11  N   UNL     1      23.417  43.992  46.534  1.00  0.00    -0.299 N 
HETATM   12  C   UNL     1      22.157  44.289  46.041  1.00  0.00     0.257 C 
HETATM   13  O   UNL     1      21.804  43.910  44.926  1.00  0.00    -0.267 OA
HETATM   14  H   UNL     1      23.874  43.380  45.872  1.00  0.00     0.171 HD
BRANCH  12  15
HETATM   15  C   UNL     1      21.252  45.133  46.840  1.00  0.00     0.032 A 
HETATM   16  C   UNL     1      21.633  46.458  47.064  1.00  0.00     0.020 A 
HETATM   17  C   UNL     1      20.770  47.331  47.733  1.00  0.00     0.038 A 
HETATM   18  C   UNL     1      19.519  46.885  48.168  1.00  0.00     0.068 A 
HETATM   19  C   UNL     1      19.149  45.554  47.942  1.00  0.00     0.038 A 
HETATM   20  C   UNL     1      20.003  44.679  47.266  1.00  0.00     0.020 A 
BRANCH  18  21
HETATM   21  O   UNL     1      18.581  47.644  48.813  1.00  0.00    -0.351 OA
BRANCH  21  22
HETATM   22  C   UNL     1      18.737  49.061  48.727  1.00  0.00     0.175 C 
BRANCH  22  23
HETATM   23  C   UNL     1      19.073  49.591  50.117  1.00  0.00     0.022 C 
HETATM   24  C   UNL     1      18.577  48.656  51.208  1.00  0.00     0.007 C 
ENDBRANCH  22  23
ENDBRANCH  21  22
ENDBRANCH  18  21
ENDBRANCH  12  15
ENDBRANCH   9  11
ENDBRANCH   7   9
ENDBRANCH   1   7
BRANCH   3  25
HETATM   25  O   UNL     1      24.969  43.920  53.419  1.00  0.00    -0.360 OA
HETATM   26  H   UNL     1      24.820  42.963  53.536  1.00  0.00     0.217 HD
ENDBRANCH   3  25
BRANCH   4  27
HETATM   27  C   UNL     1      27.895  44.166  53.054  1.00  0.00     0.183 A 
HETATM   28  O   UNL     1      27.749  45.074  54.073  1.00  0.00    -0.288 OA
HETATM   29  C   UNL     1      28.785  44.797  54.918  1.00  0.00     0.112 A 
HETATM   30  C   UNL     1      29.488  43.732  54.381  1.00  0.00     0.094 A 
HETATM   31  C   UNL     1      29.097  45.449  56.110  1.00  0.00    -0.025 A 
HETATM   32  N   UNL     1      28.926  43.353  53.186  1.00  0.00    -0.221 NA
HETATM   33  C   UNL     1      30.592  43.227  55.075  1.00  0.00     0.041 A 
HETATM   34  C   UNL     1      30.962  43.841  56.288  1.00  0.00    -0.059 A 
HETATM   35  C   UNL     1      30.219  44.928  56.785  1.00  0.00     0.016 A 
HETATM   36  C   UNL     1      32.116  43.293  57.077  1.00  0.00     0.048 C 
HETATM   37  C   UNL     1      28.351  46.629  56.643  1.00  0.00     0.051 C 
ENDBRANCH   4  27
TORSDOF 9
ENDMDL
MODEL 8
REMARK VINA RESULT:      -8.5     18.204     20.907
REMARK  9 active torsions:
REMARK  status: ('A' for Active; 'I' for Inactive)
REMARK    1  A    between atoms: C_2  and  C_3 
REMARK    2  A    between atoms: C_3  and  O_4 
REMARK    3  A    between atoms: O_4  and  C_5 
REMARK    4  A    between atoms: C_8  and  C_9 
REMARK       I    between atoms: C_9  and  N_10 
REMARK    5  A    between atoms: N_10  and  C_11 
REMARK    6  A    between atoms: C_11  and  N_12 
REMARK    7  A    between atoms: N_12  and  C_13 
REMARK    8  A    between atoms: C_15  and  O_16 
REMARK    9  A    between atoms: C_17  and  C_18 
ROOT
HETATM    1  C   UNL     1      36.735  47.849  66.632  1.00  0.00     0.036 A 
HETATM    2  C   UNL     1      36.572  47.623  65.269  1.00  0.00     0.067 A 
HETATM    3  C   UNL     1      36.996  46.421  64.687  1.00  0.00     0.082 A 
HETATM    4  C   UNL     1      37.619  45.422  65.445  1.00  0.00     0.050 A 
HETATM    5  C   UNL     1      37.817  45.671  66.810  1.00  0.00     0.021 A 
HETATM    6  C   UNL     1      37.381  46.866  67.393  1.00  0.00     0.030 A 
ENDROOT
BRANCH   1   7
HETATM    7  N   UNL     1      36.326  49.009  67.322  1.00  0.00    -0.333 N 
HETATM    8  H   UNL     1      35.341  49.028  67.579  1.00  0.00     0.168 HD
BRANCH   7   9
HETATM    9  C   UNL     1      36.960  50.130  67.746  1.00  0.00     0.179 C 
HETATM   10  S   UNL     1      37.152  50.350  69.393  1.00  0.00    -0.040 SA
BRANCH   9  11
HETATM   11  N   UNL     1      37.455  51.049  66.879  1.00  0.00    -0.299 N 
HETATM   12  C   UNL     1      38.789  51.174  66.526  1.00  0.00     0.257 C 
HETATM   13  O   UNL     1      39.304  52.278  66.365  1.00  0.00    -0.267 OA
HETATM   14  H   UNL     1      37.090  51.976  67.047  1.00  0.00     0.171 HD
BRANCH  12  15
HETATM   15  C   UNL     1      39.583  49.959  66.271  1.00  0.00     0.032 A 
HETATM   16  C   UNL     1      40.178  49.333  67.368  1.00  0.00     0.020 A 
HETATM   17  C   UNL     1      40.861  48.125  67.199  1.00  0.00     0.038 A 
HETATM   18  C   UNL     1      40.941  47.534  65.936  1.00  0.00     0.068 A 
HETATM   19  C   UNL     1      40.344  48.172  64.842  1.00  0.00     0.038 A 
HETATM   20  C   UNL     1      39.651  49.375  65.005  1.00  0.00     0.020 A 
BRANCH  18  21
HETATM   21  O   UNL     1      41.561  46.350  65.645  1.00  0.00    -0.351 OA
BRANCH  21  22
HETATM   22  C   UNL     1      42.612  46.400  64.680  1.00  0.00     0.175 C 
BRANCH  22  23
HETATM   23  C   UNL     1      42.816  44.994  64.122  1.00  0.00     0.022 C 
HETATM   24  C   UNL     1      41.557  44.470  63.453  1.00  0.00     0.007 C 
ENDBRANCH  22  23
ENDBRANCH  21  22
ENDBRANCH  18  21
ENDBRANCH  12  15
ENDBRANCH   9  11
ENDBRANCH   7   9
ENDBRANCH   1   7
BRANCH   3  25
HETATM   25  O   UNL     1      36.779  46.321  63.336  1.00  0.00    -0.360 OA
HETATM   26  H   UNL     1      36.151  47.014  63.063  1.00  0.00     0.217 HD
ENDBRANCH   3  25
BRANCH   4  27
HETATM   27  C   UNL     1      38.084  44.161  64.881  1.00  0.00     0.183 A 
HETATM   28  O   UNL     1      38.921  43.419  65.676  1.00  0.00    -0.288 OA
HETATM   29  C   UNL     1      39.217  42.322  64.919  1.00  0.00     0.112 A 
HETATM   30  C   UNL     1      38.534  42.446  63.722  1.00  0.00     0.094 A 
HETATM   31  C   UNL     1      40.048  41.258  65.267  1.00  0.00    -0.025 A 
HETATM   32  N   UNL     1      37.834  43.627  63.700  1.00  0.00    -0.221 NA
HETATM   33  C   UNL     1      38.643  41.427  62.769  1.00  0.00     0.041 A 
HETATM   34  C   UNL     1      39.467  40.323  63.057  1.00  0.00    -0.059 A 
HETATM   35  C   UNL     1      40.149  40.251  64.286  1.00  0.00     0.016 A 
HETATM   36  C   UNL     1      39.569  39.193  62.072  1.00  0.00     0.048 C 
HETATM   37  C   UNL     1      40.815  41.172  66.547  1.00  0.00     0.051 C 
ENDBRANCH   4  27
TORSDOF 9
ENDMDL
MODEL 9
REMARK VINA RESULT:      -8.5      2.922      5.654
REMARK  9 active torsions:
REMARK  status: ('A' for Active; 'I' for Inactive)
REMARK    1  A    between atoms: C_2  and  C_3 
REMARK    2  A    between atoms: C_3  and  O_4 
REMARK    3  A    between atoms: O_4  and  C_5 
REMARK    4  A    between atoms: C_8  and  C_9 
REMARK       I    between atoms: C_9  and  N_10 
REMARK    5  A    between atoms: N_10  and  C_11 
REMARK    6  A    between atoms: C_11  and  N_12 
REMARK    7  A    between atoms: N_12  and  C_13 
REMARK    8  A    between atoms: C_15  and  O_16 
REMARK    9  A    between atoms: C_17  and  C_18 
ROOT
HETATM    1  C   UNL     1      24.229  44.952  49.419  1.00  0.00     0.036 A 
HETATM    2  C   UNL     1      25.599  45.055  49.199  1.00  0.00     0.067 A 
HETATM    3  C   UNL     1      26.497  45.077  50.274  1.00  0.00     0.082 A 
HETATM    4  C   UNL     1      26.050  45.023  51.600  1.00  0.00     0.050 A 
HETATM    5  C   UNL     1      24.668  44.959  51.819  1.00  0.00     0.021 A 
HETATM    6  C   UNL     1      23.772  44.923  50.743  1.00  0.00     0.030 A 
ENDROOT
BRANCH   1   7
HETATM    7  N   UNL     1      23.242  44.898  48.414  1.00  0.00    -0.333 N 
HETATM    8  H   UNL     1      22.724  45.764  48.277  1.00  0.00     0.168 HD
BRANCH   7   9
HETATM    9  C   UNL     1      22.817  43.938  47.556  1.00  0.00     0.179 C 
HETATM   10  S   UNL     1      23.144  44.138  45.927  1.00  0.00    -0.040 SA
BRANCH   9  11
HETATM   11  N   UNL     1      22.166  42.827  47.983  1.00  0.00    -0.299 N 
HETATM   12  C   UNL     1      22.709  41.552  48.026  1.00  0.00     0.257 C 
HETATM   13  O   UNL     1      22.039  40.565  47.733  1.00  0.00    -0.267 OA
HETATM   14  H   UNL     1      21.233  42.754  47.601  1.00  0.00     0.171 HD
BRANCH  12  15
HETATM   15  C   UNL     1      24.093  41.376  48.500  1.00  0.00     0.032 A 
HETATM   16  C   UNL     1      25.087  41.183  47.538  1.00  0.00     0.020 A 
HETATM   17  C   UNL     1      26.428  41.106  47.923  1.00  0.00     0.038 A 
HETATM   18  C   UNL     1      26.781  41.234  49.269  1.00  0.00     0.068 A 
HETATM   19  C   UNL     1      25.777  41.424  50.226  1.00  0.00     0.038 A 
HETATM   20  C   UNL     1      24.435  41.511  49.847  1.00  0.00     0.020 A 
BRANCH  18  21
HETATM   21  O   UNL     1      28.054  41.197  49.768  1.00  0.00    -0.351 OA
BRANCH  21  22
HETATM   22  C   UNL     1      28.415  40.031  50.509  1.00  0.00     0.175 C 
BRANCH  22  23
HETATM   23  C   UNL     1      28.877  38.962  49.523  1.00  0.00     0.022 C 
HETATM   24  C   UNL     1      27.988  37.731  49.574  1.00  0.00     0.007 C 
ENDBRANCH  22  23
ENDBRANCH  21  22
ENDBRANCH  18  21
ENDBRANCH  12  15
ENDBRANCH   9  11
ENDBRANCH   7   9
ENDBRANCH   1   7
BRANCH   3  25
HETATM   25  O   UNL     1      27.819  45.182  49.925  1.00  0.00    -0.360 OA
HETATM   26  H   UNL     1      28.368  45.090  50.726  1.00  0.00     0.217 HD
ENDBRANCH   3  25
BRANCH   4  27
HETATM   27  C   UNL     1      26.948  45.052  52.750  1.00  0.00     0.183 A 
HETATM   28  O   UNL     1      28.006  44.178  52.707  1.00  0.00    -0.288 OA
HETATM   29  C   UNL     1      28.661  44.390  53.886  1.00  0.00     0.112 A 
HETATM   30  C   UNL     1      27.983  45.387  54.567  1.00  0.00     0.094 A 
HETATM   31  C   UNL     1      29.807  43.739  54.341  1.00  0.00    -0.025 A 
HETATM   32  N   UNL     1      26.885  45.785  53.845  1.00  0.00    -0.221 NA
HETATM   33  C   UNL     1      28.473  45.818  55.804  1.00  0.00     0.041 A 
HETATM   34  C   UNL     1      29.628  45.202  56.322  1.00  0.00    -0.059 A 
HETATM   35  C   UNL     1      30.273  44.185  55.594  1.00  0.00     0.016 A 
HETATM   36  C   UNL     1      30.201  45.673  57.628  1.00  0.00     0.048 C 
HETATM   37  C   UNL     1      30.492  42.631  53.609  1.00  0.00     0.051 C 
ENDBRANCH   4  27
TORSDOF 9
ENDMDL
MODEL 10
REMARK VINA RESULT:      -8.4     11.330     13.785
REMARK  9 active torsions:
REMARK  status: ('A' for Active; 'I' for Inactive)
REMARK    1  A    between atoms: C_2  and  C_3 
REMARK    2  A    between atoms: C_3  and  O_4 
REMARK    3  A    between atoms: O_4  and  C_5 
REMARK    4  A    between atoms: C_8  and  C_9 
REMARK       I    between atoms: C_9  and  N_10 
REMARK    5  A    between atoms: N_10  and  C_11 
REMARK    6  A    between atoms: C_11  and  N_12 
REMARK    7  A    between atoms: N_12  and  C_13 
REMARK    8  A    between atoms: C_15  and  O_16 
REMARK    9  A    between atoms: C_17  and  C_18 
ROOT
HETATM    1  C   UNL     1      31.429  49.838  40.880  1.00  0.00     0.036 A 
HETATM    2  C   UNL     1      31.322  49.192  39.653  1.00  0.00     0.067 A 
HETATM    3  C   UNL     1      30.393  48.160  39.465  1.00  0.00     0.082 A 
HETATM    4  C   UNL     1      29.563  47.726  40.506  1.00  0.00     0.050 A 
HETATM    5  C   UNL     1      29.701  48.353  41.751  1.00  0.00     0.021 A 
HETATM    6  C   UNL     1      30.621  49.393  41.934  1.00  0.00     0.030 A 
ENDROOT
BRANCH   1   7
HETATM    7  N   UNL     1      32.310  50.899  41.171  1.00  0.00    -0.333 N 
HETATM    8  H   UNL     1      32.952  50.723  41.942  1.00  0.00     0.168 HD
BRANCH   7   9
HETATM    9  C   UNL     1      32.515  52.130  40.640  1.00  0.00     0.179 C 
HETATM   10  S   UNL     1      33.508  52.253  39.300  1.00  0.00    -0.040 SA
BRANCH   9  11
HETATM   11  N   UNL     1      31.924  53.241  41.148  1.00  0.00    -0.299 N 
HETATM   12  C   UNL     1      30.733  53.787  40.699  1.00  0.00     0.257 C 
HETATM   13  O   UNL     1      30.576  55.003  40.628  1.00  0.00    -0.267 OA
HETATM   14  H   UNL     1      32.579  53.999  41.288  1.00  0.00     0.171 HD
BRANCH  12  15
HETATM   15  C   UNL     1      29.612  52.890  40.366  1.00  0.00     0.032 A 
HETATM   16  C   UNL     1      29.511  52.441  39.048  1.00  0.00     0.020 A 
HETATM   17  C   UNL     1      28.525  51.514  38.698  1.00  0.00     0.038 A 
HETATM   18  C   UNL     1      27.646  51.025  39.666  1.00  0.00     0.068 A 
HETATM   19  C   UNL     1      27.753  51.484  40.985  1.00  0.00     0.038 A 
HETATM   20  C   UNL     1      28.742  52.404  41.344  1.00  0.00     0.020 A 
BRANCH  18  21
HETATM   21  O   UNL     1      26.656  50.104  39.455  1.00  0.00    -0.351 OA
BRANCH  21  22
HETATM   22  C   UNL     1      26.763  49.313  38.270  1.00  0.00     0.175 C 
BRANCH  22  23
HETATM   23  C   UNL     1      25.354  49.023  37.761  1.00  0.00     0.022 C 
HETATM   24  C   UNL     1      24.302  49.358  38.804  1.00  0.00     0.007 C 
ENDBRANCH  22  23
ENDBRANCH  21  22
ENDBRANCH  18  21
ENDBRANCH  12  15
ENDBRANCH   9  11
ENDBRANCH   7   9
ENDBRANCH   1   7
BRANCH   3  25
HETATM   25  O   UNL     1      30.386  47.605  38.211  1.00  0.00    -0.360 OA
HETATM   26  H   UNL     1      29.797  46.828  38.210  1.00  0.00     0.217 HD
ENDBRANCH   3  25
BRANCH   4  27
HETATM   27  C   UNL     1      28.588  46.652  40.359  1.00  0.00     0.183 A 
HETATM   28  O   UNL     1      27.298  46.958  40.713  1.00  0.00    -0.288 OA
HETATM   29  C   UNL     1      26.609  45.798  40.503  1.00  0.00     0.112 A 
HETATM   30  C   UNL     1      27.507  44.863  40.017  1.00  0.00     0.094 A 
HETATM   31  C   UNL     1      25.251  45.574  40.724  1.00  0.00    -0.025 A 
HETATM   32  N   UNL     1      28.765  45.410  39.950  1.00  0.00    -0.221 NA
HETATM   33  C   UNL     1      27.044  43.584  39.688  1.00  0.00     0.041 A 
HETATM   34  C   UNL     1      25.681  43.291  39.888  1.00  0.00    -0.059 A 
HETATM   35  C   UNL     1      24.813  44.275  40.395  1.00  0.00     0.016 A 
HETATM   36  C   UNL     1      25.147  41.940  39.504  1.00  0.00     0.048 C 
HETATM   37  C   UNL     1      24.313  46.587  41.296  1.00  0.00     0.051 C 
ENDBRANCH   4  27
TORSDOF 9
ENDMDL
